MODEL 1
REMARK VINA RESULT:      -7.3      0.000      0.000
REMARK  Name = 75366999
REMARK  9 active torsions:
REMARK  status: ('A' for Active; 'I' for Inactive)
REMARK    1  A    between atoms: O_3  and  C_12
REMARK    2  A    between atoms: O_6  and  C_21
REMARK    3  A    between atoms: O_6  and  C_25
REMARK    4  A    between atoms: N_7  and  C_16
REMARK    5  A    between atoms: N_9  and  C_22
REMARK    6  A    between atoms: C_10  and  C_15
REMARK    7  A    between atoms: C_11  and  C_16
REMARK    8  A    between atoms: C_15  and  C_17
REMARK    9  A    between atoms: C_20  and  C_21
REMARK                            x       y       z     vdW  Elec       q    Type
REMARK                         _______ _______ _______ _____ _____    ______ ____
ROOT
ATOM      2  O   UNL     1      11.489  10.768  21.322  0.00  0.00    -0.369 OA
ATOM     10  C   UNL     1      11.396   9.686  22.251  0.00  0.00    +0.125 C 
ATOM     11  C   UNL     1      12.141  11.944  21.819  0.00  0.00    +0.164 C 
ATOM     12  C   UNL     1      11.474  12.450  23.104  0.00  0.00    +0.145 C 
ATOM     13  C   UNL     1      10.631  10.114  23.503  0.00  0.00    +0.034 C 
ATOM     14  C   UNL     1      11.281  11.341  24.136  0.00  0.00    +0.036 C 
ENDROOT
BRANCH  12   3
ATOM      3  O   UNL     1      10.182  12.972  22.779  0.00  0.00    -0.389 OA
ATOM     34  H   UNL     1      10.277  13.509  21.974  0.00  0.00    +0.210 HD
ENDBRANCH  12   3
BRANCH  10  15
ATOM     15  C   UNL     1      10.682   8.538  21.547  0.00  0.00    +0.090 C 
BRANCH  15  17
ATOM      4  O   UNL     1      12.447   6.729  18.977  0.00  0.00    -0.356 OA
ATOM      8  N   UNL     1      11.789   6.802  20.199  0.00  0.00    -0.083 NA
ATOM     17  C   UNL     1      11.431   8.083  20.323  0.00  0.00    +0.086 A 
ATOM     18  C   UNL     1      11.831   8.858  19.221  0.00  0.00    +0.074 A 
ATOM     20  C   UNL     1      12.465   7.959  18.405  0.00  0.00    +0.175 A 
BRANCH  20  21
ATOM     21  C   UNL     1      13.128   8.063  17.099  0.00  0.00    +0.306 C 
BRANCH  21   6
ATOM      6  O   UNL     1      14.343   8.808  17.216  0.00  0.00    -0.484 OA
BRANCH   6  25
ATOM     25  C   UNL     1      14.351  10.054  16.652  0.00  0.00    +0.121 A 
ATOM     28  C   UNL     1      15.003  11.106  17.293  0.00  0.00    +0.045 A 
ATOM     29  C   UNL     1      13.704  10.271  15.435  0.00  0.00    +0.045 A 
ATOM     31  C   UNL     1      15.011  12.377  16.717  0.00  0.00    +0.004 A 
ATOM     32  C   UNL     1      13.712  11.541  14.859  0.00  0.00    +0.004 A 
ATOM     33  C   UNL     1      14.365  12.594  15.500  0.00  0.00    +0.000 A 
ENDBRANCH   6  25
ENDBRANCH  21   6
ENDBRANCH  20  21
ENDBRANCH  15  17
ENDBRANCH  10  15
BRANCH  11  16
ATOM     16  C   UNL     1      13.642  11.717  21.976  0.00  0.00    +0.140 C 
BRANCH  16   7
ATOM      5  O   UNL     1      15.667   9.737  22.410  0.00  0.00    -0.253 OA
ATOM      7  N   UNL     1      14.119  10.757  21.026  0.00  0.00    -0.297 N 
ATOM      9  N   UNL     1      15.376   9.011  20.197  0.00  0.00    -0.269 N 
ATOM     19  C   UNL     1      15.119   9.812  21.312  0.00  0.00    +0.304 C 
ATOM     35  H   UNL     1      13.744  10.792  20.084  0.00  0.00    +0.150 HD
ATOM     36  H   UNL     1      14.829   9.204  19.361  0.00  0.00    +0.156 HD
BRANCH   9  22
ATOM      1  F   UNL     1      19.021   4.859  19.751  0.00  0.00    -0.205 F 
ATOM     22  C   UNL     1      16.307   7.952  20.083  0.00  0.00    +0.035 A 
ATOM     23  C   UNL     1      17.521   8.013  20.767  0.00  0.00    +0.026 A 
ATOM     24  C   UNL     1      16.010   6.846  19.286  0.00  0.00    +0.026 A 
ATOM     26  C   UNL     1      18.438   6.968  20.655  0.00  0.00    +0.040 A 
ATOM     27  C   UNL     1      16.927   5.801  19.174  0.00  0.00    +0.040 A 
ATOM     30  C   UNL     1      18.141   5.862  19.858  0.00  0.00    +0.124 A 
ENDBRANCH   9  22
ENDBRANCH  16   7
ENDBRANCH  11  16
TORSDOF 9
ENDMDL
MODEL 2
REMARK VINA RESULT:      -7.3      3.706      6.581
REMARK  Name = 75366999
REMARK  9 active torsions:
REMARK  status: ('A' for Active; 'I' for Inactive)
REMARK    1  A    between atoms: O_3  and  C_12
REMARK    2  A    between atoms: O_6  and  C_21
REMARK    3  A    between atoms: O_6  and  C_25
REMARK    4  A    between atoms: N_7  and  C_16
REMARK    5  A    between atoms: N_9  and  C_22
REMARK    6  A    between atoms: C_10  and  C_15
REMARK    7  A    between atoms: C_11  and  C_16
REMARK    8  A    between atoms: C_15  and  C_17
REMARK    9  A    between atoms: C_20  and  C_21
REMARK                            x       y       z     vdW  Elec       q    Type
REMARK                         _______ _______ _______ _____ _____    ______ ____
ROOT
ATOM      2  O   UNL     1      11.734   7.331  19.255  0.00  0.00    -0.369 OA
ATOM     10  C   UNL     1      13.074   7.775  19.029  0.00  0.00    +0.125 C 
ATOM     11  C   UNL     1      11.211   7.609  20.561  0.00  0.00    +0.164 C 
ATOM     12  C   UNL     1      12.116   7.034  21.658  0.00  0.00    +0.145 C 
ATOM     13  C   UNL     1      14.031   7.129  20.030  0.00  0.00    +0.034 C 
ATOM     14  C   UNL     1      13.582   7.411  21.461  0.00  0.00    +0.036 C 
ENDROOT
BRANCH  12   3
ATOM      3  O   UNL     1      12.026   5.606  21.627  0.00  0.00    -0.389 OA
ATOM     34  H   UNL     1      12.233   5.280  22.519  0.00  0.00    +0.210 HD
ENDBRANCH  12   3
BRANCH  10  15
ATOM     15  C   UNL     1      13.447   7.396  17.601  0.00  0.00    +0.090 C 
BRANCH  15  17
ATOM      4  O   UNL     1      12.443   9.879  15.189  0.00  0.00    -0.356 OA
ATOM      8  N   UNL     1      12.227   8.719  15.923  0.00  0.00    -0.083 NA
ATOM     17  C   UNL     1      13.329   8.567  16.664  0.00  0.00    +0.086 A 
ATOM     18  C   UNL     1      14.265   9.591  16.442  0.00  0.00    +0.074 A 
ATOM     20  C   UNL     1      13.660  10.389  15.507  0.00  0.00    +0.175 A 
BRANCH  20  21
ATOM     21  C   UNL     1      14.053  11.624  14.818  0.00  0.00    +0.306 C 
BRANCH  21   6
ATOM      6  O   UNL     1      14.662  11.319  13.560  0.00  0.00    -0.484 OA
BRANCH   6  25
ATOM     25  C   UNL     1      15.953  11.737  13.392  0.00  0.00    +0.121 A 
ATOM     28  C   UNL     1      16.374  12.217  12.152  0.00  0.00    +0.045 A 
ATOM     29  C   UNL     1      16.847  11.682  14.460  0.00  0.00    +0.045 A 
ATOM     31  C   UNL     1      17.692  12.643  11.981  0.00  0.00    +0.004 A 
ATOM     32  C   UNL     1      18.164  12.108  14.288  0.00  0.00    +0.004 A 
ATOM     33  C   UNL     1      18.586  12.589  13.049  0.00  0.00    +0.000 A 
ENDBRANCH   6  25
ENDBRANCH  21   6
ENDBRANCH  20  21
ENDBRANCH  15  17
ENDBRANCH  10  15
BRANCH  11  16
ATOM     16  C   UNL     1      10.936   9.101  20.737  0.00  0.00    +0.140 C 
BRANCH  16   7
ATOM      5  O   UNL     1      11.561  11.695  21.782  0.00  0.00    -0.253 OA
ATOM      7  N   UNL     1      11.000   9.475  22.118  0.00  0.00    -0.297 N 
ATOM      9  N   UNL     1      11.301  10.840  23.953  0.00  0.00    -0.269 N 
ATOM     19  C   UNL     1      11.314  10.773  22.557  0.00  0.00    +0.304 C 
ATOM     35  H   UNL     1      10.853   8.753  22.816  0.00  0.00    +0.150 HD
ATOM     36  H   UNL     1      11.073   9.981  24.448  0.00  0.00    +0.156 HD
BRANCH   9  22
ATOM      1  F   UNL     1      12.330  15.239  27.164  0.00  0.00    -0.205 F 
ATOM     22  C   UNL     1      11.563  11.963  24.771  0.00  0.00    +0.035 A 
ATOM     23  C   UNL     1      10.545  12.873  25.055  0.00  0.00    +0.026 A 
ATOM     24  C   UNL     1      12.840  12.159  25.296  0.00  0.00    +0.026 A 
ATOM     26  C   UNL     1      10.805  13.980  25.863  0.00  0.00    +0.040 A 
ATOM     27  C   UNL     1      13.100  13.267  26.104  0.00  0.00    +0.040 A 
ATOM     30  C   UNL     1      12.082  14.177  26.388  0.00  0.00    +0.124 A 
ENDBRANCH   9  22
ENDBRANCH  16   7
ENDBRANCH  11  16
TORSDOF 9
ENDMDL
MODEL 3
REMARK VINA RESULT:      -7.3      3.541      7.431
REMARK  Name = 75366999
REMARK  9 active torsions:
REMARK  status: ('A' for Active; 'I' for Inactive)
REMARK    1  A    between atoms: O_3  and  C_12
REMARK    2  A    between atoms: O_6  and  C_21
REMARK    3  A    between atoms: O_6  and  C_25
REMARK    4  A    between atoms: N_7  and  C_16
REMARK    5  A    between atoms: N_9  and  C_22
REMARK    6  A    between atoms: C_10  and  C_15
REMARK    7  A    between atoms: C_11  and  C_16
REMARK    8  A    between atoms: C_15  and  C_17
REMARK    9  A    between atoms: C_20  and  C_21
REMARK                            x       y       z     vdW  Elec       q    Type
REMARK                         _______ _______ _______ _____ _____    ______ ____
ROOT
ATOM      2  O   UNL     1      20.829   6.773  22.544  0.00  0.00    -0.369 OA
ATOM     10  C   UNL     1      20.860   6.916  21.123  0.00  0.00    +0.125 C 
ATOM     11  C   UNL     1      21.498   7.807  23.277  0.00  0.00    +0.164 C 
ATOM     12  C   UNL     1      22.957   7.956  22.825  0.00  0.00    +0.145 C 
ATOM     13  C   UNL     1      22.301   6.949  20.616  0.00  0.00    +0.034 C 
ATOM     14  C   UNL     1      23.089   8.058  21.308  0.00  0.00    +0.036 C 
ENDROOT
BRANCH  12   3
ATOM      3  O   UNL     1      23.690   6.804  23.250  0.00  0.00    -0.389 OA
ATOM     34  H   UNL     1      24.418   7.112  23.816  0.00  0.00    +0.210 HD
ENDBRANCH  12   3
BRANCH  10  15
ATOM     15  C   UNL     1      20.103   5.736  20.526  0.00  0.00    +0.090 C 
BRANCH  15  17
ATOM      4  O   UNL     1      16.619   6.493  21.056  0.00  0.00    -0.356 OA
ATOM      8  N   UNL     1      17.915   6.280  21.511  0.00  0.00    -0.083 NA
ATOM     17  C   UNL     1      18.629   6.018  20.413  0.00  0.00    +0.086 A 
ATOM     18  C   UNL     1      17.846   6.052  19.247  0.00  0.00    +0.074 A 
ATOM     20  C   UNL     1      16.591   6.354  19.706  0.00  0.00    +0.175 A 
BRANCH  20  21
ATOM     21  C   UNL     1      15.290   6.546  19.055  0.00  0.00    +0.306 C 
BRANCH  21   6
ATOM      6  O   UNL     1      14.237   6.487  20.022  0.00  0.00    -0.484 OA
BRANCH   6  25
ATOM     25  C   UNL     1      13.121   7.230  19.754  0.00  0.00    +0.121 A 
ATOM     28  C   UNL     1      12.208   7.509  20.770  0.00  0.00    +0.045 A 
ATOM     29  C   UNL     1      12.897   7.708  18.463  0.00  0.00    +0.045 A 
ATOM     31  C   UNL     1      11.070   8.268  20.496  0.00  0.00    +0.004 A 
ATOM     32  C   UNL     1      11.759   8.466  18.190  0.00  0.00    +0.004 A 
ATOM     33  C   UNL     1      10.845   8.746  19.206  0.00  0.00    +0.000 A 
ENDBRANCH   6  25
ENDBRANCH  21   6
ENDBRANCH  20  21
ENDBRANCH  15  17
ENDBRANCH  10  15
BRANCH  11  16
ATOM     16  C   UNL     1      20.718   9.119  23.215  0.00  0.00    +0.140 C 
BRANCH  16   7
ATOM      5  O   UNL     1      18.907  10.727  21.685  0.00  0.00    -0.253 OA
ATOM      7  N   UNL     1      19.322   8.877  23.010  0.00  0.00    -0.297 N 
ATOM      9  N   UNL     1      17.183   9.227  22.221  0.00  0.00    -0.269 N 
ATOM     19  C   UNL     1      18.493   9.713  22.243  0.00  0.00    +0.304 C 
ATOM     35  H   UNL     1      18.901   8.082  23.480  0.00  0.00    +0.150 HD
ATOM     36  H   UNL     1      17.007   8.368  22.737  0.00  0.00    +0.156 HD
BRANCH   9  22
ATOM      1  F   UNL     1      12.788  11.405  19.638  0.00  0.00    -0.205 F 
ATOM     22  C   UNL     1      16.061   9.782  21.563  0.00  0.00    +0.035 A 
ATOM     23  C   UNL     1      14.932  10.148  22.295  0.00  0.00    +0.026 A 
ATOM     24  C   UNL     1      16.085   9.964  20.180  0.00  0.00    +0.026 A 
ATOM     26  C   UNL     1      13.827  10.696  21.645  0.00  0.00    +0.040 A 
ATOM     27  C   UNL     1      14.979  10.512  19.529  0.00  0.00    +0.040 A 
ATOM     30  C   UNL     1      13.850  10.878  20.262  0.00  0.00    +0.124 A 
ENDBRANCH   9  22
ENDBRANCH  16   7
ENDBRANCH  11  16
TORSDOF 9
ENDMDL
MODEL 4
REMARK VINA RESULT:      -7.2     27.091     30.100
REMARK  Name = 75366999
REMARK  9 active torsions:
REMARK  status: ('A' for Active; 'I' for Inactive)
REMARK    1  A    between atoms: O_3  and  C_12
REMARK    2  A    between atoms: O_6  and  C_21
REMARK    3  A    between atoms: O_6  and  C_25
REMARK    4  A    between atoms: N_7  and  C_16
REMARK    5  A    between atoms: N_9  and  C_22
REMARK    6  A    between atoms: C_10  and  C_15
REMARK    7  A    between atoms: C_11  and  C_16
REMARK    8  A    between atoms: C_15  and  C_17
REMARK    9  A    between atoms: C_20  and  C_21
REMARK                            x       y       z     vdW  Elec       q    Type
REMARK                         _______ _______ _______ _____ _____    ______ ____
ROOT
ATOM      2  O   UNL     1      -3.383 -10.296  14.157  0.00  0.00    -0.369 OA
ATOM     10  C   UNL     1      -3.007 -11.472  14.876  0.00  0.00    +0.125 C 
ATOM     11  C   UNL     1      -3.750 -10.509  12.787  0.00  0.00    +0.164 C 
ATOM     12  C   UNL     1      -2.635 -11.227  12.017  0.00  0.00    +0.145 C 
ATOM     13  C   UNL     1      -1.817 -12.157  14.205  0.00  0.00    +0.034 C 
ATOM     14  C   UNL     1      -2.131 -12.470  12.745  0.00  0.00    +0.036 C 
ENDROOT
BRANCH  12   3
ATOM      3  O   UNL     1      -1.529 -10.332  11.865  0.00  0.00    -0.389 OA
ATOM     34  H   UNL     1      -1.090 -10.261  12.729  0.00  0.00    +0.210 HD
ENDBRANCH  12   3
BRANCH  10  15
ATOM     15  C   UNL     1      -2.657 -11.047  16.297  0.00  0.00    +0.090 C 
BRANCH  15  17
ATOM      4  O   UNL     1      -5.794 -10.235  17.876  0.00  0.00    -0.356 OA
ATOM      8  N   UNL     1      -4.825 -10.049  16.898  0.00  0.00    -0.083 NA
ATOM     17  C   UNL     1      -3.881 -10.955  17.169  0.00  0.00    +0.086 A 
ATOM     18  C   UNL     1      -4.197 -11.734  18.295  0.00  0.00    +0.074 A 
ATOM     20  C   UNL     1      -5.409 -11.241  18.702  0.00  0.00    +0.175 A 
BRANCH  20  21
ATOM     21  C   UNL     1      -6.323 -11.572  19.802  0.00  0.00    +0.306 C 
BRANCH  21   6
ATOM      6  O   UNL     1      -7.483 -10.737  19.752  0.00  0.00    -0.484 OA
BRANCH   6  25
ATOM     25  C   UNL     1      -8.672 -11.360  19.491  0.00  0.00    +0.121 A 
ATOM     28  C   UNL     1      -8.698 -12.512  18.705  0.00  0.00    +0.045 A 
ATOM     29  C   UNL     1      -9.858 -10.842  20.011  0.00  0.00    +0.045 A 
ATOM     31  C   UNL     1      -9.911 -13.148  18.439  0.00  0.00    +0.004 A 
ATOM     32  C   UNL     1     -11.071 -11.479  19.744  0.00  0.00    +0.004 A 
ATOM     33  C   UNL     1     -11.097 -12.631  18.958  0.00  0.00    +0.000 A 
ENDBRANCH   6  25
ENDBRANCH  21   6
ENDBRANCH  20  21
ENDBRANCH  15  17
ENDBRANCH  10  15
BRANCH  11  16
ATOM     16  C   UNL     1      -5.099 -11.218  12.683  0.00  0.00    +0.140 C 
BRANCH  16   7
ATOM      5  O   UNL     1      -7.587  -9.874  13.142  0.00  0.00    -0.253 OA
ATOM      7  N   UNL     1      -5.816 -11.142  13.920  0.00  0.00    -0.297 N 
ATOM      9  N   UNL     1      -7.499 -10.560  15.385  0.00  0.00    -0.269 N 
ATOM     19  C   UNL     1      -7.037 -10.462  14.071  0.00  0.00    +0.304 C 
ATOM     35  H   UNL     1      -5.396 -11.566  14.742  0.00  0.00    +0.150 HD
ATOM     36  H   UNL     1      -6.921 -11.089  16.034  0.00  0.00    +0.156 HD
BRANCH   9  22
ATOM      1  F   UNL     1     -12.138  -8.419  17.535  0.00  0.00    -0.205 F 
ATOM     22  C   UNL     1      -8.683 -10.014  15.933  0.00  0.00    +0.035 A 
ATOM     23  C   UNL     1      -9.913 -10.625  15.687  0.00  0.00    +0.026 A 
ATOM     24  C   UNL     1      -8.621  -8.864  16.720  0.00  0.00    +0.026 A 
ATOM     26  C   UNL     1     -11.080 -10.085  16.228  0.00  0.00    +0.040 A 
ATOM     27  C   UNL     1      -9.789  -8.325  17.261  0.00  0.00    +0.040 A 
ATOM     30  C   UNL     1     -11.018  -8.936  17.015  0.00  0.00    +0.124 A 
ENDBRANCH   9  22
ENDBRANCH  16   7
ENDBRANCH  11  16
TORSDOF 9
ENDMDL
MODEL 5
REMARK VINA RESULT:      -7.2     13.693     16.628
REMARK  Name = 75366999
REMARK  9 active torsions:
REMARK  status: ('A' for Active; 'I' for Inactive)
REMARK    1  A    between atoms: O_3  and  C_12
REMARK    2  A    between atoms: O_6  and  C_21
REMARK    3  A    between atoms: O_6  and  C_25
REMARK    4  A    between atoms: N_7  and  C_16
REMARK    5  A    between atoms: N_9  and  C_22
REMARK    6  A    between atoms: C_10  and  C_15
REMARK    7  A    between atoms: C_11  and  C_16
REMARK    8  A    between atoms: C_15  and  C_17
REMARK    9  A    between atoms: C_20  and  C_21
REMARK                            x       y       z     vdW  Elec       q    Type
REMARK                         _______ _______ _______ _____ _____    ______ ____
ROOT
ATOM      2  O   UNL     1      11.413   6.253   7.110  0.00  0.00    -0.369 OA
ATOM     10  C   UNL     1      11.250   7.633   6.772  0.00  0.00    +0.125 C 
ATOM     11  C   UNL     1      10.248   5.438   6.929  0.00  0.00    +0.164 C 
ATOM     12  C   UNL     1       9.049   6.000   7.703  0.00  0.00    +0.145 C 
ATOM     13  C   UNL     1      10.138   8.264   7.610  0.00  0.00    +0.034 C 
ATOM     14  C   UNL     1       8.834   7.489   7.445  0.00  0.00    +0.036 C 
ENDROOT
BRANCH  12   3
ATOM      3  O   UNL     1       9.284   5.829   9.104  0.00  0.00    -0.389 OA
ATOM     34  H   UNL     1       9.378   6.714   9.495  0.00  0.00    +0.210 HD
ENDBRANCH  12   3
BRANCH  10  15
ATOM     15  C   UNL     1      12.582   8.328   7.027  0.00  0.00    +0.090 C 
BRANCH  15  17
ATOM      4  O   UNL     1      14.273   7.537   3.944  0.00  0.00    -0.356 OA
ATOM      8  N   UNL     1      13.127   7.675   4.718  0.00  0.00    -0.083 NA
ATOM     17  C   UNL     1      13.565   8.072   5.916  0.00  0.00    +0.086 A 
ATOM     18  C   UNL     1      14.963   8.201   5.957  0.00  0.00    +0.074 A 
ATOM     20  C   UNL     1      15.359   7.853   4.693  0.00  0.00    +0.175 A 
BRANCH  20  21
ATOM     21  C   UNL     1      16.664   7.759   4.026  0.00  0.00    +0.306 C 
BRANCH  21   6
ATOM      6  O   UNL     1      17.516   8.827   4.450  0.00  0.00    -0.484 OA
BRANCH   6  25
ATOM     25  C   UNL     1      18.681   8.467   5.069  0.00  0.00    +0.121 A 
ATOM     28  C   UNL     1      18.933   8.878   6.377  0.00  0.00    +0.045 A 
ATOM     29  C   UNL     1      19.618   7.688   4.390  0.00  0.00    +0.045 A 
ATOM     31  C   UNL     1      20.121   8.511   7.008  0.00  0.00    +0.004 A 
ATOM     32  C   UNL     1      20.806   7.320   5.021  0.00  0.00    +0.004 A 
ATOM     33  C   UNL     1      21.058   7.732   6.330  0.00  0.00    +0.000 A 
ENDBRANCH   6  25
ENDBRANCH  21   6
ENDBRANCH  20  21
ENDBRANCH  15  17
ENDBRANCH  10  15
BRANCH  11  16
ATOM     16  C   UNL     1       9.952   5.223   5.446  0.00  0.00    +0.140 C 
BRANCH  16   7
ATOM      5  O   UNL     1      10.204   4.676   2.645  0.00  0.00    -0.253 OA
ATOM      7  N   UNL     1      11.156   5.258   4.672  0.00  0.00    -0.297 N 
ATOM      9  N   UNL     1      12.508   5.090   2.811  0.00  0.00    -0.269 N 
ATOM     19  C   UNL     1      11.203   4.977   3.295  0.00  0.00    +0.304 C 
ATOM     35  H   UNL     1      12.028   5.454   5.153  0.00  0.00    +0.150 HD
ATOM     36  H   UNL     1      13.224   5.352   3.486  0.00  0.00    +0.156 HD
BRANCH   9  22
ATOM      1  F   UNL     1      14.302   4.292  -2.373  0.00  0.00    -0.205 F 
ATOM     22  C   UNL     1      12.965   4.887   1.488  0.00  0.00    +0.035 A 
ATOM     23  C   UNL     1      13.338   5.978   0.703  0.00  0.00    +0.026 A 
ATOM     24  C   UNL     1      13.044   3.595   0.969  0.00  0.00    +0.026 A 
ATOM     26  C   UNL     1      13.789   5.777  -0.601  0.00  0.00    +0.040 A 
ATOM     27  C   UNL     1      13.495   3.394  -0.336  0.00  0.00    +0.040 A 
ATOM     30  C   UNL     1      13.868   4.485  -1.121  0.00  0.00    +0.124 A 
ENDBRANCH   9  22
ENDBRANCH  16   7
ENDBRANCH  11  16
TORSDOF 9
ENDMDL
MODEL 6
REMARK VINA RESULT:      -7.1     26.846     29.635
REMARK  Name = 75366999
REMARK  9 active torsions:
REMARK  status: ('A' for Active; 'I' for Inactive)
REMARK    1  A    between atoms: O_3  and  C_12
REMARK    2  A    between atoms: O_6  and  C_21
REMARK    3  A    between atoms: O_6  and  C_25
REMARK    4  A    between atoms: N_7  and  C_16
REMARK    5  A    between atoms: N_9  and  C_22
REMARK    6  A    between atoms: C_10  and  C_15
REMARK    7  A    between atoms: C_11  and  C_16
REMARK    8  A    between atoms: C_15  and  C_17
REMARK    9  A    between atoms: C_20  and  C_21
REMARK                            x       y       z     vdW  Elec       q    Type
REMARK                         _______ _______ _______ _____ _____    ______ ____
ROOT
ATOM      2  O   UNL     1      -4.625  -9.182  11.509  0.00  0.00    -0.369 OA
ATOM     10  C   UNL     1      -4.082 -10.427  11.066  0.00  0.00    +0.125 C 
ATOM     11  C   UNL     1      -5.996  -8.953  11.155  0.00  0.00    +0.164 C 
ATOM     12  C   UNL     1      -6.209  -9.077   9.641  0.00  0.00    +0.145 C 
ATOM     13  C   UNL     1      -4.166 -10.541   9.544  0.00  0.00    +0.034 C 
ATOM     14  C   UNL     1      -5.605 -10.358   9.070  0.00  0.00    +0.036 C 
ENDROOT
BRANCH  12   3
ATOM      3  O   UNL     1      -5.573  -7.970   8.995  0.00  0.00    -0.389 OA
ATOM     34  H   UNL     1      -5.741  -7.179   9.534  0.00  0.00    +0.210 HD
ENDBRANCH  12   3
BRANCH  10  15
ATOM     15  C   UNL     1      -2.633 -10.487  11.534  0.00  0.00    +0.090 C 
BRANCH  15  17
ATOM      4  O   UNL     1      -1.668 -10.206  14.995  0.00  0.00    -0.356 OA
ATOM      8  N   UNL     1      -1.430 -10.050  13.636  0.00  0.00    -0.083 NA
ATOM     17  C   UNL     1      -2.533 -10.505  13.036  0.00  0.00    +0.086 A 
ATOM     18  C   UNL     1      -3.492 -10.957  13.958  0.00  0.00    +0.074 A 
ATOM     20  C   UNL     1      -2.899 -10.748  15.174  0.00  0.00    +0.175 A 
BRANCH  20  21
ATOM     21  C   UNL     1      -3.315 -10.983  16.562  0.00  0.00    +0.306 C 
BRANCH  21   6
ATOM      6  O   UNL     1      -4.585 -10.374  16.811  0.00  0.00    -0.484 OA
BRANCH   6  25
ATOM     25  C   UNL     1      -5.437 -11.057  17.633  0.00  0.00    +0.121 A 
ATOM     28  C   UNL     1      -5.592 -10.662  18.962  0.00  0.00    +0.045 A 
ATOM     29  C   UNL     1      -6.152 -12.150  17.143  0.00  0.00    +0.045 A 
ATOM     31  C   UNL     1      -6.462 -11.359  19.801  0.00  0.00    +0.004 A 
ATOM     32  C   UNL     1      -7.021 -12.847  17.982  0.00  0.00    +0.004 A 
ATOM     33  C   UNL     1      -7.176 -12.451  19.310  0.00  0.00    +0.000 A 
ENDBRANCH   6  25
ENDBRANCH  21   6
ENDBRANCH  20  21
ENDBRANCH  15  17
ENDBRANCH  10  15
BRANCH  11  16
ATOM     16  C   UNL     1      -6.930  -9.851  11.963  0.00  0.00    +0.140 C 
BRANCH  16   7
ATOM      5  O   UNL     1      -9.012 -10.689  13.744  0.00  0.00    -0.253 OA
ATOM      7  N   UNL     1      -7.308  -9.225  13.194  0.00  0.00    -0.297 N 
ATOM      9  N   UNL     1      -8.483  -8.885  15.149  0.00  0.00    -0.269 N 
ATOM     19  C   UNL     1      -8.344  -9.695  14.019  0.00  0.00    +0.304 C 
ATOM     35  H   UNL     1      -6.829  -8.370  13.461  0.00  0.00    +0.150 HD
ATOM     36  H   UNL     1      -7.844  -8.097  15.226  0.00  0.00    +0.156 HD
BRANCH   9  22
ATOM      1  F   UNL     1     -12.103  -9.440  19.310  0.00  0.00    -0.205 F 
ATOM     22  C   UNL     1      -9.407  -9.025  16.210  0.00  0.00    +0.035 A 
ATOM     23  C   UNL     1     -10.643  -8.382  16.150  0.00  0.00    +0.026 A 
ATOM     24  C   UNL     1      -9.081  -9.809  17.317  0.00  0.00    +0.026 A 
ATOM     26  C   UNL     1     -11.553  -8.522  17.198  0.00  0.00    +0.040 A 
ATOM     27  C   UNL     1      -9.992  -9.949  18.365  0.00  0.00    +0.040 A 
ATOM     30  C   UNL     1     -11.229  -9.305  18.305  0.00  0.00    +0.124 A 
ENDBRANCH   9  22
ENDBRANCH  16   7
ENDBRANCH  11  16
TORSDOF 9
ENDMDL
MODEL 7
REMARK VINA RESULT:      -7.0     27.198     29.554
REMARK  Name = 75366999
REMARK  9 active torsions:
REMARK  status: ('A' for Active; 'I' for Inactive)
REMARK    1  A    between atoms: O_3  and  C_12
REMARK    2  A    between atoms: O_6  and  C_21
REMARK    3  A    between atoms: O_6  and  C_25
REMARK    4  A    between atoms: N_7  and  C_16
REMARK    5  A    between atoms: N_9  and  C_22
REMARK    6  A    between atoms: C_10  and  C_15
REMARK    7  A    between atoms: C_11  and  C_16
REMARK    8  A    between atoms: C_15  and  C_17
REMARK    9  A    between atoms: C_20  and  C_21
REMARK                            x       y       z     vdW  Elec       q    Type
REMARK                         _______ _______ _______ _____ _____    ______ ____
ROOT
ATOM      2  O   UNL     1      -6.799 -12.021  17.307  0.00  0.00    -0.369 OA
ATOM     10  C   UNL     1      -5.371 -12.044  17.386  0.00  0.00    +0.125 C 
ATOM     11  C   UNL     1      -7.438 -11.025  18.115  0.00  0.00    +0.164 C 
ATOM     12  C   UNL     1      -7.025 -11.150  19.587  0.00  0.00    +0.145 C 
ATOM     13  C   UNL     1      -4.915 -12.287  18.824  0.00  0.00    +0.034 C 
ATOM     14  C   UNL     1      -5.511 -11.239  19.761  0.00  0.00    +0.036 C 
ENDROOT
BRANCH  12   3
ATOM      3  O   UNL     1      -7.597 -12.345  20.126  0.00  0.00    -0.389 OA
ATOM     34  H   UNL     1      -6.936 -12.746  20.715  0.00  0.00    +0.210 HD
ENDBRANCH  12   3
BRANCH  10  15
ATOM     15  C   UNL     1      -4.880 -13.156  16.467  0.00  0.00    +0.090 C 
BRANCH  15  17
ATOM      4  O   UNL     1      -2.491 -12.684  13.810  0.00  0.00    -0.356 OA
ATOM      8  N   UNL     1      -3.226 -13.485  14.674  0.00  0.00    -0.083 NA
ATOM     17  C   UNL     1      -3.947 -12.633  15.408  0.00  0.00    +0.086 A 
ATOM     18  C   UNL     1      -3.710 -11.294  15.055  0.00  0.00    +0.074 A 
ATOM     20  C   UNL     1      -2.787 -11.381  14.046  0.00  0.00    +0.175 A 
BRANCH  20  21
ATOM     21  C   UNL     1      -2.093 -10.391  13.215  0.00  0.00    +0.306 C 
BRANCH  21   6
ATOM      6  O   UNL     1      -1.851 -10.920  11.908  0.00  0.00    -0.484 OA
BRANCH   6  25
ATOM     25  C   UNL     1      -2.774 -10.614  10.947  0.00  0.00    +0.121 A 
ATOM     28  C   UNL     1      -2.887  -9.306  10.479  0.00  0.00    +0.045 A 
ATOM     29  C   UNL     1      -3.604 -11.613  10.436  0.00  0.00    +0.045 A 
ATOM     31  C   UNL     1      -3.829  -8.994   9.499  0.00  0.00    +0.004 A 
ATOM     32  C   UNL     1      -4.545 -11.300   9.455  0.00  0.00    +0.004 A 
ATOM     33  C   UNL     1      -4.658  -9.992   8.987  0.00  0.00    +0.000 A 
ENDBRANCH   6  25
ENDBRANCH  21   6
ENDBRANCH  20  21
ENDBRANCH  15  17
ENDBRANCH  10  15
BRANCH  11  16
ATOM     16  C   UNL     1      -7.207  -9.626  17.548  0.00  0.00    +0.140 C 
BRANCH  16   7
ATOM      5  O   UNL     1      -9.073  -8.927  15.488  0.00  0.00    -0.253 OA
ATOM      7  N   UNL     1      -8.377  -8.813  17.692  0.00  0.00    -0.297 N 
ATOM      9  N   UNL     1     -10.300  -7.702  17.070  0.00  0.00    -0.269 N 
ATOM     19  C   UNL     1      -9.250  -8.512  16.632  0.00  0.00    +0.304 C 
ATOM     35  H   UNL     1      -8.561  -8.397  18.600  0.00  0.00    +0.150 HD
ATOM     36  H   UNL     1     -10.300  -7.449  18.056  0.00  0.00    +0.156 HD
BRANCH   9  22
ATOM      1  F   UNL     1     -14.521  -5.692  14.091  0.00  0.00    -0.205 F 
ATOM     22  C   UNL     1     -11.377  -7.188  16.310  0.00  0.00    +0.035 A 
ATOM     23  C   UNL     1     -11.192  -6.060  15.511  0.00  0.00    +0.026 A 
ATOM     24  C   UNL     1     -12.624  -7.812  16.359  0.00  0.00    +0.026 A 
ATOM     26  C   UNL     1     -12.254  -5.554  14.762  0.00  0.00    +0.040 A 
ATOM     27  C   UNL     1     -13.686  -7.305  15.609  0.00  0.00    +0.040 A 
ATOM     30  C   UNL     1     -13.501  -6.177  14.811  0.00  0.00    +0.124 A 
ENDBRANCH   9  22
ENDBRANCH  16   7
ENDBRANCH  11  16
TORSDOF 9
ENDMDL
MODEL 8
REMARK VINA RESULT:      -6.9     17.444     21.038
REMARK  Name = 75366999
REMARK  9 active torsions:
REMARK  status: ('A' for Active; 'I' for Inactive)
REMARK    1  A    between atoms: O_3  and  C_12
REMARK    2  A    between atoms: O_6  and  C_21
REMARK    3  A    between atoms: O_6  and  C_25
REMARK    4  A    between atoms: N_7  and  C_16
REMARK    5  A    between atoms: N_9  and  C_22
REMARK    6  A    between atoms: C_10  and  C_15
REMARK    7  A    between atoms: C_11  and  C_16
REMARK    8  A    between atoms: C_15  and  C_17
REMARK    9  A    between atoms: C_20  and  C_21
REMARK                            x       y       z     vdW  Elec       q    Type
REMARK                         _______ _______ _______ _____ _____    ______ ____
ROOT
ATOM      2  O   UNL     1      12.841   2.741   0.221  0.00  0.00    -0.369 OA
ATOM     10  C   UNL     1      12.965   3.707  -0.826  0.00  0.00    +0.125 C 
ATOM     11  C   UNL     1      12.940   3.266   1.551  0.00  0.00    +0.164 C 
ATOM     12  C   UNL     1      14.247   4.044   1.747  0.00  0.00    +0.145 C 
ATOM     13  C   UNL     1      14.310   4.426  -0.738  0.00  0.00    +0.034 C 
ATOM     14  C   UNL     1      14.490   5.064   0.637  0.00  0.00    +0.036 C 
ENDROOT
BRANCH  12   3
ATOM      3  O   UNL     1      15.340   3.120   1.737  0.00  0.00    -0.389 OA
ATOM     34  H   UNL     1      16.000   3.439   2.375  0.00  0.00    +0.210 HD
ENDBRANCH  12   3
BRANCH  10  15
ATOM     15  C   UNL     1      12.832   2.966  -2.151  0.00  0.00    +0.090 C 
BRANCH  15  17
ATOM      4  O   UNL     1       9.425   2.683  -3.293  0.00  0.00    -0.356 OA
ATOM      8  N   UNL     1      10.544   2.195  -2.630  0.00  0.00    -0.083 NA
ATOM     17  C   UNL     1      11.468   3.153  -2.759  0.00  0.00    +0.086 A 
ATOM     18  C   UNL     1      10.992   4.257  -3.485  0.00  0.00    +0.074 A 
ATOM     20  C   UNL     1       9.704   3.912  -3.798  0.00  0.00    +0.175 A 
BRANCH  20  21
ATOM     21  C   UNL     1       8.623   4.577  -4.535  0.00  0.00    +0.306 C 
BRANCH  21   6
ATOM      6  O   UNL     1       8.244   5.788  -3.876  0.00  0.00    -0.484 OA
BRANCH   6  25
ATOM     25  C   UNL     1       6.906   6.067  -3.836  0.00  0.00    +0.121 A 
ATOM     28  C   UNL     1       6.044   5.482  -4.762  0.00  0.00    +0.045 A 
ATOM     29  C   UNL     1       6.405   6.937  -2.868  0.00  0.00    +0.045 A 
ATOM     31  C   UNL     1       4.678   5.766  -4.721  0.00  0.00    +0.004 A 
ATOM     32  C   UNL     1       5.039   7.221  -2.828  0.00  0.00    +0.004 A 
ATOM     33  C   UNL     1       4.177   6.636  -3.754  0.00  0.00    +0.000 A 
ENDBRANCH   6  25
ENDBRANCH  21   6
ENDBRANCH  20  21
ENDBRANCH  15  17
ENDBRANCH  10  15
BRANCH  11  16
ATOM     16  C   UNL     1      11.701   4.080   1.915  0.00  0.00    +0.140 C 
BRANCH  16   7
ATOM      5  O   UNL     1      10.291   6.254   3.137  0.00  0.00    -0.253 OA
ATOM      7  N   UNL     1      11.707   4.433   3.303  0.00  0.00    -0.297 N 
ATOM      9  N   UNL     1      11.184   5.616   5.212  0.00  0.00    -0.269 N 
ATOM     19  C   UNL     1      10.987   5.517   3.832  0.00  0.00    +0.304 C 
ATOM     35  H   UNL     1      12.298   3.895   3.929  0.00  0.00    +0.150 HD
ATOM     36  H   UNL     1      11.793   4.920   5.637  0.00  0.00    +0.156 HD
BRANCH   9  22
ATOM      1  F   UNL     1       9.029   9.347   8.699  0.00  0.00    -0.205 F 
ATOM     22  C   UNL     1      10.635   6.568   6.102  0.00  0.00    +0.035 A 
ATOM     23  C   UNL     1      11.278   7.790   6.301  0.00  0.00    +0.026 A 
ATOM     24  C   UNL     1       9.450   6.285   6.780  0.00  0.00    +0.026 A 
ATOM     26  C   UNL     1      10.735   8.728   7.179  0.00  0.00    +0.040 A 
ATOM     27  C   UNL     1       8.907   7.224   7.659  0.00  0.00    +0.040 A 
ATOM     30  C   UNL     1       9.550   8.446   7.857  0.00  0.00    +0.124 A 
ENDBRANCH   9  22
ENDBRANCH  16   7
ENDBRANCH  11  16
TORSDOF 9
ENDMDL
MODEL 9
REMARK VINA RESULT:      -6.9     28.547     31.352
REMARK  Name = 75366999
REMARK  9 active torsions:
REMARK  status: ('A' for Active; 'I' for Inactive)
REMARK    1  A    between atoms: O_3  and  C_12
REMARK    2  A    between atoms: O_6  and  C_21
REMARK    3  A    between atoms: O_6  and  C_25
REMARK    4  A    between atoms: N_7  and  C_16
REMARK    5  A    between atoms: N_9  and  C_22
REMARK    6  A    between atoms: C_10  and  C_15
REMARK    7  A    between atoms: C_11  and  C_16
REMARK    8  A    between atoms: C_15  and  C_17
REMARK    9  A    between atoms: C_20  and  C_21
REMARK                            x       y       z     vdW  Elec       q    Type
REMARK                         _______ _______ _______ _____ _____    ______ ____
ROOT
ATOM      2  O   UNL     1     -14.212   2.230  30.773  0.00  0.00    -0.369 OA
ATOM     10  C   UNL     1     -14.978   1.773  31.890  0.00  0.00    +0.125 C 
ATOM     11  C   UNL     1     -14.568   1.650  29.511  0.00  0.00    +0.164 C 
ATOM     12  C   UNL     1     -14.504   0.118  29.563  0.00  0.00    +0.145 C 
ATOM     13  C   UNL     1     -14.846   0.259  32.051  0.00  0.00    +0.034 C 
ATOM     14  C   UNL     1     -15.252  -0.455  30.764  0.00  0.00    +0.036 C 
ENDROOT
BRANCH  12   3
ATOM      3  O   UNL     1     -13.135  -0.282  29.670  0.00  0.00    -0.389 OA
ATOM     34  H   UNL     1     -12.718  -0.135  28.804  0.00  0.00    +0.210 HD
ENDBRANCH  12   3
BRANCH  10  15
ATOM     15  C   UNL     1     -14.460   2.497  33.127  0.00  0.00    +0.090 C 
BRANCH  15  17
ATOM      4  O   UNL     1     -15.944   5.775  33.329  0.00  0.00    -0.356 OA
ATOM      8  N   UNL     1     -15.983   4.395  33.488  0.00  0.00    -0.083 NA
ATOM     17  C   UNL     1     -14.782   3.966  33.089  0.00  0.00    +0.086 A 
ATOM     18  C   UNL     1     -13.952   5.020  32.671  0.00  0.00    +0.074 A 
ATOM     20  C   UNL     1     -14.729   6.134  32.841  0.00  0.00    +0.175 A 
BRANCH  20  21
ATOM     21  C   UNL     1     -14.515   7.568  32.610  0.00  0.00    +0.306 C 
BRANCH  21   6
ATOM      6  O   UNL     1     -13.844   8.157  33.728  0.00  0.00    -0.484 OA
BRANCH   6  25
ATOM     25  C   UNL     1     -12.602   8.676  33.487  0.00  0.00    +0.121 A 
ATOM     28  C   UNL     1     -11.896   9.301  34.514  0.00  0.00    +0.045 A 
ATOM     29  C   UNL     1     -12.042   8.580  32.213  0.00  0.00    +0.045 A 
ATOM     31  C   UNL     1     -10.629   9.830  34.269  0.00  0.00    +0.004 A 
ATOM     32  C   UNL     1     -10.775   9.109  31.968  0.00  0.00    +0.004 A 
ATOM     33  C   UNL     1     -10.069   9.734  32.995  0.00  0.00    +0.000 A 
ENDBRANCH   6  25
ENDBRANCH  21   6
ENDBRANCH  20  21
ENDBRANCH  15  17
ENDBRANCH  10  15
BRANCH  11  16
ATOM     16  C   UNL     1     -15.918   2.174  29.025  0.00  0.00    +0.140 C 
BRANCH  16   7
ATOM      5  O   UNL     1     -16.499   2.008  26.225  0.00  0.00    -0.253 OA
ATOM      7  N   UNL     1     -15.747   3.210  28.053  0.00  0.00    -0.297 N 
ATOM      9  N   UNL     1     -15.787   4.231  25.985  0.00  0.00    -0.269 N 
ATOM     19  C   UNL     1     -16.056   3.056  26.690  0.00  0.00    +0.304 C 
ATOM     35  H   UNL     1     -15.341   4.089  28.357  0.00  0.00    +0.150 HD
ATOM     36  H   UNL     1     -15.423   5.014  26.525  0.00  0.00    +0.156 HD
BRANCH   9  22
ATOM      1  F   UNL     1     -16.475   5.192  20.569  0.00  0.00    -0.205 F 
ATOM     22  C   UNL     1     -15.964   4.476  24.603  0.00  0.00    +0.035 A 
ATOM     23  C   UNL     1     -17.248   4.533  24.062  0.00  0.00    +0.026 A 
ATOM     24  C   UNL     1     -14.852   4.660  23.781  0.00  0.00    +0.026 A 
ATOM     26  C   UNL     1     -17.420   4.775  22.699  0.00  0.00    +0.040 A 
ATOM     27  C   UNL     1     -15.025   4.902  22.418  0.00  0.00    +0.040 A 
ATOM     30  C   UNL     1     -16.309   4.960  21.877  0.00  0.00    +0.124 A 
ENDBRANCH   9  22
ENDBRANCH  16   7
ENDBRANCH  11  16
TORSDOF 9
ENDMDL
MODEL 10
REMARK VINA RESULT:      -6.8     14.744     18.789
REMARK  Name = 75366999
REMARK  9 active torsions:
REMARK  status: ('A' for Active; 'I' for Inactive)
REMARK    1  A    between atoms: O_3  and  C_12
REMARK    2  A    between atoms: O_6  and  C_21
REMARK    3  A    between atoms: O_6  and  C_25
REMARK    4  A    between atoms: N_7  and  C_16
REMARK    5  A    between atoms: N_9  and  C_22
REMARK    6  A    between atoms: C_10  and  C_15
REMARK    7  A    between atoms: C_11  and  C_16
REMARK    8  A    between atoms: C_15  and  C_17
REMARK    9  A    between atoms: C_20  and  C_21
REMARK                            x       y       z     vdW  Elec       q    Type
REMARK                         _______ _______ _______ _____ _____    ______ ____
ROOT
ATOM      2  O   UNL     1      15.327   4.047  -0.179  0.00  0.00    -0.369 OA
ATOM     10  C   UNL     1      14.089   4.363  -0.820  0.00  0.00    +0.125 C 
ATOM     11  C   UNL     1      16.392   4.976  -0.418  0.00  0.00    +0.164 C 
ATOM     12  C   UNL     1      16.645   5.160  -1.920  0.00  0.00    +0.145 C 
ATOM     13  C   UNL     1      14.272   4.440  -2.336  0.00  0.00    +0.034 C 
ATOM     14  C   UNL     1      15.362   5.446  -2.695  0.00  0.00    +0.036 C 
ENDROOT
BRANCH  12   3
ATOM      3  O   UNL     1      17.212   3.955  -2.443  0.00  0.00    -0.389 OA
ATOM     34  H   UNL     1      16.530   3.521  -2.983  0.00  0.00    +0.210 HD
ENDBRANCH  12   3
BRANCH  10  15
ATOM     15  C   UNL     1      13.090   3.274  -0.449  0.00  0.00    +0.090 C 
BRANCH  15  17
ATOM      4  O   UNL     1      11.606   3.429   2.832  0.00  0.00    -0.356 OA
ATOM      8  N   UNL     1      12.415   2.829   1.875  0.00  0.00    -0.083 NA
ATOM     17  C   UNL     1      12.327   3.620   0.801  0.00  0.00    +0.086 A 
ATOM     18  C   UNL     1      11.486   4.723   1.020  0.00  0.00    +0.074 A 
ATOM     20  C   UNL     1      11.058   4.556   2.310  0.00  0.00    +0.175 A 
BRANCH  20  21
ATOM     21  C   UNL     1      10.168   5.320   3.193  0.00  0.00    +0.306 C 
BRANCH  21   6
ATOM      6  O   UNL     1      10.152   4.744   4.502  0.00  0.00    -0.484 OA
BRANCH   6  25
ATOM     25  C   UNL     1       9.734   5.556   5.520  0.00  0.00    +0.121 A 
ATOM     28  C   UNL     1       8.716   6.483   5.299  0.00  0.00    +0.045 A 
ATOM     29  C   UNL     1      10.326   5.456   6.779  0.00  0.00    +0.045 A 
ATOM     31  C   UNL     1       8.289   7.311   6.337  0.00  0.00    +0.004 A 
ATOM     32  C   UNL     1       9.899   6.284   7.816  0.00  0.00    +0.004 A 
ATOM     33  C   UNL     1       8.881   7.211   7.596  0.00  0.00    +0.000 A 
ENDBRANCH   6  25
ENDBRANCH  21   6
ENDBRANCH  20  21
ENDBRANCH  15  17
ENDBRANCH  10  15
BRANCH  11  16
ATOM     16  C   UNL     1      16.147   6.295   0.312  0.00  0.00    +0.140 C 
BRANCH  16   7
ATOM      5  O   UNL     1      14.863   8.263   1.950  0.00  0.00    -0.253 OA
ATOM      7  N   UNL     1      15.505   6.073   1.572  0.00  0.00    -0.297 N 
ATOM      9  N   UNL     1      14.352   6.580   3.504  0.00  0.00    -0.269 N 
ATOM     19  C   UNL     1      14.893   7.092   2.322  0.00  0.00    +0.304 C 
ATOM     35  H   UNL     1      15.532   5.137   1.964  0.00  0.00    +0.150 HD
ATOM     36  H   UNL     1      14.462   5.581   3.660  0.00  0.00    +0.156 HD
BRANCH   9  22
ATOM      1  F   UNL     1      11.636   9.333   7.476  0.00  0.00    -0.205 F 
ATOM     22  C   UNL     1      13.659   7.282   4.518  0.00  0.00    +0.035 A 
ATOM     23  C   UNL     1      14.177   7.331   5.812  0.00  0.00    +0.026 A 
ATOM     24  C   UNL     1      12.458   7.926   4.223  0.00  0.00    +0.026 A 
ATOM     26  C   UNL     1      13.493   8.023   6.811  0.00  0.00    +0.040 A 
ATOM     27  C   UNL     1      11.774   8.619   5.222  0.00  0.00    +0.040 A 
ATOM     30  C   UNL     1      12.292   8.668   6.517  0.00  0.00    +0.124 A 
ENDBRANCH   9  22
ENDBRANCH  16   7
ENDBRANCH  11  16
TORSDOF 9
ENDMDL
