MODEL 1
REMARK VINA RESULT:      -6.0      0.000      0.000
REMARK  Name = 45783481
REMARK  11 active torsions:
REMARK  status: ('A' for Active; 'I' for Inactive)
REMARK    1  A    between atoms: O_2  and  C_24
REMARK    2  A    between atoms: O_2  and  C_25
REMARK    3  A    between atoms: N_3  and  C_12
REMARK    4  A    between atoms: N_7  and  C_22
REMARK    5  A    between atoms: N_7  and  C_23
REMARK    6  A    between atoms: C_8  and  C_14
REMARK    7  A    between atoms: C_12  and  C_13
REMARK    8  A    between atoms: C_13  and  C_15
REMARK    9  A    between atoms: C_13  and  C_16
REMARK   10  A    between atoms: C_17  and  C_18
REMARK   11  A    between atoms: C_23  and  C_24
REMARK                            x       y       z     vdW  Elec       q    Type
REMARK                         _______ _______ _______ _____ _____    ______ ____
ROOT
ATOM      1  O   UNL     1      15.054   9.621  21.907  0.00  0.00    -0.336 OA
ATOM      4  N   UNL     1      15.046   7.876  20.503  0.00  0.00    -0.190 NA
ATOM      5  N   UNL     1      16.349   9.087  21.941  0.00  0.00    -0.056 NA
ATOM     14  C   UNL     1      14.351   8.848  21.037  0.00  0.00    +0.245 A 
ATOM     17  C   UNL     1      16.264   8.062  21.088  0.00  0.00    +0.204 A 
ENDROOT
BRANCH  17  18
ATOM      6  N   UNL     1      19.629   6.496  21.325  0.00  0.00    -0.240 NA
ATOM     18  C   UNL     1      17.378   7.206  20.799  0.00  0.00    +0.041 A 
ATOM     19  C   UNL     1      17.322   6.281  19.763  0.00  0.00    +0.016 A 
ATOM     20  C   UNL     1      18.544   7.273  21.544  0.00  0.00    +0.124 A 
ATOM     21  C   UNL     1      18.417   5.464  19.506  0.00  0.00    +0.044 A 
ATOM     22  C   UNL     1      19.536   5.609  20.309  0.00  0.00    +0.119 A 
BRANCH  22   7
ATOM      7  N   UNL     1      20.644   4.769  20.036  0.00  0.00    -0.327 N 
ATOM     26  H   UNL     1      20.453   3.928  19.504  0.00  0.00    +0.148 HD
BRANCH   7  23
ATOM     23  C   UNL     1      21.966   5.070  20.482  0.00  0.00    +0.131 C 
BRANCH  23  24
ATOM     24  C   UNL     1      22.453   3.988  21.432  0.00  0.00    +0.178 C 
BRANCH  24   2
ATOM      2  O   UNL     1      21.759   4.097  22.669  0.00  0.00    -0.381 OA
ATOM     25  C   UNL     1      22.640   4.438  23.731  0.00  0.00    +0.194 C 
ENDBRANCH  24   2
ENDBRANCH  23  24
ENDBRANCH   7  23
ENDBRANCH  22   7
ENDBRANCH  17  18
BRANCH  14   8
ATOM      3  N   UNL     1      12.377   8.739  19.527  0.00  0.00    -0.291 NA
ATOM      8  C   UNL     1      12.901   9.224  20.820  0.00  0.00    +0.146 C 
ATOM      9  C   UNL     1      11.964   8.612  21.876  0.00  0.00    +0.030 C 
ATOM     10  C   UNL     1      10.944   8.516  19.721  0.00  0.00    +0.085 C 
ATOM     11  C   UNL     1      10.910   7.853  21.083  0.00  0.00    +0.017 C 
BRANCH   3  12
ATOM     12  C   UNL     1      12.645   9.648  18.420  0.00  0.00    +0.088 C 
BRANCH  12  13
ATOM     13  C   UNL     1      12.871   8.905  17.091  0.00  0.00    -0.003 C 
ATOM     15  C   UNL     1      13.267   9.904  16.001  0.00  0.00    +0.008 C 
ATOM     16  C   UNL     1      13.939   7.815  17.204  0.00  0.00    +0.008 C 
ENDBRANCH  12  13
ENDBRANCH   3  12
ENDBRANCH  14   8
TORSDOF 8
ENDMDL
MODEL 2
REMARK VINA RESULT:      -5.9      1.867      3.365
REMARK  Name = 45783481
REMARK  11 active torsions:
REMARK  status: ('A' for Active; 'I' for Inactive)
REMARK    1  A    between atoms: O_2  and  C_24
REMARK    2  A    between atoms: O_2  and  C_25
REMARK    3  A    between atoms: N_3  and  C_12
REMARK    4  A    between atoms: N_7  and  C_22
REMARK    5  A    between atoms: N_7  and  C_23
REMARK    6  A    between atoms: C_8  and  C_14
REMARK    7  A    between atoms: C_12  and  C_13
REMARK    8  A    between atoms: C_13  and  C_15
REMARK    9  A    between atoms: C_13  and  C_16
REMARK   10  A    between atoms: C_17  and  C_18
REMARK   11  A    between atoms: C_23  and  C_24
REMARK                            x       y       z     vdW  Elec       q    Type
REMARK                         _______ _______ _______ _____ _____    ______ ____
ROOT
ATOM      1  O   UNL     1      16.312   8.576  20.417  0.00  0.00    -0.336 OA
ATOM      4  N   UNL     1      16.657   6.369  20.261  0.00  0.00    -0.190 NA
ATOM      5  N   UNL     1      17.626   8.355  20.851  0.00  0.00    -0.056 NA
ATOM     14  C   UNL     1      15.813   7.356  20.089  0.00  0.00    +0.245 A 
ATOM     17  C   UNL     1      17.754   7.031  20.729  0.00  0.00    +0.204 A 
ENDROOT
BRANCH  17  18
ATOM      6  N   UNL     1      20.731   5.929  22.666  0.00  0.00    -0.240 NA
ATOM     18  C   UNL     1      18.964   6.339  21.068  0.00  0.00    +0.041 A 
ATOM     19  C   UNL     1      19.545   5.436  20.184  0.00  0.00    +0.016 A 
ATOM     20  C   UNL     1      19.591   6.547  22.285  0.00  0.00    +0.124 A 
ATOM     21  C   UNL     1      20.718   4.780  20.540  0.00  0.00    +0.044 A 
ATOM     22  C   UNL     1      21.266   5.059  21.781  0.00  0.00    +0.119 A 
BRANCH  22   7
ATOM      7  N   UNL     1      22.461   4.383  22.130  0.00  0.00    -0.327 N 
ATOM     26  H   UNL     1      22.968   4.744  22.930  0.00  0.00    +0.148 HD
BRANCH   7  23
ATOM     23  C   UNL     1      22.946   3.253  21.405  0.00  0.00    +0.131 C 
BRANCH  23  24
ATOM     24  C   UNL     1      24.430   3.061  21.674  0.00  0.00    +0.178 C 
BRANCH  24   2
ATOM      2  O   UNL     1      25.018   2.345  20.594  0.00  0.00    -0.381 OA
ATOM     25  C   UNL     1      25.050   3.128  19.408  0.00  0.00    +0.194 C 
ENDBRANCH  24   2
ENDBRANCH  23  24
ENDBRANCH   7  23
ENDBRANCH  22   7
ENDBRANCH  17  18
BRANCH  14   8
ATOM      3  N   UNL     1      13.521   8.308  20.263  0.00  0.00    -0.291 NA
ATOM      8  C   UNL     1      14.387   7.323  19.584  0.00  0.00    +0.146 C 
ATOM      9  C   UNL     1      14.278   7.673  18.089  0.00  0.00    +0.030 C 
ATOM     10  C   UNL     1      12.486   8.681  19.300  0.00  0.00    +0.085 C 
ATOM     11  C   UNL     1      13.284   8.823  18.020  0.00  0.00    +0.017 C 
BRANCH   3  12
ATOM     12  C   UNL     1      12.955   7.811  21.511  0.00  0.00    +0.088 C 
BRANCH  12  13
ATOM     13  C   UNL     1      11.466   7.446  21.376  0.00  0.00    -0.003 C 
ATOM     15  C   UNL     1      11.294   5.929  21.492  0.00  0.00    +0.008 C 
ATOM     16  C   UNL     1      10.593   8.144  22.420  0.00  0.00    +0.008 C 
ENDBRANCH  12  13
ENDBRANCH   3  12
ENDBRANCH  14   8
TORSDOF 8
ENDMDL
MODEL 3
REMARK VINA RESULT:      -5.8     29.474     32.784
REMARK  Name = 45783481
REMARK  11 active torsions:
REMARK  status: ('A' for Active; 'I' for Inactive)
REMARK    1  A    between atoms: O_2  and  C_24
REMARK    2  A    between atoms: O_2  and  C_25
REMARK    3  A    between atoms: N_3  and  C_12
REMARK    4  A    between atoms: N_7  and  C_22
REMARK    5  A    between atoms: N_7  and  C_23
REMARK    6  A    between atoms: C_8  and  C_14
REMARK    7  A    between atoms: C_12  and  C_13
REMARK    8  A    between atoms: C_13  and  C_15
REMARK    9  A    between atoms: C_13  and  C_16
REMARK   10  A    between atoms: C_17  and  C_18
REMARK   11  A    between atoms: C_23  and  C_24
REMARK                            x       y       z     vdW  Elec       q    Type
REMARK                         _______ _______ _______ _____ _____    ______ ____
ROOT
ATOM      1  O   UNL     1     -16.483   3.464  22.292  0.00  0.00    -0.336 OA
ATOM      4  N   UNL     1     -16.315   4.519  24.260  0.00  0.00    -0.190 NA
ATOM      5  N   UNL     1     -16.511   2.465  23.273  0.00  0.00    -0.056 NA
ATOM     14  C   UNL     1     -16.366   4.643  22.958  0.00  0.00    +0.245 A 
ATOM     17  C   UNL     1     -16.408   3.166  24.406  0.00  0.00    +0.204 A 
ENDROOT
BRANCH  17  18
ATOM      6  N   UNL     1     -16.738   0.566  27.044  0.00  0.00    -0.240 NA
ATOM     18  C   UNL     1     -16.392   2.545  25.699  0.00  0.00    +0.041 A 
ATOM     19  C   UNL     1     -16.034   3.262  26.835  0.00  0.00    +0.016 A 
ATOM     20  C   UNL     1     -16.732   1.211  25.856  0.00  0.00    +0.124 A 
ATOM     21  C   UNL     1     -16.028   2.634  28.075  0.00  0.00    +0.044 A 
ATOM     22  C   UNL     1     -16.384   1.296  28.125  0.00  0.00    +0.119 A 
BRANCH  22   7
ATOM      7  N   UNL     1     -16.373   0.669  29.395  0.00  0.00    -0.327 N 
ATOM     26  H   UNL     1     -17.245   0.678  29.912  0.00  0.00    +0.148 HD
BRANCH   7  23
ATOM     23  C   UNL     1     -15.206   0.053  29.940  0.00  0.00    +0.131 C 
BRANCH  23  24
ATOM     24  C   UNL     1     -14.654   0.899  31.076  0.00  0.00    +0.178 C 
BRANCH  24   2
ATOM      2  O   UNL     1     -13.527   1.633  30.614  0.00  0.00    -0.381 OA
ATOM     25  C   UNL     1     -13.640   3.014  30.931  0.00  0.00    +0.194 C 
ENDBRANCH  24   2
ENDBRANCH  23  24
ENDBRANCH   7  23
ENDBRANCH  22   7
ENDBRANCH  17  18
BRANCH  14   8
ATOM      3  N   UNL     1     -15.111   5.953  21.255  0.00  0.00    -0.291 NA
ATOM      8  C   UNL     1     -16.314   5.895  22.109  0.00  0.00    +0.146 C 
ATOM      9  C   UNL     1     -17.496   5.997  21.128  0.00  0.00    +0.030 C 
ATOM     10  C   UNL     1     -15.484   6.723  20.068  0.00  0.00    +0.085 C 
ATOM     11  C   UNL     1     -16.861   6.171  19.756  0.00  0.00    +0.017 C 
BRANCH   3  12
ATOM     12  C   UNL     1     -13.951   6.519  21.932  0.00  0.00    +0.088 C 
BRANCH  12  13
ATOM     13  C   UNL     1     -13.177   7.509  21.044  0.00  0.00    -0.003 C 
ATOM     15  C   UNL     1     -13.115   8.877  21.728  0.00  0.00    +0.008 C 
ATOM     16  C   UNL     1     -11.760   7.027  20.725  0.00  0.00    +0.008 C 
ENDBRANCH  12  13
ENDBRANCH   3  12
ENDBRANCH  14   8
TORSDOF 8
ENDMDL
MODEL 4
REMARK VINA RESULT:      -5.7     30.531     33.257
REMARK  Name = 45783481
REMARK  11 active torsions:
REMARK  status: ('A' for Active; 'I' for Inactive)
REMARK    1  A    between atoms: O_2  and  C_24
REMARK    2  A    between atoms: O_2  and  C_25
REMARK    3  A    between atoms: N_3  and  C_12
REMARK    4  A    between atoms: N_7  and  C_22
REMARK    5  A    between atoms: N_7  and  C_23
REMARK    6  A    between atoms: C_8  and  C_14
REMARK    7  A    between atoms: C_12  and  C_13
REMARK    8  A    between atoms: C_13  and  C_15
REMARK    9  A    between atoms: C_13  and  C_16
REMARK   10  A    between atoms: C_17  and  C_18
REMARK   11  A    between atoms: C_23  and  C_24
REMARK                            x       y       z     vdW  Elec       q    Type
REMARK                         _______ _______ _______ _____ _____    ______ ____
ROOT
ATOM      1  O   UNL     1     -17.084   2.442  22.565  0.00  0.00    -0.336 OA
ATOM      4  N   UNL     1     -17.008   3.961  24.210  0.00  0.00    -0.190 NA
ATOM      5  N   UNL     1     -16.866   1.725  23.749  0.00  0.00    -0.056 NA
ATOM     14  C   UNL     1     -17.154   3.750  22.926  0.00  0.00    +0.245 A 
ATOM     17  C   UNL     1     -16.834   2.690  24.673  0.00  0.00    +0.204 A 
ENDROOT
BRANCH  17  18
ATOM      6  N   UNL     1     -15.945   3.206  28.247  0.00  0.00    -0.240 NA
ATOM     18  C   UNL     1     -16.628   2.417  26.066  0.00  0.00    +0.041 A 
ATOM     19  C   UNL     1     -16.892   1.159  26.597  0.00  0.00    +0.016 A 
ATOM     20  C   UNL     1     -16.161   3.397  26.926  0.00  0.00    +0.124 A 
ATOM     21  C   UNL     1     -16.683   0.923  27.950  0.00  0.00    +0.044 A 
ATOM     22  C   UNL     1     -16.213   1.971  28.726  0.00  0.00    +0.119 A 
BRANCH  22   7
ATOM      7  N   UNL     1     -16.005   1.716  30.104  0.00  0.00    -0.327 N 
ATOM     26  H   UNL     1     -16.743   1.217  30.588  0.00  0.00    +0.148 HD
BRANCH   7  23
ATOM     23  C   UNL     1     -14.828   2.132  30.795  0.00  0.00    +0.131 C 
BRANCH  23  24
ATOM     24  C   UNL     1     -13.697   1.151  30.533  0.00  0.00    +0.178 C 
BRANCH  24   2
ATOM      2  O   UNL     1     -14.233  -0.155  30.360  0.00  0.00    -0.381 OA
ATOM     25  C   UNL     1     -13.471  -0.911  29.430  0.00  0.00    +0.194 C 
ENDBRANCH  24   2
ENDBRANCH  23  24
ENDBRANCH   7  23
ENDBRANCH  22   7
ENDBRANCH  17  18
BRANCH  14   8
ATOM      3  N   UNL     1     -16.199   4.931  20.955  0.00  0.00    -0.291 NA
ATOM      8  C   UNL     1     -17.389   4.746  21.810  0.00  0.00    +0.146 C 
ATOM      9  C   UNL     1     -18.501   4.303  20.842  0.00  0.00    +0.030 C 
ATOM     10  C   UNL     1     -16.698   5.285  19.626  0.00  0.00    +0.085 C 
ATOM     11  C   UNL     1     -17.861   4.328  19.462  0.00  0.00    +0.017 C 
BRANCH   3  12
ATOM     12  C   UNL     1     -15.268   5.925  21.473  0.00  0.00    +0.088 C 
BRANCH  12  13
ATOM     13  C   UNL     1     -13.892   5.322  21.808  0.00  0.00    -0.003 C 
ATOM     15  C   UNL     1     -12.786   6.294  21.387  0.00  0.00    +0.008 C 
ATOM     16  C   UNL     1     -13.744   4.986  23.293  0.00  0.00    +0.008 C 
ENDBRANCH  12  13
ENDBRANCH   3  12
ENDBRANCH  14   8
TORSDOF 8
ENDMDL
MODEL 5
REMARK VINA RESULT:      -5.5      2.209      3.616
REMARK  Name = 45783481
REMARK  11 active torsions:
REMARK  status: ('A' for Active; 'I' for Inactive)
REMARK    1  A    between atoms: O_2  and  C_24
REMARK    2  A    between atoms: O_2  and  C_25
REMARK    3  A    between atoms: N_3  and  C_12
REMARK    4  A    between atoms: N_7  and  C_22
REMARK    5  A    between atoms: N_7  and  C_23
REMARK    6  A    between atoms: C_8  and  C_14
REMARK    7  A    between atoms: C_12  and  C_13
REMARK    8  A    between atoms: C_13  and  C_15
REMARK    9  A    between atoms: C_13  and  C_16
REMARK   10  A    between atoms: C_17  and  C_18
REMARK   11  A    between atoms: C_23  and  C_24
REMARK                            x       y       z     vdW  Elec       q    Type
REMARK                         _______ _______ _______ _____ _____    ______ ____
ROOT
ATOM      1  O   UNL     1      15.804   6.015  18.318  0.00  0.00    -0.336 OA
ATOM      4  N   UNL     1      16.301   7.033  20.250  0.00  0.00    -0.190 NA
ATOM      5  N   UNL     1      17.097   5.596  18.658  0.00  0.00    -0.056 NA
ATOM     14  C   UNL     1      15.410   6.858  19.308  0.00  0.00    +0.245 A 
ATOM     17  C   UNL     1      17.319   6.239  19.808  0.00  0.00    +0.204 A 
ENDROOT
BRANCH  17  18
ATOM      6  N   UNL     1      20.705   5.048  20.781  0.00  0.00    -0.240 NA
ATOM     18  C   UNL     1      18.547   6.110  20.539  0.00  0.00    +0.041 A 
ATOM     19  C   UNL     1      18.790   6.878  21.672  0.00  0.00    +0.016 A 
ATOM     20  C   UNL     1      19.528   5.218  20.138  0.00  0.00    +0.124 A 
ATOM     21  C   UNL     1      19.989   6.732  22.360  0.00  0.00    +0.044 A 
ATOM     22  C   UNL     1      20.906   5.812  21.878  0.00  0.00    +0.119 A 
BRANCH  22   7
ATOM      7  N   UNL     1      22.123   5.674  22.589  0.00  0.00    -0.327 N 
ATOM     26  H   UNL     1      22.149   6.071  23.521  0.00  0.00    +0.148 HD
BRANCH   7  23
ATOM     23  C   UNL     1      23.266   5.019  22.040  0.00  0.00    +0.131 C 
BRANCH  23  24
ATOM     24  C   UNL     1      24.177   6.036  21.372  0.00  0.00    +0.178 C 
BRANCH  24   2
ATOM      2  O   UNL     1      25.530   5.621  21.508  0.00  0.00    -0.381 OA
ATOM     25  C   UNL     1      26.081   6.041  22.749  0.00  0.00    +0.194 C 
ENDBRANCH  24   2
ENDBRANCH  23  24
ENDBRANCH   7  23
ENDBRANCH  22   7
ENDBRANCH  17  18
BRANCH  14   8
ATOM      3  N   UNL     1      13.724   8.434  20.238  0.00  0.00    -0.291 NA
ATOM      8  C   UNL     1      14.025   7.455  19.174  0.00  0.00    +0.146 C 
ATOM      9  C   UNL     1      13.839   8.237  17.860  0.00  0.00    +0.030 C 
ATOM     10  C   UNL     1      12.784   9.396  19.660  0.00  0.00    +0.085 C 
ATOM     11  C   UNL     1      13.374   9.623  18.283  0.00  0.00    +0.017 C 
BRANCH   3  12
ATOM     12  C   UNL     1      13.202   7.820  21.452  0.00  0.00    +0.088 C 
BRANCH  12  13
ATOM     13  C   UNL     1      11.678   7.607  21.394  0.00  0.00    -0.003 C 
ATOM     15  C   UNL     1      11.364   6.110  21.448  0.00  0.00    +0.008 C 
ATOM     16  C   UNL     1      10.942   8.329  22.525  0.00  0.00    +0.008 C 
ENDBRANCH  12  13
ENDBRANCH   3  12
ENDBRANCH  14   8
TORSDOF 8
ENDMDL
MODEL 6
REMARK VINA RESULT:      -5.5      5.856      8.162
REMARK  Name = 45783481
REMARK  11 active torsions:
REMARK  status: ('A' for Active; 'I' for Inactive)
REMARK    1  A    between atoms: O_2  and  C_24
REMARK    2  A    between atoms: O_2  and  C_25
REMARK    3  A    between atoms: N_3  and  C_12
REMARK    4  A    between atoms: N_7  and  C_22
REMARK    5  A    between atoms: N_7  and  C_23
REMARK    6  A    between atoms: C_8  and  C_14
REMARK    7  A    between atoms: C_12  and  C_13
REMARK    8  A    between atoms: C_13  and  C_15
REMARK    9  A    between atoms: C_13  and  C_16
REMARK   10  A    between atoms: C_17  and  C_18
REMARK   11  A    between atoms: C_23  and  C_24
REMARK                            x       y       z     vdW  Elec       q    Type
REMARK                         _______ _______ _______ _____ _____    ______ ____
ROOT
ATOM      1  O   UNL     1      11.881   7.722  18.647  0.00  0.00    -0.336 OA
ATOM      4  N   UNL     1      13.566   9.156  18.991  0.00  0.00    -0.190 NA
ATOM      5  N   UNL     1      12.324   8.115  17.377  0.00  0.00    -0.056 NA
ATOM     14  C   UNL     1      12.664   8.381  19.540  0.00  0.00    +0.245 A 
ATOM     17  C   UNL     1      13.318   8.960  17.664  0.00  0.00    +0.204 A 
ENDROOT
BRANCH  17  18
ATOM      6  N   UNL     1      15.100   9.565  14.456  0.00  0.00    -0.240 NA
ATOM     18  C   UNL     1      14.082   9.625  16.648  0.00  0.00    +0.041 A 
ATOM     19  C   UNL     1      14.541  10.924  16.833  0.00  0.00    +0.016 A 
ATOM     20  C   UNL     1      14.385   8.995  15.453  0.00  0.00    +0.124 A 
ATOM     21  C   UNL     1      15.280  11.544  15.831  0.00  0.00    +0.044 A 
ATOM     22  C   UNL     1      15.529  10.828  14.672  0.00  0.00    +0.119 A 
BRANCH  22   7
ATOM      7  N   UNL     1      16.282  11.472  13.660  0.00  0.00    -0.327 N 
ATOM     26  H   UNL     1      17.235  11.724  13.896  0.00  0.00    +0.148 HD
BRANCH   7  23
ATOM     23  C   UNL     1      15.746  11.766  12.370  0.00  0.00    +0.131 C 
BRANCH  23  24
ATOM     24  C   UNL     1      14.449  12.546  12.512  0.00  0.00    +0.178 C 
BRANCH  24   2
ATOM      2  O   UNL     1      13.507  12.077  11.555  0.00  0.00    -0.381 OA
ATOM     25  C   UNL     1      13.441  12.936  10.425  0.00  0.00    +0.194 C 
ENDBRANCH  24   2
ENDBRANCH  23  24
ENDBRANCH   7  23
ENDBRANCH  22   7
ENDBRANCH  17  18
BRANCH  14   8
ATOM      3  N   UNL     1      11.508   9.150  21.604  0.00  0.00    -0.291 NA
ATOM      8  C   UNL     1      12.383   8.122  21.004  0.00  0.00    +0.146 C 
ATOM      9  C   UNL     1      11.645   6.793  21.242  0.00  0.00    +0.030 C 
ATOM     10  C   UNL     1      10.768   8.486  22.678  0.00  0.00    +0.085 C 
ATOM     11  C   UNL     1      10.400   7.165  22.035  0.00  0.00    +0.017 C 
BRANCH   3  12
ATOM     12  C   UNL     1      12.237  10.318  22.082  0.00  0.00    +0.088 C 
BRANCH  12  13
ATOM     13  C   UNL     1      11.456  11.627  21.866  0.00  0.00    -0.003 C 
ATOM     15  C   UNL     1      11.221  12.316  23.212  0.00  0.00    +0.008 C 
ATOM     16  C   UNL     1      12.173  12.587  20.913  0.00  0.00    +0.008 C 
ENDBRANCH  12  13
ENDBRANCH   3  12
ENDBRANCH  14   8
TORSDOF 8
ENDMDL
MODEL 7
REMARK VINA RESULT:      -5.4     27.611     30.069
REMARK  Name = 45783481
REMARK  11 active torsions:
REMARK  status: ('A' for Active; 'I' for Inactive)
REMARK    1  A    between atoms: O_2  and  C_24
REMARK    2  A    between atoms: O_2  and  C_25
REMARK    3  A    between atoms: N_3  and  C_12
REMARK    4  A    between atoms: N_7  and  C_22
REMARK    5  A    between atoms: N_7  and  C_23
REMARK    6  A    between atoms: C_8  and  C_14
REMARK    7  A    between atoms: C_12  and  C_13
REMARK    8  A    between atoms: C_13  and  C_15
REMARK    9  A    between atoms: C_13  and  C_16
REMARK   10  A    between atoms: C_17  and  C_18
REMARK   11  A    between atoms: C_23  and  C_24
REMARK                            x       y       z     vdW  Elec       q    Type
REMARK                         _______ _______ _______ _____ _____    ______ ____
ROOT
ATOM      1  O   UNL     1     -12.976   8.540  18.488  0.00  0.00    -0.336 OA
ATOM      4  N   UNL     1     -11.690   7.624  20.077  0.00  0.00    -0.190 NA
ATOM      5  N   UNL     1     -13.840   7.815  19.319  0.00  0.00    -0.056 NA
ATOM     14  C   UNL     1     -11.730   8.375  19.004  0.00  0.00    +0.245 A 
ATOM     17  C   UNL     1     -13.007   7.305  20.231  0.00  0.00    +0.204 A 
ENDROOT
BRANCH  17  18
ATOM      6  N   UNL     1     -15.240   5.818  22.807  0.00  0.00    -0.240 NA
ATOM     18  C   UNL     1     -13.459   6.471  21.308  0.00  0.00    +0.041 A 
ATOM     19  C   UNL     1     -12.615   5.534  21.892  0.00  0.00    +0.016 A 
ATOM     20  C   UNL     1     -14.751   6.572  21.797  0.00  0.00    +0.124 A 
ATOM     21  C   UNL     1     -13.080   4.740  22.934  0.00  0.00    +0.044 A 
ATOM     22  C   UNL     1     -14.389   4.919  23.350  0.00  0.00    +0.119 A 
BRANCH  22   7
ATOM      7  N   UNL     1     -14.850   4.102  24.412  0.00  0.00    -0.327 N 
ATOM     26  H   UNL     1     -14.351   4.180  25.292  0.00  0.00    +0.148 HD
BRANCH   7  23
ATOM     23  C   UNL     1     -15.952   3.206  24.272  0.00  0.00    +0.131 C 
BRANCH  23  24
ATOM     24  C   UNL     1     -16.825   3.258  25.516  0.00  0.00    +0.178 C 
BRANCH  24   2
ATOM      2  O   UNL     1     -16.204   2.519  26.560  0.00  0.00    -0.381 OA
ATOM     25  C   UNL     1     -16.815   1.247  26.732  0.00  0.00    +0.194 C 
ENDBRANCH  24   2
ENDBRANCH  23  24
ENDBRANCH   7  23
ENDBRANCH  22   7
ENDBRANCH  17  18
BRANCH  14   8
ATOM      3  N   UNL     1     -10.894   9.285  16.845  0.00  0.00    -0.291 NA
ATOM      8  C   UNL     1     -10.600   9.071  18.277  0.00  0.00    +0.146 C 
ATOM      9  C   UNL     1     -10.313  10.477  18.832  0.00  0.00    +0.030 C 
ATOM     10  C   UNL     1     -10.162  10.489  16.450  0.00  0.00    +0.085 C 
ATOM     11  C   UNL     1     -10.407  11.407  17.630  0.00  0.00    +0.017 C 
BRANCH   3  12
ATOM     12  C   UNL     1     -10.554   8.139  16.011  0.00  0.00    +0.088 C 
BRANCH  12  13
ATOM     13  C   UNL     1     -10.981   8.333  14.545  0.00  0.00    -0.003 C 
ATOM     15  C   UNL     1     -10.286   7.293  13.663  0.00  0.00    +0.008 C 
ATOM     16  C   UNL     1     -12.497   8.238  14.357  0.00  0.00    +0.008 C 
ENDBRANCH  12  13
ENDBRANCH   3  12
ENDBRANCH  14   8
TORSDOF 8
ENDMDL
MODEL 8
REMARK VINA RESULT:      -5.4     27.439     29.821
REMARK  Name = 45783481
REMARK  11 active torsions:
REMARK  status: ('A' for Active; 'I' for Inactive)
REMARK    1  A    between atoms: O_2  and  C_24
REMARK    2  A    between atoms: O_2  and  C_25
REMARK    3  A    between atoms: N_3  and  C_12
REMARK    4  A    between atoms: N_7  and  C_22
REMARK    5  A    between atoms: N_7  and  C_23
REMARK    6  A    between atoms: C_8  and  C_14
REMARK    7  A    between atoms: C_12  and  C_13
REMARK    8  A    between atoms: C_13  and  C_15
REMARK    9  A    between atoms: C_13  and  C_16
REMARK   10  A    between atoms: C_17  and  C_18
REMARK   11  A    between atoms: C_23  and  C_24
REMARK                            x       y       z     vdW  Elec       q    Type
REMARK                         _______ _______ _______ _____ _____    ______ ____
ROOT
ATOM      1  O   UNL     1     -11.189  10.509  19.639  0.00  0.00    -0.336 OA
ATOM      4  N   UNL     1     -11.456   8.466  18.761  0.00  0.00    -0.190 NA
ATOM      5  N   UNL     1     -11.896   9.764  20.592  0.00  0.00    -0.056 NA
ATOM     14  C   UNL     1     -10.971   9.670  18.592  0.00  0.00    +0.245 A 
ATOM     17  C   UNL     1     -12.014   8.571  20.001  0.00  0.00    +0.204 A 
ENDROOT
BRANCH  17  18
ATOM      6  N   UNL     1     -14.760   6.353  21.171  0.00  0.00    -0.240 NA
ATOM     18  C   UNL     1     -12.685   7.466  20.622  0.00  0.00    +0.041 A 
ATOM     19  C   UNL     1     -11.969   6.460  21.260  0.00  0.00    +0.016 A 
ATOM     20  C   UNL     1     -14.067   7.367  20.606  0.00  0.00    +0.124 A 
ATOM     21  C   UNL     1     -12.646   5.401  21.854  0.00  0.00    +0.044 A 
ATOM     22  C   UNL     1     -14.030   5.394  21.782  0.00  0.00    +0.119 A 
BRANCH  22   7
ATOM      7  N   UNL     1     -14.706   4.308  22.391  0.00  0.00    -0.327 N 
ATOM     26  H   UNL     1     -14.676   3.423  21.898  0.00  0.00    +0.148 HD
BRANCH   7  23
ATOM     23  C   UNL     1     -15.402   4.432  23.631  0.00  0.00    +0.131 C 
BRANCH  23  24
ATOM     24  C   UNL     1     -16.158   3.149  23.932  0.00  0.00    +0.178 C 
BRANCH  24   2
ATOM      2  O   UNL     1     -16.498   2.502  22.712  0.00  0.00    -0.381 OA
ATOM     25  C   UNL     1     -17.798   1.932  22.769  0.00  0.00    +0.194 C 
ENDBRANCH  24   2
ENDBRANCH  23  24
ENDBRANCH   7  23
ENDBRANCH  22   7
ENDBRANCH  17  18
BRANCH  14   8
ATOM      3  N   UNL     1     -10.975  10.158  16.153  0.00  0.00    -0.291 NA
ATOM      8  C   UNL     1     -10.212  10.244  17.415  0.00  0.00    +0.146 C 
ATOM      9  C   UNL     1      -9.900  11.742  17.581  0.00  0.00    +0.030 C 
ATOM     10  C   UNL     1     -10.534  11.282  15.327  0.00  0.00    +0.085 C 
ATOM     11  C   UNL     1     -10.470  12.409  16.338  0.00  0.00    +0.017 C 
BRANCH   3  12
ATOM     12  C   UNL     1     -10.815   8.881  15.469  0.00  0.00    +0.088 C 
BRANCH  12  13
ATOM     13  C   UNL     1     -12.147   8.336  14.923  0.00  0.00    -0.003 C 
ATOM     15  C   UNL     1     -13.313   8.937  15.712  0.00  0.00    +0.008 C 
ATOM     16  C   UNL     1     -12.331   8.625  13.431  0.00  0.00    +0.008 C 
ENDBRANCH  12  13
ENDBRANCH   3  12
ENDBRANCH  14   8
TORSDOF 8
ENDMDL
MODEL 9
REMARK VINA RESULT:      -5.3      2.485     10.001
REMARK  Name = 45783481
REMARK  11 active torsions:
REMARK  status: ('A' for Active; 'I' for Inactive)
REMARK    1  A    between atoms: O_2  and  C_24
REMARK    2  A    between atoms: O_2  and  C_25
REMARK    3  A    between atoms: N_3  and  C_12
REMARK    4  A    between atoms: N_7  and  C_22
REMARK    5  A    between atoms: N_7  and  C_23
REMARK    6  A    between atoms: C_8  and  C_14
REMARK    7  A    between atoms: C_12  and  C_13
REMARK    8  A    between atoms: C_13  and  C_15
REMARK    9  A    between atoms: C_13  and  C_16
REMARK   10  A    between atoms: C_17  and  C_18
REMARK   11  A    between atoms: C_23  and  C_24
REMARK                            x       y       z     vdW  Elec       q    Type
REMARK                         _______ _______ _______ _____ _____    ______ ____
ROOT
ATOM      1  O   UNL     1      22.832   6.452  22.108  0.00  0.00    -0.336 OA
ATOM      4  N   UNL     1      21.717   5.274  20.563  0.00  0.00    -0.190 NA
ATOM      5  N   UNL     1      21.546   7.003  22.051  0.00  0.00    -0.056 NA
ATOM     14  C   UNL     1      22.849   5.440  21.201  0.00  0.00    +0.245 A 
ATOM     17  C   UNL     1      20.949   6.255  21.118  0.00  0.00    +0.204 A 
ENDROOT
BRANCH  17  18
ATOM      6  N   UNL     1      17.574   7.796  20.854  0.00  0.00    -0.240 NA
ATOM     18  C   UNL     1      19.587   6.463  20.717  0.00  0.00    +0.041 A 
ATOM     19  C   UNL     1      18.956   5.589  19.840  0.00  0.00    +0.016 A 
ATOM     20  C   UNL     1      18.859   7.543  21.191  0.00  0.00    +0.124 A 
ATOM     21  C   UNL     1      17.636   5.816  19.469  0.00  0.00    +0.044 A 
ATOM     22  C   UNL     1      16.995   6.924  20.000  0.00  0.00    +0.119 A 
BRANCH  22   7
ATOM      7  N   UNL     1      15.650   7.143  19.612  0.00  0.00    -0.327 N 
ATOM     26  H   UNL     1      15.506   7.664  18.755  0.00  0.00    +0.148 HD
BRANCH   7  23
ATOM     23  C   UNL     1      14.542   6.668  20.375  0.00  0.00    +0.131 C 
BRANCH  23  24
ATOM     24  C   UNL     1      13.239   7.110  19.730  0.00  0.00    +0.178 C 
BRANCH  24   2
ATOM      2  O   UNL     1      13.447   7.320  18.339  0.00  0.00    -0.381 OA
ATOM     25  C   UNL     1      12.350   8.000  17.745  0.00  0.00    +0.194 C 
ENDBRANCH  24   2
ENDBRANCH  23  24
ENDBRANCH   7  23
ENDBRANCH  22   7
ENDBRANCH  17  18
BRANCH  14   8
ATOM      3  N   UNL     1      24.027   3.505  20.172  0.00  0.00    -0.291 NA
ATOM      8  C   UNL     1      24.147   4.673  21.069  0.00  0.00    +0.146 C 
ATOM      9  C   UNL     1      25.278   5.519  20.459  0.00  0.00    +0.030 C 
ATOM     10  C   UNL     1      25.350   3.300  19.582  0.00  0.00    +0.085 C 
ATOM     11  C   UNL     1      25.774   4.720  19.262  0.00  0.00    +0.017 C 
BRANCH   3  12
ATOM     12  C   UNL     1      23.538   2.309  20.848  0.00  0.00    +0.088 C 
BRANCH  12  13
ATOM     13  C   UNL     1      24.407   1.921  22.057  0.00  0.00    -0.003 C 
ATOM     15  C   UNL     1      23.550   1.907  23.326  0.00  0.00    +0.008 C 
ATOM     16  C   UNL     1      25.087   0.562  21.879  0.00  0.00    +0.008 C 
ENDBRANCH  12  13
ENDBRANCH   3  12
ENDBRANCH  14   8
TORSDOF 8
ENDMDL
MODEL 10
REMARK VINA RESULT:      -5.3     27.247     31.243
REMARK  Name = 45783481
REMARK  11 active torsions:
REMARK  status: ('A' for Active; 'I' for Inactive)
REMARK    1  A    between atoms: O_2  and  C_24
REMARK    2  A    between atoms: O_2  and  C_25
REMARK    3  A    between atoms: N_3  and  C_12
REMARK    4  A    between atoms: N_7  and  C_22
REMARK    5  A    between atoms: N_7  and  C_23
REMARK    6  A    between atoms: C_8  and  C_14
REMARK    7  A    between atoms: C_12  and  C_13
REMARK    8  A    between atoms: C_13  and  C_15
REMARK    9  A    between atoms: C_13  and  C_16
REMARK   10  A    between atoms: C_17  and  C_18
REMARK   11  A    between atoms: C_23  and  C_24
REMARK                            x       y       z     vdW  Elec       q    Type
REMARK                         _______ _______ _______ _____ _____    ______ ____
ROOT
ATOM      1  O   UNL     1      -8.285 -10.590  18.342  0.00  0.00    -0.336 OA
ATOM      4  N   UNL     1      -8.064  -9.740  16.282  0.00  0.00    -0.190 NA
ATOM      5  N   UNL     1      -9.365  -9.716  18.162  0.00  0.00    -0.056 NA
ATOM     14  C   UNL     1      -7.569 -10.545  17.188  0.00  0.00    +0.245 A 
ATOM     17  C   UNL     1      -9.165  -9.255  16.924  0.00  0.00    +0.204 A 
ENDROOT
BRANCH  17  18
ATOM      6  N   UNL     1     -11.287  -7.617  14.346  0.00  0.00    -0.240 NA
ATOM     18  C   UNL     1     -10.044  -8.308  16.302  0.00  0.00    +0.041 A 
ATOM     19  C   UNL     1     -10.508  -7.196  16.996  0.00  0.00    +0.016 A 
ATOM     20  C   UNL     1     -10.460  -8.471  14.991  0.00  0.00    +0.124 A 
ATOM     21  C   UNL     1     -11.359  -6.295  16.368  0.00  0.00    +0.044 A 
ATOM     22  C   UNL     1     -11.716  -6.549  15.053  0.00  0.00    +0.119 A 
BRANCH  22   7
ATOM      7  N   UNL     1     -12.584  -5.622  14.426  0.00  0.00    -0.327 N 
ATOM     26  H   UNL     1     -13.147  -5.044  15.039  0.00  0.00    +0.148 HD
BRANCH   7  23
ATOM     23  C   UNL     1     -12.681  -5.495  13.008  0.00  0.00    +0.131 C 
BRANCH  23  24
ATOM     24  C   UNL     1     -12.362  -4.069  12.591  0.00  0.00    +0.178 C 
BRANCH  24   2
ATOM      2  O   UNL     1     -13.393  -3.201  13.046  0.00  0.00    -0.381 OA
ATOM     25  C   UNL     1     -14.629  -3.479  12.402  0.00  0.00    +0.194 C 
ENDBRANCH  24   2
ENDBRANCH  23  24
ENDBRANCH   7  23
ENDBRANCH  22   7
ENDBRANCH  17  18
BRANCH  14   8
ATOM      3  N   UNL     1      -5.112 -10.699  17.550  0.00  0.00    -0.291 NA
ATOM      8  C   UNL     1      -6.332 -11.416  17.127  0.00  0.00    +0.146 C 
ATOM      9  C   UNL     1      -6.416 -12.633  18.065  0.00  0.00    +0.030 C 
ATOM     10  C   UNL     1      -4.216 -11.709  18.115  0.00  0.00    +0.085 C 
ATOM     11  C   UNL     1      -5.171 -12.552  18.936  0.00  0.00    +0.017 C 
BRANCH   3  12
ATOM     12  C   UNL     1      -4.481  -9.950  16.471  0.00  0.00    +0.088 C 
BRANCH  12  13
ATOM     13  C   UNL     1      -3.546 -10.825  15.617  0.00  0.00    -0.003 C 
ATOM     15  C   UNL     1      -3.990 -10.779  14.152  0.00  0.00    +0.008 C 
ATOM     16  C   UNL     1      -2.081 -10.397  15.725  0.00  0.00    +0.008 C 
ENDBRANCH  12  13
ENDBRANCH   3  12
ENDBRANCH  14   8
TORSDOF 8
ENDMDL
