MODEL 1
REMARK VINA RESULT:      -7.4      0.000      0.000
REMARK  Name = 7051759
REMARK  2 active torsions:
REMARK  status: ('A' for Active; 'I' for Inactive)
REMARK    1  A    between atoms: C_14  and  C_19
REMARK    2  A    between atoms: C_16  and  C_20
REMARK                            x       y       z     vdW  Elec       q    Type
REMARK                         _______ _______ _______ _____ _____    ______ ____
ROOT
ATOM      2  O   UNL     1      10.993   8.879  17.135  0.00  0.00    -0.268 OA
ATOM      3  O   UNL     1      11.551  11.843  21.216  0.00  0.00    -0.269 OA
ATOM      4  N   UNL     1      12.430   9.755  21.795  0.00  0.00    -0.296 N 
ATOM      5  N   UNL     1      12.140   8.201  19.062  0.00  0.00    -0.311 N 
ATOM      7  C   UNL     1      10.924   7.848  21.293  0.00  0.00    +0.027 C 
ATOM      8  C   UNL     1      13.360   7.540  21.158  0.00  0.00    +0.054 C 
ATOM      9  C   UNL     1      12.054   6.874  21.588  0.00  0.00    +0.018 C 
ATOM     10  C   UNL     1      11.123   9.161  22.069  0.00  0.00    +0.113 C 
ATOM     11  C   UNL     1      10.864   8.079  19.782  0.00  0.00    +0.130 C 
ATOM     12  C   UNL     1      13.568   8.840  21.964  0.00  0.00    +0.117 C 
ATOM     13  C   UNL     1      13.368   7.849  19.659  0.00  0.00    +0.034 A 
ATOM     14  C   UNL     1      14.502   7.827  18.912  0.00  0.00    +0.004 A 
ATOM     15  C   UNL     1      12.040   8.575  17.710  0.00  0.00    +0.252 A 
ATOM     16  C   UNL     1      12.506  11.079  21.357  0.00  0.00    +0.253 C 
ATOM     17  C   UNL     1      14.437   8.211  17.514  0.00  0.00    +0.015 A 
ATOM     18  C   UNL     1      13.299   8.581  16.930  0.00  0.00    +0.071 A 
ENDROOT
BRANCH  14  19
ATOM      6  N   UNL     1      17.691   8.012  20.880  0.00  0.00    -0.263 NA
ATOM     19  C   UNL     1      15.808   7.440  19.489  0.00  0.00    +0.002 A 
ATOM     21  C   UNL     1      16.368   6.203  19.209  0.00  0.00    +0.011 A 
ATOM     22  C   UNL     1      16.495   8.302  20.320  0.00  0.00    +0.119 A 
ATOM     24  C   UNL     1      17.597   5.868  19.767  0.00  0.00    +0.020 A 
ATOM     27  C   UNL     1      18.212   6.799  20.588  0.00  0.00    +0.111 A 
ENDBRANCH  14  19
BRANCH  16  20
ATOM      1  S   UNL     1      14.678  12.530  22.182  0.00  0.00    -0.092 S 
ATOM     20  C   UNL     1      13.825  11.623  21.011  0.00  0.00    +0.074 A 
ATOM     23  C   UNL     1      14.517  11.509  19.831  0.00  0.00    +0.021 A 
ATOM     25  C   UNL     1      15.773  12.178  19.886  0.00  0.00    +0.008 A 
ATOM     26  C   UNL     1      15.987  12.776  21.108  0.00  0.00    +0.046 A 
ENDBRANCH  16  20
TORSDOF 2
ENDMDL
MODEL 2
REMARK VINA RESULT:      -7.0      2.147      3.836
REMARK  Name = 7051759
REMARK  2 active torsions:
REMARK  status: ('A' for Active; 'I' for Inactive)
REMARK    1  A    between atoms: C_14  and  C_19
REMARK    2  A    between atoms: C_16  and  C_20
REMARK                            x       y       z     vdW  Elec       q    Type
REMARK                         _______ _______ _______ _____ _____    ______ ____
ROOT
ATOM      2  O   UNL     1      13.287  10.330  15.899  0.00  0.00    -0.268 OA
ATOM      3  O   UNL     1      10.560   8.451  19.744  0.00  0.00    -0.269 OA
ATOM      4  N   UNL     1      12.801   8.033  20.262  0.00  0.00    -0.296 N 
ATOM      5  N   UNL     1      14.253   9.456  17.845  0.00  0.00    -0.311 N 
ATOM      7  C   UNL     1      14.082   6.963  18.426  0.00  0.00    +0.027 C 
ATOM      8  C   UNL     1      15.223   8.509  19.962  0.00  0.00    +0.054 C 
ATOM      9  C   UNL     1      15.377   7.200  19.187  0.00  0.00    +0.018 C 
ATOM     10  C   UNL     1      12.894   6.859  19.397  0.00  0.00    +0.113 C 
ATOM     11  C   UNL     1      13.899   8.096  17.414  0.00  0.00    +0.130 C 
ATOM     12  C   UNL     1      14.049   8.384  20.957  0.00  0.00    +0.117 C 
ATOM     13  C   UNL     1      14.989   9.695  19.024  0.00  0.00    +0.034 A 
ATOM     14  C   UNL     1      15.430  10.949  19.304  0.00  0.00    +0.004 A 
ATOM     15  C   UNL     1      13.916  10.483  16.947  0.00  0.00    +0.252 A 
ATOM     16  C   UNL     1      11.602   8.747  20.327  0.00  0.00    +0.253 C 
ATOM     17  C   UNL     1      15.097  12.034  18.402  0.00  0.00    +0.015 A 
ATOM     18  C   UNL     1      14.375  11.847  17.298  0.00  0.00    +0.071 A 
ENDROOT
BRANCH  14  19
ATOM      6  N   UNL     1      16.280  11.958  22.817  0.00  0.00    -0.263 NA
ATOM     19  C   UNL     1      16.226  11.241  20.517  0.00  0.00    +0.002 A 
ATOM     21  C   UNL     1      17.604  11.088  20.513  0.00  0.00    +0.011 A 
ATOM     22  C   UNL     1      15.613  11.674  21.676  0.00  0.00    +0.119 A 
ATOM     24  C   UNL     1      18.325  11.371  21.668  0.00  0.00    +0.020 A 
ATOM     27  C   UNL     1      17.623  11.799  22.783  0.00  0.00    +0.111 A 
ENDBRANCH  14  19
BRANCH  16  20
ATOM      1  S   UNL     1      10.893   9.896  22.710  0.00  0.00    -0.092 S 
ATOM     20  C   UNL     1      11.564   9.968  21.140  0.00  0.00    +0.074 A 
ATOM     23  C   UNL     1      12.007  11.228  20.817  0.00  0.00    +0.021 A 
ATOM     25  C   UNL     1      11.794  12.153  21.879  0.00  0.00    +0.008 A 
ATOM     26  C   UNL     1      11.195  11.561  22.969  0.00  0.00    +0.046 A 
ENDBRANCH  16  20
TORSDOF 2
ENDMDL
MODEL 3
REMARK VINA RESULT:      -7.0      2.118      3.925
REMARK  Name = 7051759
REMARK  2 active torsions:
REMARK  status: ('A' for Active; 'I' for Inactive)
REMARK    1  A    between atoms: C_14  and  C_19
REMARK    2  A    between atoms: C_16  and  C_20
REMARK                            x       y       z     vdW  Elec       q    Type
REMARK                         _______ _______ _______ _____ _____    ______ ____
ROOT
ATOM      2  O   UNL     1      11.144   9.327  22.503  0.00  0.00    -0.268 OA
ATOM      3  O   UNL     1      12.913  12.517  18.975  0.00  0.00    -0.269 OA
ATOM      4  N   UNL     1      14.787  11.579  20.013  0.00  0.00    -0.296 N 
ATOM      5  N   UNL     1      13.419   9.527  21.986  0.00  0.00    -0.311 N 
ATOM      7  C   UNL     1      14.727  11.676  22.492  0.00  0.00    +0.027 C 
ATOM      8  C   UNL     1      15.844   9.789  21.377  0.00  0.00    +0.054 C 
ATOM      9  C   UNL     1      15.933  10.753  22.560  0.00  0.00    +0.018 C 
ATOM     10  C   UNL     1      14.723  12.467  21.172  0.00  0.00    +0.113 C 
ATOM     11  C   UNL     1      13.461  10.834  22.659  0.00  0.00    +0.130 C 
ATOM     12  C   UNL     1      15.874  10.589  20.057  0.00  0.00    +0.117 C 
ATOM     13  C   UNL     1      14.576   8.934  21.441  0.00  0.00    +0.034 A 
ATOM     14  C   UNL     1      14.527   7.662  20.969  0.00  0.00    +0.004 A 
ATOM     15  C   UNL     1      12.182   8.862  22.029  0.00  0.00    +0.252 A 
ATOM     16  C   UNL     1      13.822  11.687  19.009  0.00  0.00    +0.253 C 
ATOM     17  C   UNL     1      13.265   6.947  20.994  0.00  0.00    +0.015 A 
ATOM     18  C   UNL     1      12.147   7.491  21.470  0.00  0.00    +0.071 A 
ENDROOT
BRANCH  14  19
ATOM      6  N   UNL     1      16.764   5.853  18.561  0.00  0.00    -0.263 NA
ATOM     19  C   UNL     1      15.722   6.990  20.412  0.00  0.00    +0.002 A 
ATOM     21  C   UNL     1      16.878   6.862  21.165  0.00  0.00    +0.011 A 
ATOM     22  C   UNL     1      15.709   6.477  19.130  0.00  0.00    +0.119 A 
ATOM     24  C   UNL     1      17.985   6.226  20.614  0.00  0.00    +0.020 A 
ATOM     27  C   UNL     1      17.878   5.743  19.320  0.00  0.00    +0.111 A 
ENDBRANCH  14  19
BRANCH  16  20
ATOM      1  S   UNL     1      14.621  11.189  16.437  0.00  0.00    -0.092 S 
ATOM     20  C   UNL     1      13.863  10.729  17.898  0.00  0.00    +0.074 A 
ATOM     23  C   UNL     1      13.362   9.451  17.848  0.00  0.00    +0.021 A 
ATOM     25  C   UNL     1      13.604   8.835  16.587  0.00  0.00    +0.008 A 
ATOM     26  C   UNL     1      14.280   9.670  15.725  0.00  0.00    +0.046 A 
ENDBRANCH  16  20
TORSDOF 2
ENDMDL
MODEL 4
REMARK VINA RESULT:      -6.7     13.552     16.185
REMARK  Name = 7051759
REMARK  2 active torsions:
REMARK  status: ('A' for Active; 'I' for Inactive)
REMARK    1  A    between atoms: C_14  and  C_19
REMARK    2  A    between atoms: C_16  and  C_20
REMARK                            x       y       z     vdW  Elec       q    Type
REMARK                         _______ _______ _______ _____ _____    ______ ____
ROOT
ATOM      2  O   UNL     1       7.311   8.867   4.197  0.00  0.00    -0.268 OA
ATOM      3  O   UNL     1      11.268   9.711   7.260  0.00  0.00    -0.269 OA
ATOM      4  N   UNL     1      11.245   7.412   6.834  0.00  0.00    -0.296 N 
ATOM      5  N   UNL     1       8.851   7.203   4.785  0.00  0.00    -0.311 N 
ATOM      7  C   UNL     1       9.037   6.337   7.193  0.00  0.00    +0.027 C 
ATOM      8  C   UNL     1      10.543   5.468   5.453  0.00  0.00    +0.054 C 
ATOM      9  C   UNL     1       9.549   5.062   6.541  0.00  0.00    +0.018 C 
ATOM     10  C   UNL     1      10.199   7.132   7.815  0.00  0.00    +0.113 C 
ATOM     11  C   UNL     1       8.284   7.153   6.140  0.00  0.00    +0.130 C 
ATOM     12  C   UNL     1      11.720   6.236   6.090  0.00  0.00    +0.117 C 
ATOM     13  C   UNL     1       9.879   6.329   4.376  0.00  0.00    +0.034 A 
ATOM     14  C   UNL     1      10.266   6.301   3.074  0.00  0.00    +0.004 A 
ATOM     15  C   UNL     1       8.221   8.092   3.897  0.00  0.00    +0.252 A 
ATOM     16  C   UNL     1      11.668   8.729   6.636  0.00  0.00    +0.253 C 
ATOM     17  C   UNL     1       9.641   7.208   2.130  0.00  0.00    +0.015 A 
ATOM     18  C   UNL     1       8.691   8.069   2.492  0.00  0.00    +0.071 A 
ENDROOT
BRANCH  14  19
ATOM      6  N   UNL     1      13.612   5.060   1.917  0.00  0.00    -0.263 NA
ATOM     19  C   UNL     1      11.323   5.383   2.595  0.00  0.00    +0.002 A 
ATOM     21  C   UNL     1      11.050   4.042   2.378  0.00  0.00    +0.011 A 
ATOM     22  C   UNL     1      12.602   5.844   2.355  0.00  0.00    +0.119 A 
ATOM     24  C   UNL     1      12.064   3.203   1.927  0.00  0.00    +0.020 A 
ATOM     27  C   UNL     1      13.316   3.757   1.714  0.00  0.00    +0.111 A 
ENDBRANCH  14  19
BRANCH  16  20
ATOM      1  S   UNL     1      14.313   9.083   6.017  0.00  0.00    -0.092 S 
ATOM     20  C   UNL     1      12.661   8.989   5.587  0.00  0.00    +0.074 A 
ATOM     23  C   UNL     1      12.458   9.180   4.242  0.00  0.00    +0.021 A 
ATOM     25  C   UNL     1      13.681   9.406   3.548  0.00  0.00    +0.008 A 
ATOM     26  C   UNL     1      14.768   9.380   4.393  0.00  0.00    +0.046 A 
ENDBRANCH  16  20
TORSDOF 2
ENDMDL
MODEL 5
REMARK VINA RESULT:      -6.6      2.033      4.082
REMARK  Name = 7051759
REMARK  2 active torsions:
REMARK  status: ('A' for Active; 'I' for Inactive)
REMARK    1  A    between atoms: C_14  and  C_19
REMARK    2  A    between atoms: C_16  and  C_20
REMARK                            x       y       z     vdW  Elec       q    Type
REMARK                         _______ _______ _______ _____ _____    ______ ____
ROOT
ATOM      2  O   UNL     1      12.585   7.930  17.036  0.00  0.00    -0.268 OA
ATOM      3  O   UNL     1      11.282   7.801  21.939  0.00  0.00    -0.269 OA
ATOM      4  N   UNL     1      13.557   8.338  21.877  0.00  0.00    -0.296 N 
ATOM      5  N   UNL     1      14.043   8.544  18.764  0.00  0.00    -0.311 N 
ATOM      7  C   UNL     1      14.916   6.824  20.456  0.00  0.00    +0.027 C 
ATOM      8  C   UNL     1      15.553   9.191  20.666  0.00  0.00    +0.054 C 
ATOM      9  C   UNL     1      16.103   7.767  20.582  0.00  0.00    +0.018 C 
ATOM     10  C   UNL     1      13.987   6.956  21.676  0.00  0.00    +0.113 C 
ATOM     11  C   UNL     1      14.189   7.131  19.145  0.00  0.00    +0.130 C 
ATOM     12  C   UNL     1      14.648   9.322  21.910  0.00  0.00    +0.117 C 
ATOM     13  C   UNL     1      14.768   9.567  19.407  0.00  0.00    +0.034 A 
ATOM     14  C   UNL     1      14.723  10.835  18.923  0.00  0.00    +0.004 A 
ATOM     15  C   UNL     1      13.229   8.787  17.644  0.00  0.00    +0.252 A 
ATOM     16  C   UNL     1      12.193   8.627  21.967  0.00  0.00    +0.253 C 
ATOM     17  C   UNL     1      13.891  11.124  17.771  0.00  0.00    +0.015 A 
ATOM     18  C   UNL     1      13.167  10.186  17.162  0.00  0.00    +0.071 A 
ENDROOT
BRANCH  14  19
ATOM      6  N   UNL     1      17.563  13.144  19.751  0.00  0.00    -0.263 NA
ATOM     19  C   UNL     1      15.487  11.936  19.550  0.00  0.00    +0.002 A 
ATOM     21  C   UNL     1      14.893  12.767  20.487  0.00  0.00    +0.011 A 
ATOM     22  C   UNL     1      16.809  12.158  19.216  0.00  0.00    +0.119 A 
ATOM     24  C   UNL     1      15.636  13.793  21.059  0.00  0.00    +0.020 A 
ATOM     27  C   UNL     1      16.955  13.938  20.661  0.00  0.00    +0.111 A 
ENDBRANCH  14  19
BRANCH  16  20
ATOM      1  S   UNL     1      11.292  10.623  23.613  0.00  0.00    -0.092 S 
ATOM     20  C   UNL     1      11.787  10.033  22.087  0.00  0.00    +0.074 A 
ATOM     23  C   UNL     1      11.742  10.999  21.112  0.00  0.00    +0.021 A 
ATOM     25  C   UNL     1      11.293  12.249  21.625  0.00  0.00    +0.008 A 
ATOM     26  C   UNL     1      11.013  12.186  22.972  0.00  0.00    +0.046 A 
ENDBRANCH  16  20
TORSDOF 2
ENDMDL
MODEL 6
REMARK VINA RESULT:      -6.2     27.284     29.193
REMARK  Name = 7051759
REMARK  2 active torsions:
REMARK  status: ('A' for Active; 'I' for Inactive)
REMARK    1  A    between atoms: C_14  and  C_19
REMARK    2  A    between atoms: C_16  and  C_20
REMARK                            x       y       z     vdW  Elec       q    Type
REMARK                         _______ _______ _______ _____ _____    ______ ____
ROOT
ATOM      2  O   UNL     1      -6.366 -15.013  16.437  0.00  0.00    -0.268 OA
ATOM      3  O   UNL     1      -8.171 -10.859  18.726  0.00  0.00    -0.269 OA
ATOM      4  N   UNL     1      -6.282 -10.180  17.526  0.00  0.00    -0.296 N 
ATOM      5  N   UNL     1      -5.496 -12.869  16.070  0.00  0.00    -0.311 N 
ATOM      7  C   UNL     1      -4.273 -11.582  17.922  0.00  0.00    +0.027 C 
ATOM      8  C   UNL     1      -4.613 -10.542  15.719  0.00  0.00    +0.054 C 
ATOM      9  C   UNL     1      -3.560 -10.891  16.771  0.00  0.00    +0.018 C 
ATOM     10  C   UNL     1      -5.338 -10.656  18.535  0.00  0.00    +0.113 C 
ATOM     11  C   UNL     1      -4.879 -12.888  17.404  0.00  0.00    +0.130 C 
ATOM     12  C   UNL     1      -5.659  -9.587  16.334  0.00  0.00    +0.117 C 
ATOM     13  C   UNL     1      -5.305 -11.795  15.177  0.00  0.00    +0.034 A 
ATOM     14  C   UNL     1      -5.760 -11.886  13.901  0.00  0.00    +0.004 A 
ATOM     15  C   UNL     1      -6.182 -14.040  15.703  0.00  0.00    +0.252 A 
ATOM     16  C   UNL     1      -7.653 -10.362  17.726  0.00  0.00    +0.253 C 
ATOM     17  C   UNL     1      -6.477 -13.078  13.488  0.00  0.00    +0.015 A 
ATOM     18  C   UNL     1      -6.703 -14.096  14.318  0.00  0.00    +0.071 A 
ENDROOT
BRANCH  14  19
ATOM      6  N   UNL     1      -4.149  -9.738  11.280  0.00  0.00    -0.263 NA
ATOM     19  C   UNL     1      -5.561 -10.794  12.923  0.00  0.00    +0.002 A 
ATOM     21  C   UNL     1      -6.541  -9.834  12.723  0.00  0.00    +0.011 A 
ATOM     22  C   UNL     1      -4.395 -10.709  12.188  0.00  0.00    +0.119 A 
ATOM     24  C   UNL     1      -6.325  -8.820  11.797  0.00  0.00    +0.020 A 
ATOM     27  C   UNL     1      -5.123  -8.816  11.108  0.00  0.00    +0.111 A 
ENDBRANCH  14  19
BRANCH  16  20
ATOM      1  S   UNL     1      -9.380  -8.448  16.800  0.00  0.00    -0.092 S 
ATOM     20  C   UNL     1      -8.572  -9.948  16.660  0.00  0.00    +0.074 A 
ATOM     23  C   UNL     1      -8.901 -10.614  15.504  0.00  0.00    +0.021 A 
ATOM     25  C   UNL     1      -9.833  -9.880  14.717  0.00  0.00    +0.008 A 
ATOM     26  C   UNL     1     -10.179  -8.684  15.304  0.00  0.00    +0.046 A 
ENDBRANCH  16  20
TORSDOF 2
ENDMDL
MODEL 7
REMARK VINA RESULT:      -6.1     13.311     16.316
REMARK  Name = 7051759
REMARK  2 active torsions:
REMARK  status: ('A' for Active; 'I' for Inactive)
REMARK    1  A    between atoms: C_14  and  C_19
REMARK    2  A    between atoms: C_16  and  C_20
REMARK                            x       y       z     vdW  Elec       q    Type
REMARK                         _______ _______ _______ _____ _____    ______ ____
ROOT
ATOM      2  O   UNL     1      22.309  -6.835  23.464  0.00  0.00    -0.268 OA
ATOM      3  O   UNL     1      20.079  -6.803  28.022  0.00  0.00    -0.269 OA
ATOM      4  N   UNL     1      19.861  -4.637  27.169  0.00  0.00    -0.296 N 
ATOM      5  N   UNL     1      21.133  -4.990  24.300  0.00  0.00    -0.311 N 
ATOM      7  C   UNL     1      21.982  -3.663  26.325  0.00  0.00    +0.027 C 
ATOM      8  C   UNL     1      19.853  -3.049  25.256  0.00  0.00    +0.054 C 
ATOM      9  C   UNL     1      21.209  -2.508  25.709  0.00  0.00    +0.018 C 
ATOM     10  C   UNL     1      21.221  -4.243  27.530  0.00  0.00    +0.113 C 
ATOM     11  C   UNL     1      22.228  -4.716  25.242  0.00  0.00    +0.130 C 
ATOM     12  C   UNL     1      19.084  -3.599  26.477  0.00  0.00    +0.117 C 
ATOM     13  C   UNL     1      20.008  -4.146  24.200  0.00  0.00    +0.034 A 
ATOM     14  C   UNL     1      19.098  -4.345  23.212  0.00  0.00    +0.004 A 
ATOM     15  C   UNL     1      21.340  -6.074  23.430  0.00  0.00    +0.252 A 
ATOM     16  C   UNL     1      19.426  -5.936  27.443  0.00  0.00    +0.253 C 
ATOM     17  C   UNL     1      19.277  -5.457  22.298  0.00  0.00    +0.015 A 
ATOM     18  C   UNL     1      20.311  -6.293  22.388  0.00  0.00    +0.071 A 
ENDROOT
BRANCH  14  19
ATOM      6  N   UNL     1      17.005  -1.356  22.338  0.00  0.00    -0.263 NA
ATOM     19  C   UNL     1      17.916  -3.469  23.053  0.00  0.00    +0.002 A 
ATOM     21  C   UNL     1      16.658  -3.899  23.444  0.00  0.00    +0.011 A 
ATOM     22  C   UNL     1      18.043  -2.205  22.511  0.00  0.00    +0.119 A 
ATOM     24  C   UNL     1      15.566  -3.053  23.282  0.00  0.00    +0.020 A 
ATOM     27  C   UNL     1      15.791  -1.803  22.730  0.00  0.00    +0.111 A 
ENDBRANCH  14  19
BRANCH  16  20
ATOM      1  S   UNL     1      16.788  -6.261  28.107  0.00  0.00    -0.092 S 
ATOM     20  C   UNL     1      18.085  -6.329  26.995  0.00  0.00    +0.074 A 
ATOM     23  C   UNL     1      17.688  -6.765  25.754  0.00  0.00    +0.021 A 
ATOM     25  C   UNL     1      16.293  -7.049  25.713  0.00  0.00    +0.008 A 
ATOM     26  C   UNL     1      15.682  -6.819  26.926  0.00  0.00    +0.046 A 
ENDBRANCH  16  20
TORSDOF 2
ENDMDL
MODEL 8
REMARK VINA RESULT:      -6.1     26.878     29.375
REMARK  Name = 7051759
REMARK  2 active torsions:
REMARK  status: ('A' for Active; 'I' for Inactive)
REMARK    1  A    between atoms: C_14  and  C_19
REMARK    2  A    between atoms: C_16  and  C_20
REMARK                            x       y       z     vdW  Elec       q    Type
REMARK                         _______ _______ _______ _____ _____    ______ ____
ROOT
ATOM      2  O   UNL     1      -5.974 -11.426  20.841  0.00  0.00    -0.268 OA
ATOM      3  O   UNL     1      -9.051 -13.767  17.555  0.00  0.00    -0.269 OA
ATOM      4  N   UNL     1      -8.007 -12.045  16.366  0.00  0.00    -0.296 N 
ATOM      5  N   UNL     1      -6.041 -10.906  18.559  0.00  0.00    -0.311 N 
ATOM      7  C   UNL     1      -8.111  -9.834  17.486  0.00  0.00    +0.027 C 
ATOM      8  C   UNL     1      -6.160 -10.402  16.099  0.00  0.00    +0.054 C 
ATOM      9  C   UNL     1      -7.118  -9.274  16.479  0.00  0.00    +0.018 C 
ATOM     10  C   UNL     1      -8.898 -11.006  16.877  0.00  0.00    +0.113 C 
ATOM     11  C   UNL     1      -7.343 -10.250  18.744  0.00  0.00    +0.130 C 
ATOM     12  C   UNL     1      -6.956 -11.561  15.459  0.00  0.00    +0.117 C 
ATOM     13  C   UNL     1      -5.380 -10.912  17.313  0.00  0.00    +0.034 A 
ATOM     14  C   UNL     1      -4.113 -11.390  17.221  0.00  0.00    +0.004 A 
ATOM     15  C   UNL     1      -5.449 -11.417  19.727  0.00  0.00    +0.252 A 
ATOM     16  C   UNL     1      -8.170 -13.365  16.796  0.00  0.00    +0.253 C 
ATOM     17  C   UNL     1      -3.472 -11.930  18.406  0.00  0.00    +0.015 A 
ATOM     18  C   UNL     1      -4.082 -11.970  19.589  0.00  0.00    +0.071 A 
ENDROOT
BRANCH  14  19
ATOM      6  N   UNL     1      -2.880 -12.493  13.853  0.00  0.00    -0.263 NA
ATOM     19  C   UNL     1      -3.372 -11.393  15.940  0.00  0.00    +0.002 A 
ATOM     21  C   UNL     1      -2.509 -10.358  15.619  0.00  0.00    +0.011 A 
ATOM     22  C   UNL     1      -3.526 -12.428  15.039  0.00  0.00    +0.119 A 
ATOM     24  C   UNL     1      -1.827 -10.389  14.408  0.00  0.00    +0.020 A 
ATOM     27  C   UNL     1      -2.045 -11.468  13.568  0.00  0.00    +0.111 A 
ENDBRANCH  14  19
BRANCH  16  20
ATOM      1  S   UNL     1      -7.634 -15.369  15.007  0.00  0.00    -0.092 S 
ATOM     20  C   UNL     1      -7.210 -14.371  16.329  0.00  0.00    +0.074 A 
ATOM     23  C   UNL     1      -5.956 -14.651  16.815  0.00  0.00    +0.021 A 
ATOM     25  C   UNL     1      -5.329 -15.704  16.089  0.00  0.00    +0.008 A 
ATOM     26  C   UNL     1      -6.131 -16.185  15.078  0.00  0.00    +0.046 A 
ENDBRANCH  16  20
TORSDOF 2
ENDMDL
MODEL 9
REMARK VINA RESULT:      -5.9     26.668     29.187
REMARK  Name = 7051759
REMARK  2 active torsions:
REMARK  status: ('A' for Active; 'I' for Inactive)
REMARK    1  A    between atoms: C_14  and  C_19
REMARK    2  A    between atoms: C_16  and  C_20
REMARK                            x       y       z     vdW  Elec       q    Type
REMARK                         _______ _______ _______ _____ _____    ______ ____
ROOT
ATOM      2  O   UNL     1      -0.868 -12.696  13.710  0.00  0.00    -0.268 OA
ATOM      3  O   UNL     1      -5.054 -13.234  10.893  0.00  0.00    -0.269 OA
ATOM      4  N   UNL     1      -5.684 -13.684  13.099  0.00  0.00    -0.296 N 
ATOM      5  N   UNL     1      -2.986 -13.092  14.628  0.00  0.00    -0.311 N 
ATOM      7  C   UNL     1      -4.215 -15.313  14.259  0.00  0.00    +0.027 C 
ATOM      8  C   UNL     1      -5.287 -13.513  15.547  0.00  0.00    +0.054 C 
ATOM      9  C   UNL     1      -4.895 -14.989  15.581  0.00  0.00    +0.018 C 
ATOM     10  C   UNL     1      -5.169 -15.051  13.081  0.00  0.00    +0.113 C 
ATOM     11  C   UNL     1      -2.934 -14.483  14.156  0.00  0.00    +0.130 C 
ATOM     12  C   UNL     1      -6.269 -13.266  14.382  0.00  0.00    +0.117 C 
ATOM     13  C   UNL     1      -4.062 -12.607  15.399  0.00  0.00    +0.034 A 
ATOM     14  C   UNL     1      -3.998 -11.366  15.947  0.00  0.00    +0.004 A 
ATOM     15  C   UNL     1      -1.841 -12.319  14.365  0.00  0.00    +0.252 A 
ATOM     16  C   UNL     1      -5.545 -12.881  11.965  0.00  0.00    +0.253 C 
ATOM     17  C   UNL     1      -2.834 -10.539  15.692  0.00  0.00    +0.015 A 
ATOM     18  C   UNL     1      -1.816 -10.955  14.940  0.00  0.00    +0.071 A 
ENDROOT
BRANCH  14  19
ATOM      6  N   UNL     1      -7.102  -9.504  16.935  0.00  0.00    -0.263 NA
ATOM     19  C   UNL     1      -5.093 -10.826  16.783  0.00  0.00    +0.002 A 
ATOM     21  C   UNL     1      -5.154 -11.108  18.138  0.00  0.00    +0.011 A 
ATOM     22  C   UNL     1      -6.076 -10.029  16.229  0.00  0.00    +0.119 A 
ATOM     24  C   UNL     1      -6.195 -10.586  18.898  0.00  0.00    +0.020 A 
ATOM     27  C   UNL     1      -7.135  -9.797  18.255  0.00  0.00    +0.111 A 
ENDBRANCH  14  19
BRANCH  16  20
ATOM      1  S   UNL     1      -7.569 -11.098  11.491  0.00  0.00    -0.092 S 
ATOM     20  C   UNL     1      -5.998 -11.487  12.040  0.00  0.00    +0.074 A 
ATOM     23  C   UNL     1      -5.320 -10.389  12.510  0.00  0.00    +0.021 A 
ATOM     25  C   UNL     1      -6.104  -9.203  12.418  0.00  0.00    +0.008 A 
ATOM     26  C   UNL     1      -7.348  -9.445  11.881  0.00  0.00    +0.046 A 
ENDBRANCH  16  20
TORSDOF 2
ENDMDL
MODEL 10
REMARK VINA RESULT:      -5.8     12.805     15.318
REMARK  Name = 7051759
REMARK  2 active torsions:
REMARK  status: ('A' for Active; 'I' for Inactive)
REMARK    1  A    between atoms: C_14  and  C_19
REMARK    2  A    between atoms: C_16  and  C_20
REMARK                            x       y       z     vdW  Elec       q    Type
REMARK                         _______ _______ _______ _____ _____    ______ ____
ROOT
ATOM      2  O   UNL     1      19.796  -5.049  21.614  0.00  0.00    -0.268 OA
ATOM      3  O   UNL     1      20.512  -1.087  24.702  0.00  0.00    -0.269 OA
ATOM      4  N   UNL     1      18.307  -1.789  25.034  0.00  0.00    -0.296 N 
ATOM      5  N   UNL     1      18.199  -4.338  23.174  0.00  0.00    -0.311 N 
ATOM      7  C   UNL     1      17.009  -2.076  22.939  0.00  0.00    +0.027 C 
ATOM      8  C   UNL     1      16.533  -3.523  24.871  0.00  0.00    +0.054 C 
ATOM      9  C   UNL     1      15.891  -2.749  23.720  0.00  0.00    +0.018 C 
ATOM     10  C   UNL     1      17.799  -1.114  23.842  0.00  0.00    +0.113 C 
ATOM     11  C   UNL     1      17.904  -3.163  22.339  0.00  0.00    +0.130 C 
ATOM     12  C   UNL     1      17.296  -2.545  25.789  0.00  0.00    +0.117 C 
ATOM     13  C   UNL     1      17.484  -4.608  24.358  0.00  0.00    +0.034 A 
ATOM     14  C   UNL     1      17.680  -5.780  25.014  0.00  0.00    +0.004 A 
ATOM     15  C   UNL     1      19.152  -5.228  22.650  0.00  0.00    +0.252 A 
ATOM     16  C   UNL     1      19.669  -1.720  25.336  0.00  0.00    +0.253 C 
ATOM     17  C   UNL     1      18.659  -6.722  24.505  0.00  0.00    +0.015 A 
ATOM     18  C   UNL     1      19.375  -6.481  23.408  0.00  0.00    +0.071 A 
ENDROOT
BRANCH  14  19
ATOM      6  N   UNL     1      16.790  -6.030  28.651  0.00  0.00    -0.263 NA
ATOM     19  C   UNL     1      16.934  -6.117  26.247  0.00  0.00    +0.002 A 
ATOM     21  C   UNL     1      15.732  -6.804  26.183  0.00  0.00    +0.011 A 
ATOM     22  C   UNL     1      17.421  -5.754  27.488  0.00  0.00    +0.119 A 
ATOM     24  C   UNL     1      15.054  -7.106  27.358  0.00  0.00    +0.020 A 
ATOM     27  C   UNL     1      15.621  -6.701  28.556  0.00  0.00    +0.111 A 
ENDBRANCH  14  19
BRANCH  16  20
ATOM      1  S   UNL     1      20.318  -1.677  27.997  0.00  0.00    -0.092 S 
ATOM     20  C   UNL     1      20.163  -2.476  26.494  0.00  0.00    +0.074 A 
ATOM     23  C   UNL     1      20.540  -3.795  26.560  0.00  0.00    +0.021 A 
ATOM     25  C   UNL     1      20.964  -4.160  27.870  0.00  0.00    +0.008 A 
ATOM     26  C   UNL     1      20.894  -3.103  28.750  0.00  0.00    +0.046 A 
ENDBRANCH  16  20
TORSDOF 2
ENDMDL
