REMARK  Name = 11886015
REMARK  9 active torsions:
REMARK  status: ('A' for Active; 'I' for Inactive)
REMARK    1  A    between atoms: S_1  and  C_19
REMARK    2  A    between atoms: S_1  and  C_21
REMARK    3  A    between atoms: O_4  and  C_16
REMARK    4  A    between atoms: O_4  and  C_20
REMARK    5  A    between atoms: O_7  and  C_27
REMARK    6  A    between atoms: O_7  and  C_32
REMARK    7  A    between atoms: N_8  and  C_15
REMARK    8  A    between atoms: N_12  and  C_22
REMARK    9  A    between atoms: C_21  and  C_23
REMARK                            x       y       z     vdW  Elec       q    Type
REMARK                         _______ _______ _______ _____ _____    ______ ____
ROOT
ATOM      2  O   UNL     1       0.404   0.702  -1.352  0.00  0.00    -0.368 OA
ATOM      3  O   UNL     1      -1.096  -1.934  -0.752  0.00  0.00    -0.368 OA
ATOM     13  C   UNL     1      -1.198  -0.609  -0.184  0.00  0.00    +0.177 C 
ATOM     14  C   UNL     1       0.208  -0.043  -0.140  0.00  0.00    +0.192 C 
ATOM     15  C   UNL     1      -1.943   0.298  -1.144  0.00  0.00    +0.168 C 
ATOM     16  C   UNL     1       1.066  -1.285  -0.102  0.00  0.00    +0.235 C 
ATOM     17  C   UNL     1      -0.835   0.789  -2.071  0.00  0.00    +0.190 C 
ATOM     18  C   UNL     1       0.287  -2.235  -0.983  0.00  0.00    +0.207 C 
ENDROOT
BRANCH  15   8
ATOM      8  N   UNL     1      -2.695   1.348  -0.454  0.00  0.00    -0.212 N 
ATOM      9  N   UNL     1      -2.112   2.520  -0.165  0.00  0.00    -0.043 NA
ATOM     10  N   UNL     1      -4.224   2.514   0.548  0.00  0.00    -0.101 NA
ATOM     11  N   UNL     1      -3.052   3.229   0.448  0.00  0.00    -0.022 NA
ATOM     19  C   UNL     1      -3.981   1.354  -0.017  0.00  0.00    +0.210 A 
BRANCH  19   1
ATOM      1  S   UNL     1      -5.063   0.030  -0.202  0.00  0.00    -0.077 S 
BRANCH   1  21
ATOM     21  C   UNL     1      -6.571   0.680   0.577  0.00  0.00    +0.151 C 
BRANCH  21  23
ATOM      6  O   UNL     1      -8.816   0.053  -0.114  0.00  0.00    -0.467 OA
ATOM     23  C   UNL     1      -7.683  -0.328   0.533  0.00  0.00    +0.115 A 
ATOM     26  C   UNL     1      -7.814  -1.606   1.024  0.00  0.00    +0.045 A 
ATOM     30  C   UNL     1      -9.111  -2.038   0.655  0.00  0.00    +0.041 A 
ATOM     31  C   UNL     1      -9.679  -0.993  -0.035  0.00  0.00    +0.195 A 
ENDBRANCH  21  23
ENDBRANCH   1  21
ENDBRANCH  19   1
ENDBRANCH  15   8
BRANCH  16   4
ATOM      4  O   UNL     1       2.378  -1.079  -0.574  0.00  0.00    -0.442 OA
BRANCH   4  20
ATOM      5  O   UNL     1       3.085  -0.670   1.562  0.00  0.00    -0.226 OA
ATOM     12  N   UNL     1       4.559  -0.599  -0.256  0.00  0.00    -0.251 N 
ATOM     20  C   UNL     1       3.337  -0.768   0.367  0.00  0.00    +0.405 C 
ATOM     33  H   UNL     1       4.568  -0.723  -1.265  0.00  0.00    +0.158 HD
BRANCH  12  22
ATOM     22  C   UNL     1       5.800  -0.275   0.337  0.00  0.00    +0.040 A 
ATOM     24  C   UNL     1       6.939  -0.144  -0.458  0.00  0.00    +0.069 A 
ATOM     25  C   UNL     1       5.887  -0.085   1.716  0.00  0.00    +0.023 A 
ATOM     27  C   UNL     1       8.165   0.176   0.127  0.00  0.00    +0.122 A 
ATOM     28  C   UNL     1       7.112   0.234   2.301  0.00  0.00    +0.005 A 
ATOM     29  C   UNL     1       8.251   0.365   1.506  0.00  0.00    +0.046 A 
BRANCH  27   7
ATOM      7  O   UNL     1       9.276   0.303  -0.648  0.00  0.00    -0.495 OA
ATOM     32  C   UNL     1       9.117   0.097  -2.051  0.00  0.00    +0.277 C 
ENDBRANCH  27   7
ENDBRANCH  12  22
ENDBRANCH   4  20
ENDBRANCH  16   4
TORSDOF 8
