MODEL 1
REMARK VINA RESULT:      -7.0      0.000      0.000
REMARK  Name = 45784037
REMARK  12 active torsions:
REMARK  status: ('A' for Active; 'I' for Inactive)
REMARK    1  A    between atoms: O_3  and  C_27
REMARK    2  A    between atoms: O_3  and  C_28
REMARK    3  A    between atoms: N_4  and  C_13
REMARK    4  A    between atoms: N_5  and  C_25
REMARK    5  A    between atoms: C_8  and  C_12
REMARK    6  A    between atoms: C_9  and  C_13
REMARK    7  A    between atoms: C_11  and  C_16
REMARK    8  A    between atoms: C_12  and  C_17
REMARK    9  A    between atoms: C_12  and  C_18
REMARK   10  A    between atoms: C_15  and  C_21
REMARK   11  A    between atoms: C_16  and  C_24
REMARK   12  A    between atoms: C_26  and  C_27
REMARK                            x       y       z     vdW  Elec       q    Type
REMARK                         _______ _______ _______ _____ _____    ______ ____
ROOT
ATOM      8  C   UNL     1      17.063   8.222  21.057  0.00  0.00    +0.000 C 
ATOM      9  C   UNL     1      16.652   7.266  19.909  0.00  0.00    +0.029 C 
ATOM     10  C   UNL     1      18.582   8.450  21.048  0.00  0.00    +0.012 C 
ATOM     11  C   UNL     1      19.369   7.134  21.204  0.00  0.00    +0.024 C 
ATOM     14  C   UNL     1      17.631   6.133  19.706  0.00  0.00    -0.023 C 
ATOM     15  C   UNL     1      18.841   6.051  20.286  0.00  0.00    -0.073 C 
ATOM     21  C   UNL     1      19.756   4.890  20.013  0.00  0.00    +0.039 C 
ENDROOT
BRANCH   8  12
ATOM     12  C   UNL     1      16.336   9.567  20.963  0.00  0.00    -0.013 C 
ATOM     17  C   UNL     1      17.342  10.714  20.913  0.00  0.00    +0.007 C 
ATOM     18  C   UNL     1      15.379   9.738  22.139  0.00  0.00    +0.007 C 
ENDBRANCH   8  12
BRANCH   9  13
ATOM     13  C   UNL     1      15.249   6.693  20.141  0.00  0.00    +0.092 C 
BRANCH  13   4
ATOM      4  N   UNL     1      14.247   7.474  19.418  0.00  0.00    -0.299 NA
ATOM      5  N   UNL     1      12.022   7.751  17.592  0.00  0.00    -0.303 NA
ATOM     19  C   UNL     1      12.891   7.065  19.802  0.00  0.00    +0.100 C 
ATOM     20  C   UNL     1      14.430   7.342  17.967  0.00  0.00    +0.100 C 
ATOM     22  C   UNL     1      11.840   7.882  19.044  0.00  0.00    +0.099 C 
ATOM     23  C   UNL     1      13.379   8.158  17.208  0.00  0.00    +0.099 C 
ATOM     25  C   UNL     1      11.021   8.533  16.870  0.00  0.00    +0.105 C 
ENDBRANCH  13   4
ENDBRANCH   9  13
BRANCH  11  16
ATOM     16  C   UNL     1      19.374   6.664  22.663  0.00  0.00    +0.105 C 
BRANCH  16  24
ATOM      2  O   UNL     1      21.341   5.359  23.279  0.00  0.00    -0.421 OA
ATOM      6  N   UNL     1      21.547   7.557  23.648  0.00  0.00    -0.112 NA
ATOM      7  N   UNL     1      22.724   6.945  24.038  0.00  0.00    -0.109 NA
ATOM     24  C   UNL     1      20.770   6.593  23.212  0.00  0.00    +0.218 A 
ATOM     26  C   UNL     1      22.559   5.664  23.806  0.00  0.00    +0.254 A 
BRANCH  26  27
ATOM     27  C   UNL     1      23.484   4.546  24.027  0.00  0.00    +0.326 C 
BRANCH  27   3
ATOM      3  O   UNL     1      24.313   4.354  22.877  0.00  0.00    -0.483 OA
BRANCH   3  28
ATOM      1  F   UNL     1      25.723  -0.829  21.714  0.00  0.00    -0.205 F 
ATOM     28  C   UNL     1      24.664   3.065  22.587  0.00  0.00    +0.121 A 
ATOM     29  C   UNL     1      25.642   2.422  23.346  0.00  0.00    +0.048 A 
ATOM     30  C   UNL     1      24.043   2.393  21.535  0.00  0.00    +0.048 A 
ATOM     31  C   UNL     1      26.000   1.107  23.050  0.00  0.00    +0.042 A 
ATOM     32  C   UNL     1      24.400   1.077  21.240  0.00  0.00    +0.042 A 
ATOM     33  C   UNL     1      25.379   0.434  21.998  0.00  0.00    +0.124 A 
ENDBRANCH   3  28
ENDBRANCH  27   3
ENDBRANCH  26  27
ENDBRANCH  16  24
ENDBRANCH  11  16
TORSDOF 8
ENDMDL
MODEL 2
REMARK VINA RESULT:      -6.8     28.457     31.474
REMARK  Name = 45784037
REMARK  12 active torsions:
REMARK  status: ('A' for Active; 'I' for Inactive)
REMARK    1  A    between atoms: O_3  and  C_27
REMARK    2  A    between atoms: O_3  and  C_28
REMARK    3  A    between atoms: N_4  and  C_13
REMARK    4  A    between atoms: N_5  and  C_25
REMARK    5  A    between atoms: C_8  and  C_12
REMARK    6  A    between atoms: C_9  and  C_13
REMARK    7  A    between atoms: C_11  and  C_16
REMARK    8  A    between atoms: C_12  and  C_17
REMARK    9  A    between atoms: C_12  and  C_18
REMARK   10  A    between atoms: C_15  and  C_21
REMARK   11  A    between atoms: C_16  and  C_24
REMARK   12  A    between atoms: C_26  and  C_27
REMARK                            x       y       z     vdW  Elec       q    Type
REMARK                         _______ _______ _______ _____ _____    ______ ____
ROOT
ATOM      8  C   UNL     1      -6.286 -13.171  16.300  0.00  0.00    +0.000 C 
ATOM      9  C   UNL     1      -7.346 -13.278  17.425  0.00  0.00    +0.029 C 
ATOM     10  C   UNL     1      -4.870 -13.149  16.897  0.00  0.00    +0.012 C 
ATOM     11  C   UNL     1      -4.668 -11.974  17.872  0.00  0.00    +0.024 C 
ATOM     14  C   UNL     1      -7.002 -12.451  18.642  0.00  0.00    -0.023 C 
ATOM     15  C   UNL     1      -5.817 -11.851  18.852  0.00  0.00    -0.073 C 
ATOM     21  C   UNL     1      -5.559 -11.057  20.102  0.00  0.00    +0.039 C 
ENDROOT
BRANCH   8  12
ATOM     12  C   UNL     1      -6.407 -14.319  15.294  0.00  0.00    -0.013 C 
ATOM     17  C   UNL     1      -5.596 -15.524  15.761  0.00  0.00    +0.007 C 
ATOM     18  C   UNL     1      -5.952 -13.864  13.910  0.00  0.00    +0.007 C 
ENDBRANCH   8  12
BRANCH   9  13
ATOM     13  C   UNL     1      -8.736 -12.883  16.915  0.00  0.00    +0.092 C 
BRANCH  13   4
ATOM      4  N   UNL     1      -8.991 -11.465  17.156  0.00  0.00    -0.299 NA
ATOM      5  N   UNL     1     -10.446  -9.001  16.741  0.00  0.00    -0.303 NA
ATOM     19  C   UNL     1     -10.328 -11.265  17.727  0.00  0.00    +0.100 C 
ATOM     20  C   UNL     1      -8.841 -10.689  15.918  0.00  0.00    +0.100 C 
ATOM     22  C   UNL     1     -10.596  -9.777  17.979  0.00  0.00    +0.099 C 
ATOM     23  C   UNL     1      -9.109  -9.203  16.169  0.00  0.00    +0.099 C 
ATOM     25  C   UNL     1     -10.699  -7.582  16.983  0.00  0.00    +0.105 C 
ENDBRANCH  13   4
ENDBRANCH   9  13
BRANCH  11  16
ATOM     16  C   UNL     1      -4.447 -10.660  17.115  0.00  0.00    +0.105 C 
BRANCH  16  24
ATOM      2  O   UNL     1      -3.344 -10.435  14.951  0.00  0.00    -0.421 OA
ATOM      6  N   UNL     1      -1.968 -10.986  16.628  0.00  0.00    -0.112 NA
ATOM      7  N   UNL     1      -1.217 -10.892  15.472  0.00  0.00    -0.109 NA
ATOM     24  C   UNL     1      -3.203 -10.711  16.277  0.00  0.00    +0.218 A 
ATOM     26  C   UNL     1      -2.060 -10.570  14.519  0.00  0.00    +0.254 A 
BRANCH  26  27
ATOM     27  C   UNL     1      -1.813 -10.337  13.091  0.00  0.00    +0.326 C 
BRANCH  27   3
ATOM      3  O   UNL     1      -2.394 -11.385  12.310  0.00  0.00    -0.483 OA
BRANCH   3  28
ATOM      1  F   UNL     1      -5.005  -9.864   7.719  0.00  0.00    -0.205 F 
ATOM     28  C   UNL     1      -3.043 -11.007  11.168  0.00  0.00    +0.121 A 
ATOM     29  C   UNL     1      -3.034  -9.669  10.772  0.00  0.00    +0.048 A 
ATOM     30  C   UNL     1      -3.715 -11.958  10.400  0.00  0.00    +0.048 A 
ATOM     31  C   UNL     1      -3.696  -9.283   9.606  0.00  0.00    +0.042 A 
ATOM     32  C   UNL     1      -4.377 -11.572   9.235  0.00  0.00    +0.042 A 
ATOM     33  C   UNL     1      -4.368 -10.234   8.838  0.00  0.00    +0.124 A 
ENDBRANCH   3  28
ENDBRANCH  27   3
ENDBRANCH  26  27
ENDBRANCH  16  24
ENDBRANCH  11  16
TORSDOF 8
ENDMDL
MODEL 3
REMARK VINA RESULT:      -6.6      4.813     11.182
REMARK  Name = 45784037
REMARK  12 active torsions:
REMARK  status: ('A' for Active; 'I' for Inactive)
REMARK    1  A    between atoms: O_3  and  C_27
REMARK    2  A    between atoms: O_3  and  C_28
REMARK    3  A    between atoms: N_4  and  C_13
REMARK    4  A    between atoms: N_5  and  C_25
REMARK    5  A    between atoms: C_8  and  C_12
REMARK    6  A    between atoms: C_9  and  C_13
REMARK    7  A    between atoms: C_11  and  C_16
REMARK    8  A    between atoms: C_12  and  C_17
REMARK    9  A    between atoms: C_12  and  C_18
REMARK   10  A    between atoms: C_15  and  C_21
REMARK   11  A    between atoms: C_16  and  C_24
REMARK   12  A    between atoms: C_26  and  C_27
REMARK                            x       y       z     vdW  Elec       q    Type
REMARK                         _______ _______ _______ _____ _____    ______ ____
ROOT
ATOM      8  C   UNL     1      20.149   6.121  21.837  0.00  0.00    +0.000 C 
ATOM      9  C   UNL     1      20.536   7.394  22.631  0.00  0.00    +0.029 C 
ATOM     10  C   UNL     1      19.491   6.500  20.502  0.00  0.00    +0.012 C 
ATOM     11  C   UNL     1      18.226   7.356  20.699  0.00  0.00    +0.024 C 
ATOM     14  C   UNL     1      19.501   8.490  22.531  0.00  0.00    -0.023 C 
ATOM     15  C   UNL     1      18.456   8.484  21.684  0.00  0.00    -0.073 C 
ATOM     21  C   UNL     1      17.482   9.628  21.644  0.00  0.00    +0.039 C 
ENDROOT
BRANCH   8  12
ATOM     12  C   UNL     1      21.362   5.221  21.581  0.00  0.00    -0.013 C 
ATOM     17  C   UNL     1      22.403   5.956  20.741  0.00  0.00    +0.007 C 
ATOM     18  C   UNL     1      20.929   3.928  20.895  0.00  0.00    +0.007 C 
ENDBRANCH   8  12
BRANCH   9  13
ATOM     13  C   UNL     1      20.795   7.069  24.107  0.00  0.00    +0.092 C 
BRANCH  13   4
ATOM      4  N   UNL     1      21.803   7.969  24.664  0.00  0.00    -0.299 NA
ATOM      5  N   UNL     1      24.364   8.529  25.884  0.00  0.00    -0.303 NA
ATOM     19  C   UNL     1      23.047   7.902  23.888  0.00  0.00    +0.100 C 
ATOM     20  C   UNL     1      22.062   7.653  26.075  0.00  0.00    +0.100 C 
ATOM     22  C   UNL     1      24.105   8.844  24.473  0.00  0.00    +0.099 C 
ATOM     23  C   UNL     1      23.119   8.593  26.659  0.00  0.00    +0.099 C 
ATOM     25  C   UNL     1      25.371   9.430  26.441  0.00  0.00    +0.105 C 
ENDBRANCH  13   4
ENDBRANCH   9  13
BRANCH  11  16
ATOM     16  C   UNL     1      17.034   6.490  21.124  0.00  0.00    +0.105 C 
BRANCH  16  24
ATOM      2  O   UNL     1      14.614   6.460  20.816  0.00  0.00    -0.421 OA
ATOM      6  N   UNL     1      15.750   7.265  19.064  0.00  0.00    -0.112 NA
ATOM      7  N   UNL     1      14.403   7.305  18.756  0.00  0.00    -0.109 NA
ATOM     24  C   UNL     1      15.826   6.764  20.275  0.00  0.00    +0.218 A 
ATOM     26  C   UNL     1      13.778   6.826  19.805  0.00  0.00    +0.254 A 
BRANCH  26  27
ATOM     27  C   UNL     1      12.341   6.639  20.034  0.00  0.00    +0.326 C 
BRANCH  27   3
ATOM      3  O   UNL     1      11.621   7.814  19.649  0.00  0.00    -0.483 OA
BRANCH   3  28
ATOM      1  F   UNL     1      10.833  11.600  23.554  0.00  0.00    -0.205 F 
ATOM     28  C   UNL     1      11.425   8.755  20.620  0.00  0.00    +0.121 A 
ATOM     29  C   UNL     1      11.889  10.058  20.432  0.00  0.00    +0.048 A 
ATOM     30  C   UNL     1      10.762   8.414  21.798  0.00  0.00    +0.048 A 
ATOM     31  C   UNL     1      11.689  11.019  21.423  0.00  0.00    +0.042 A 
ATOM     32  C   UNL     1      10.561   9.375  22.790  0.00  0.00    +0.042 A 
ATOM     33  C   UNL     1      11.025  10.677  22.602  0.00  0.00    +0.124 A 
ENDBRANCH   3  28
ENDBRANCH  27   3
ENDBRANCH  26  27
ENDBRANCH  16  24
ENDBRANCH  11  16
TORSDOF 8
ENDMDL
MODEL 4
REMARK VINA RESULT:      -6.6     31.997     34.952
REMARK  Name = 45784037
REMARK  12 active torsions:
REMARK  status: ('A' for Active; 'I' for Inactive)
REMARK    1  A    between atoms: O_3  and  C_27
REMARK    2  A    between atoms: O_3  and  C_28
REMARK    3  A    between atoms: N_4  and  C_13
REMARK    4  A    between atoms: N_5  and  C_25
REMARK    5  A    between atoms: C_8  and  C_12
REMARK    6  A    between atoms: C_9  and  C_13
REMARK    7  A    between atoms: C_11  and  C_16
REMARK    8  A    between atoms: C_12  and  C_17
REMARK    9  A    between atoms: C_12  and  C_18
REMARK   10  A    between atoms: C_15  and  C_21
REMARK   11  A    between atoms: C_16  and  C_24
REMARK   12  A    between atoms: C_26  and  C_27
REMARK                            x       y       z     vdW  Elec       q    Type
REMARK                         _______ _______ _______ _____ _____    ______ ____
ROOT
ATOM      8  C   UNL     1     -13.871   7.620  21.251  0.00  0.00    +0.000 C 
ATOM      9  C   UNL     1     -14.978   8.543  20.683  0.00  0.00    +0.029 C 
ATOM     10  C   UNL     1     -14.266   6.144  21.085  0.00  0.00    +0.012 C 
ATOM     11  C   UNL     1     -15.592   5.813  21.796  0.00  0.00    +0.024 C 
ATOM     14  C   UNL     1     -16.373   8.048  20.985  0.00  0.00    -0.023 C 
ATOM     15  C   UNL     1     -16.665   6.838  21.494  0.00  0.00    -0.073 C 
ATOM     21  C   UNL     1     -18.087   6.425  21.750  0.00  0.00    +0.039 C 
ENDROOT
BRANCH   8  12
ATOM     12  C   UNL     1     -12.519   7.874  20.578  0.00  0.00    -0.013 C 
ATOM     17  C   UNL     1     -12.699   8.061  19.075  0.00  0.00    +0.007 C 
ATOM     18  C   UNL     1     -11.556   6.726  20.869  0.00  0.00    +0.007 C 
ENDBRANCH   8  12
BRANCH   9  13
ATOM     13  C   UNL     1     -14.822   9.978  21.200  0.00  0.00    +0.092 C 
BRANCH  13   4
ATOM      4  N   UNL     1     -14.118   9.992  22.480  0.00  0.00    -0.299 NA
ATOM      5  N   UNL     1     -13.278  11.248  24.945  0.00  0.00    -0.303 NA
ATOM     19  C   UNL     1     -15.057  10.196  23.589  0.00  0.00    +0.100 C 
ATOM     20  C   UNL     1     -13.077  11.028  22.492  0.00  0.00    +0.100 C 
ATOM     22  C   UNL     1     -14.319  10.212  24.932  0.00  0.00    +0.099 C 
ATOM     23  C   UNL     1     -12.340  11.046  23.834  0.00  0.00    +0.099 C 
ATOM     25  C   UNL     1     -12.573  11.260  26.225  0.00  0.00    +0.105 C 
ENDBRANCH  13   4
ENDBRANCH   9  13
BRANCH  11  16
ATOM     16  C   UNL     1     -15.385   5.663  23.308  0.00  0.00    +0.105 C 
BRANCH  16  24
ATOM      2  O   UNL     1     -15.883   4.122  25.132  0.00  0.00    -0.421 OA
ATOM      6  N   UNL     1     -16.084   3.223  23.094  0.00  0.00    -0.112 NA
ATOM      7  N   UNL     1     -16.393   2.248  24.023  0.00  0.00    -0.109 NA
ATOM     24  C   UNL     1     -15.792   4.299  23.786  0.00  0.00    +0.218 A 
ATOM     26  C   UNL     1     -16.262   2.816  25.199  0.00  0.00    +0.254 A 
BRANCH  26  27
ATOM     27  C   UNL     1     -16.467   2.253  26.539  0.00  0.00    +0.326 C 
BRANCH  27   3
ATOM      3  O   UNL     1     -15.836   3.076  27.524  0.00  0.00    -0.483 OA
BRANCH   3  28
ATOM      1  F   UNL     1     -14.746   0.705  32.362  0.00  0.00    -0.205 F 
ATOM     28  C   UNL     1     -15.565   2.486  28.727  0.00  0.00    +0.121 A 
ATOM     29  C   UNL     1     -16.017   1.192  28.987  0.00  0.00    +0.048 A 
ATOM     30  C   UNL     1     -14.836   3.178  29.694  0.00  0.00    +0.048 A 
ATOM     31  C   UNL     1     -15.740   0.591  30.215  0.00  0.00    +0.042 A 
ATOM     32  C   UNL     1     -14.559   2.576  30.922  0.00  0.00    +0.042 A 
ATOM     33  C   UNL     1     -15.011   1.283  31.182  0.00  0.00    +0.124 A 
ENDBRANCH   3  28
ENDBRANCH  27   3
ENDBRANCH  26  27
ENDBRANCH  16  24
ENDBRANCH  11  16
TORSDOF 8
ENDMDL
MODEL 5
REMARK VINA RESULT:      -6.6     32.159     34.776
REMARK  Name = 45784037
REMARK  12 active torsions:
REMARK  status: ('A' for Active; 'I' for Inactive)
REMARK    1  A    between atoms: O_3  and  C_27
REMARK    2  A    between atoms: O_3  and  C_28
REMARK    3  A    between atoms: N_4  and  C_13
REMARK    4  A    between atoms: N_5  and  C_25
REMARK    5  A    between atoms: C_8  and  C_12
REMARK    6  A    between atoms: C_9  and  C_13
REMARK    7  A    between atoms: C_11  and  C_16
REMARK    8  A    between atoms: C_12  and  C_17
REMARK    9  A    between atoms: C_12  and  C_18
REMARK   10  A    between atoms: C_15  and  C_21
REMARK   11  A    between atoms: C_16  and  C_24
REMARK   12  A    between atoms: C_26  and  C_27
REMARK                            x       y       z     vdW  Elec       q    Type
REMARK                         _______ _______ _______ _____ _____    ______ ____
ROOT
ATOM      8  C   UNL     1     -14.307   7.189  20.932  0.00  0.00    +0.000 C 
ATOM      9  C   UNL     1     -15.195   7.300  19.667  0.00  0.00    +0.029 C 
ATOM     10  C   UNL     1     -14.178   5.722  21.371  0.00  0.00    +0.012 C 
ATOM     11  C   UNL     1     -15.546   5.084  21.677  0.00  0.00    +0.024 C 
ATOM     14  C   UNL     1     -16.381   6.364  19.695  0.00  0.00    -0.023 C 
ATOM     15  C   UNL     1     -16.561   5.379  20.591  0.00  0.00    -0.073 C 
ATOM     21  C   UNL     1     -17.768   4.485  20.533  0.00  0.00    +0.039 C 
ENDROOT
BRANCH   8  12
ATOM     12  C   UNL     1     -12.916   7.787  20.703  0.00  0.00    -0.013 C 
ATOM     17  C   UNL     1     -11.836   6.742  20.971  0.00  0.00    +0.007 C 
ATOM     18  C   UNL     1     -12.711   9.013  21.588  0.00  0.00    +0.007 C 
ENDBRANCH   8  12
BRANCH   9  13
ATOM     13  C   UNL     1     -15.683   8.737  19.457  0.00  0.00    +0.092 C 
BRANCH  13   4
ATOM      4  N   UNL     1     -15.177   9.275  18.196  0.00  0.00    -0.299 NA
ATOM      5  N   UNL     1     -13.055   9.974  16.360  0.00  0.00    -0.303 NA
ATOM     19  C   UNL     1     -14.450   8.245  17.444  0.00  0.00    +0.100 C 
ATOM     20  C   UNL     1     -14.315  10.440  18.434  0.00  0.00    +0.100 C 
ATOM     22  C   UNL     1     -13.917   8.809  16.122  0.00  0.00    +0.099 C 
ATOM     23  C   UNL     1     -13.781  11.004  17.114  0.00  0.00    +0.099 C 
ATOM     25  C   UNL     1     -12.551  10.513  15.099  0.00  0.00    +0.105 C 
ENDBRANCH  13   4
ENDBRANCH   9  13
BRANCH  11  16
ATOM     16  C   UNL     1     -16.066   5.525  23.050  0.00  0.00    +0.105 C 
BRANCH  16  24
ATOM      2  O   UNL     1     -16.323   4.687  25.327  0.00  0.00    -0.421 OA
ATOM      6  N   UNL     1     -15.930   3.095  23.804  0.00  0.00    -0.112 NA
ATOM      7  N   UNL     1     -16.054   2.485  25.038  0.00  0.00    -0.109 NA
ATOM     24  C   UNL     1     -16.095   4.380  24.021  0.00  0.00    +0.218 A 
ATOM     26  C   UNL     1     -16.282   3.451  25.897  0.00  0.00    +0.254 A 
BRANCH  26  27
ATOM     27  C   UNL     1     -16.497   3.383  27.347  0.00  0.00    +0.326 C 
BRANCH  27   3
ATOM      3  O   UNL     1     -16.111   2.099  27.846  0.00  0.00    -0.483 OA
BRANCH   3  28
ATOM      1  F   UNL     1     -13.100   2.061  32.444  0.00  0.00    -0.205 F 
ATOM     28  C   UNL     1     -15.362   2.090  28.989  0.00  0.00    +0.121 A 
ATOM     29  C   UNL     1     -14.962   3.293  29.571  0.00  0.00    +0.048 A 
ATOM     30  C   UNL     1     -14.998   0.877  29.574  0.00  0.00    +0.048 A 
ATOM     31  C   UNL     1     -14.198   3.283  30.738  0.00  0.00    +0.042 A 
ATOM     32  C   UNL     1     -14.234   0.867  30.742  0.00  0.00    +0.042 A 
ATOM     33  C   UNL     1     -13.834   2.071  31.323  0.00  0.00    +0.124 A 
ENDBRANCH   3  28
ENDBRANCH  27   3
ENDBRANCH  26  27
ENDBRANCH  16  24
ENDBRANCH  11  16
TORSDOF 8
ENDMDL
MODEL 6
REMARK VINA RESULT:      -6.6     29.126     31.554
REMARK  Name = 45784037
REMARK  12 active torsions:
REMARK  status: ('A' for Active; 'I' for Inactive)
REMARK    1  A    between atoms: O_3  and  C_27
REMARK    2  A    between atoms: O_3  and  C_28
REMARK    3  A    between atoms: N_4  and  C_13
REMARK    4  A    between atoms: N_5  and  C_25
REMARK    5  A    between atoms: C_8  and  C_12
REMARK    6  A    between atoms: C_9  and  C_13
REMARK    7  A    between atoms: C_11  and  C_16
REMARK    8  A    between atoms: C_12  and  C_17
REMARK    9  A    between atoms: C_12  and  C_18
REMARK   10  A    between atoms: C_15  and  C_21
REMARK   11  A    between atoms: C_16  and  C_24
REMARK   12  A    between atoms: C_26  and  C_27
REMARK                            x       y       z     vdW  Elec       q    Type
REMARK                         _______ _______ _______ _____ _____    ______ ____
ROOT
ATOM      8  C   UNL     1      -7.097 -10.170  15.426  0.00  0.00    +0.000 C 
ATOM      9  C   UNL     1      -7.903 -10.085  16.747  0.00  0.00    +0.029 C 
ATOM     10  C   UNL     1      -6.165 -11.391  15.444  0.00  0.00    +0.012 C 
ATOM     11  C   UNL     1      -5.172 -11.349  16.621  0.00  0.00    +0.024 C 
ATOM     14  C   UNL     1      -7.085 -10.452  17.963  0.00  0.00    -0.023 C 
ATOM     15  C   UNL     1      -5.859 -11.004  17.926  0.00  0.00    -0.073 C 
ATOM     21  C   UNL     1      -5.124 -11.349  19.190  0.00  0.00    +0.039 C 
ENDROOT
BRANCH   8  12
ATOM     12  C   UNL     1      -8.016 -10.235  14.203  0.00  0.00    -0.013 C 
ATOM     17  C   UNL     1      -8.502 -11.664  13.978  0.00  0.00    +0.007 C 
ATOM     18  C   UNL     1      -7.293  -9.710  12.966  0.00  0.00    +0.007 C 
ENDBRANCH   8  12
BRANCH   9  13
ATOM     13  C   UNL     1      -8.507  -8.690  16.939  0.00  0.00    +0.092 C 
BRANCH  13   4
ATOM      4  N   UNL     1      -9.884  -8.651  16.453  0.00  0.00    -0.299 NA
ATOM      5  N   UNL     1     -12.536  -7.507  16.312  0.00  0.00    -0.303 NA
ATOM     19  C   UNL     1     -10.140  -7.412  15.711  0.00  0.00    +0.100 C 
ATOM     20  C   UNL     1     -10.834  -8.789  17.564  0.00  0.00    +0.100 C 
ATOM     22  C   UNL     1     -11.585  -7.370  15.201  0.00  0.00    +0.099 C 
ATOM     23  C   UNL     1     -12.279  -8.747  17.056  0.00  0.00    +0.099 C 
ATOM     25  C   UNL     1     -13.913  -7.471  15.824  0.00  0.00    +0.105 C 
ENDBRANCH  13   4
ENDBRANCH   9  13
BRANCH  11  16
ATOM     16  C   UNL     1      -4.018 -10.381  16.335  0.00  0.00    +0.105 C 
BRANCH  16  24
ATOM      2  O   UNL     1      -3.100 -10.341  14.075  0.00  0.00    -0.421 OA
ATOM      6  N   UNL     1      -2.223 -11.924  15.391  0.00  0.00    -0.112 NA
ATOM      7  N   UNL     1      -1.617 -12.014  14.152  0.00  0.00    -0.109 NA
ATOM     24  C   UNL     1      -3.081 -10.934  15.300  0.00  0.00    +0.218 A 
ATOM     26  C   UNL     1      -2.160 -11.073  13.416  0.00  0.00    +0.254 A 
BRANCH  26  27
ATOM     27  C   UNL     1      -1.895 -10.708  12.019  0.00  0.00    +0.326 C 
BRANCH  27   3
ATOM      3  O   UNL     1      -2.765 -11.432  11.145  0.00  0.00    -0.483 OA
BRANCH   3  28
ATOM      1  F   UNL     1      -6.578  -8.489   8.497  0.00  0.00    -0.205 F 
ATOM     28  C   UNL     1      -3.713 -10.701  10.486  0.00  0.00    +0.121 A 
ATOM     29  C   UNL     1      -4.976 -11.246  10.251  0.00  0.00    +0.048 A 
ATOM     30  C   UNL     1      -3.419  -9.409  10.050  0.00  0.00    +0.048 A 
ATOM     31  C   UNL     1      -5.943 -10.498   9.579  0.00  0.00    +0.042 A 
ATOM     32  C   UNL     1      -4.386  -8.662   9.378  0.00  0.00    +0.042 A 
ATOM     33  C   UNL     1      -5.649  -9.207   9.143  0.00  0.00    +0.124 A 
ENDBRANCH   3  28
ENDBRANCH  27   3
ENDBRANCH  26  27
ENDBRANCH  16  24
ENDBRANCH  11  16
TORSDOF 8
ENDMDL
MODEL 7
REMARK VINA RESULT:      -6.6     30.904     34.354
REMARK  Name = 45784037
REMARK  12 active torsions:
REMARK  status: ('A' for Active; 'I' for Inactive)
REMARK    1  A    between atoms: O_3  and  C_27
REMARK    2  A    between atoms: O_3  and  C_28
REMARK    3  A    between atoms: N_4  and  C_13
REMARK    4  A    between atoms: N_5  and  C_25
REMARK    5  A    between atoms: C_8  and  C_12
REMARK    6  A    between atoms: C_9  and  C_13
REMARK    7  A    between atoms: C_11  and  C_16
REMARK    8  A    between atoms: C_12  and  C_17
REMARK    9  A    between atoms: C_12  and  C_18
REMARK   10  A    between atoms: C_15  and  C_21
REMARK   11  A    between atoms: C_16  and  C_24
REMARK   12  A    between atoms: C_26  and  C_27
REMARK                            x       y       z     vdW  Elec       q    Type
REMARK                         _______ _______ _______ _____ _____    ______ ____
ROOT
ATOM      8  C   UNL     1     -14.712   8.091  21.308  0.00  0.00    +0.000 C 
ATOM      9  C   UNL     1     -13.266   7.786  20.843  0.00  0.00    +0.029 C 
ATOM     10  C   UNL     1     -14.913   7.644  22.764  0.00  0.00    +0.012 C 
ATOM     11  C   UNL     1     -14.646   6.139  22.953  0.00  0.00    +0.024 C 
ATOM     14  C   UNL     1     -12.748   6.461  21.353  0.00  0.00    -0.023 C 
ATOM     15  C   UNL     1     -13.357   5.706  22.284  0.00  0.00    -0.073 C 
ATOM     21  C   UNL     1     -12.760   4.405  22.742  0.00  0.00    +0.039 C 
ENDROOT
BRANCH   8  12
ATOM     12  C   UNL     1     -15.050   9.579  21.171  0.00  0.00    -0.013 C 
ATOM     17  C   UNL     1     -13.980  10.433  21.844  0.00  0.00    +0.007 C 
ATOM     18  C   UNL     1     -16.426   9.868  21.765  0.00  0.00    +0.007 C 
ENDBRANCH   8  12
BRANCH   9  13
ATOM     13  C   UNL     1     -13.156   7.823  19.314  0.00  0.00    +0.092 C 
BRANCH  13   4
ATOM      4  N   UNL     1     -12.158   8.803  18.892  0.00  0.00    -0.299 NA
ATOM      5  N   UNL     1     -10.760  10.360  16.896  0.00  0.00    -0.303 NA
ATOM     19  C   UNL     1     -12.798   9.948  18.233  0.00  0.00    +0.100 C 
ATOM     20  C   UNL     1     -11.167   8.187  18.000  0.00  0.00    +0.100 C 
ATOM     22  C   UNL     1     -11.752  10.976  17.788  0.00  0.00    +0.099 C 
ATOM     23  C   UNL     1     -10.121   9.214  17.555  0.00  0.00    +0.099 C 
ATOM     25  C   UNL     1      -9.761  11.340  16.476  0.00  0.00    +0.105 C 
ENDBRANCH  13   4
ENDBRANCH   9  13
BRANCH  11  16
ATOM     16  C   UNL     1     -15.831   5.302  22.456  0.00  0.00    +0.105 C 
BRANCH  16  24
ATOM      2  O   UNL     1     -16.530   4.513  24.656  0.00  0.00    -0.421 OA
ATOM      6  N   UNL     1     -16.092   2.877  23.194  0.00  0.00    -0.112 NA
ATOM      7  N   UNL     1     -16.474   2.294  24.387  0.00  0.00    -0.109 NA
ATOM     24  C   UNL     1     -16.140   4.173  23.397  0.00  0.00    +0.218 A 
ATOM     26  C   UNL     1     -16.719   3.285  25.211  0.00  0.00    +0.254 A 
BRANCH  26  27
ATOM     27  C   UNL     1     -17.162   3.251  26.610  0.00  0.00    +0.326 C 
BRANCH  27   3
ATOM      3  O   UNL     1     -16.112   3.696  27.473  0.00  0.00    -0.483 OA
BRANCH   3  28
ATOM      1  F   UNL     1     -14.787   0.365  31.640  0.00  0.00    -0.205 F 
ATOM     28  C   UNL     1     -15.783   2.867  28.510  0.00  0.00    +0.121 A 
ATOM     29  C   UNL     1     -16.367   1.604  28.605  0.00  0.00    +0.048 A 
ATOM     30  C   UNL     1     -14.862   3.285  29.471  0.00  0.00    +0.048 A 
ATOM     31  C   UNL     1     -16.031   0.759  29.663  0.00  0.00    +0.042 A 
ATOM     32  C   UNL     1     -14.526   2.439  30.528  0.00  0.00    +0.042 A 
ATOM     33  C   UNL     1     -15.110   1.176  30.624  0.00  0.00    +0.124 A 
ENDBRANCH   3  28
ENDBRANCH  27   3
ENDBRANCH  26  27
ENDBRANCH  16  24
ENDBRANCH  11  16
TORSDOF 8
ENDMDL
MODEL 8
REMARK VINA RESULT:      -6.5     15.808     19.127
REMARK  Name = 45784037
REMARK  12 active torsions:
REMARK  status: ('A' for Active; 'I' for Inactive)
REMARK    1  A    between atoms: O_3  and  C_27
REMARK    2  A    between atoms: O_3  and  C_28
REMARK    3  A    between atoms: N_4  and  C_13
REMARK    4  A    between atoms: N_5  and  C_25
REMARK    5  A    between atoms: C_8  and  C_12
REMARK    6  A    between atoms: C_9  and  C_13
REMARK    7  A    between atoms: C_11  and  C_16
REMARK    8  A    between atoms: C_12  and  C_17
REMARK    9  A    between atoms: C_12  and  C_18
REMARK   10  A    between atoms: C_15  and  C_21
REMARK   11  A    between atoms: C_16  and  C_24
REMARK   12  A    between atoms: C_26  and  C_27
REMARK                            x       y       z     vdW  Elec       q    Type
REMARK                         _______ _______ _______ _____ _____    ______ ____
ROOT
ATOM      8  C   UNL     1       9.998   9.646   5.899  0.00  0.00    +0.000 C 
ATOM      9  C   UNL     1       9.440   9.966   7.308  0.00  0.00    +0.029 C 
ATOM     10  C   UNL     1       9.396   8.336   5.367  0.00  0.00    +0.012 C 
ATOM     11  C   UNL     1       9.693   7.141   6.293  0.00  0.00    +0.024 C 
ATOM     14  C   UNL     1       9.295   8.739   8.179  0.00  0.00    -0.023 C 
ATOM     15  C   UNL     1       9.418   7.472   7.746  0.00  0.00    -0.073 C 
ATOM     21  C   UNL     1       9.243   6.310   8.683  0.00  0.00    +0.039 C 
ENDROOT
BRANCH   8  12
ATOM     12  C   UNL     1       9.726  10.782   4.909  0.00  0.00    -0.013 C 
ATOM     17  C   UNL     1       8.273  11.238   5.009  0.00  0.00    +0.007 C 
ATOM     18  C   UNL     1      10.056  10.338   3.486  0.00  0.00    +0.007 C 
ENDBRANCH   8  12
BRANCH   9  13
ATOM     13  C   UNL     1      10.311  11.002   8.027  0.00  0.00    +0.092 C 
BRANCH  13   4
ATOM      4  N   UNL     1       9.869  11.179   9.409  0.00  0.00    -0.299 NA
ATOM      5  N   UNL     1       9.380  12.768  11.774  0.00  0.00    -0.303 NA
ATOM     19  C   UNL     1       8.738  12.111   9.479  0.00  0.00    +0.100 C 
ATOM     20  C   UNL     1      10.974  11.648  10.254  0.00  0.00    +0.100 C 
ATOM     22  C   UNL     1       8.275  12.298  10.928  0.00  0.00    +0.099 C 
ATOM     23  C   UNL     1      10.512  11.836  11.702  0.00  0.00    +0.099 C 
ATOM     25  C   UNL     1       8.938  12.943  13.156  0.00  0.00    +0.105 C 
ENDBRANCH  13   4
ENDBRANCH   9  13
BRANCH  11  16
ATOM     16  C   UNL     1      11.130   6.641   6.106  0.00  0.00    +0.105 C 
BRANCH  16  24
ATOM      2  O   UNL     1      10.998   5.068   4.246  0.00  0.00    -0.421 OA
ATOM      6  N   UNL     1      12.000   7.004   3.739  0.00  0.00    -0.112 NA
ATOM      7  N   UNL     1      11.994   6.215   2.604  0.00  0.00    -0.109 NA
ATOM     24  C   UNL     1      11.409   6.294   4.672  0.00  0.00    +0.218 A 
ATOM     26  C   UNL     1      11.401   5.096   2.946  0.00  0.00    +0.254 A 
BRANCH  26  27
ATOM     27  C   UNL     1      11.116   3.903   2.138  0.00  0.00    +0.326 C 
BRANCH  27   3
ATOM      3  O   UNL     1      12.260   3.045   2.100  0.00  0.00    -0.483 OA
BRANCH   3  28
ATOM      1  F   UNL     1      16.180   4.350  -1.524  0.00  0.00    -0.205 F 
ATOM     28  C   UNL     1      13.235   3.369   1.199  0.00  0.00    +0.121 A 
ATOM     29  C   UNL     1      12.912   3.533  -0.148  0.00  0.00    +0.048 A 
ATOM     30  C   UNL     1      14.552   3.538   1.626  0.00  0.00    +0.048 A 
ATOM     31  C   UNL     1      13.907   3.865  -1.068  0.00  0.00    +0.042 A 
ATOM     32  C   UNL     1      15.547   3.869   0.706  0.00  0.00    +0.042 A 
ATOM     33  C   UNL     1      15.224   4.033  -0.641  0.00  0.00    +0.124 A 
ENDBRANCH   3  28
ENDBRANCH  27   3
ENDBRANCH  26  27
ENDBRANCH  16  24
ENDBRANCH  11  16
TORSDOF 8
ENDMDL
MODEL 9
REMARK VINA RESULT:      -6.4     29.081     31.636
REMARK  Name = 45784037
REMARK  12 active torsions:
REMARK  status: ('A' for Active; 'I' for Inactive)
REMARK    1  A    between atoms: O_3  and  C_27
REMARK    2  A    between atoms: O_3  and  C_28
REMARK    3  A    between atoms: N_4  and  C_13
REMARK    4  A    between atoms: N_5  and  C_25
REMARK    5  A    between atoms: C_8  and  C_12
REMARK    6  A    between atoms: C_9  and  C_13
REMARK    7  A    between atoms: C_11  and  C_16
REMARK    8  A    between atoms: C_12  and  C_17
REMARK    9  A    between atoms: C_12  and  C_18
REMARK   10  A    between atoms: C_15  and  C_21
REMARK   11  A    between atoms: C_16  and  C_24
REMARK   12  A    between atoms: C_26  and  C_27
REMARK                            x       y       z     vdW  Elec       q    Type
REMARK                         _______ _______ _______ _____ _____    ______ ____
ROOT
ATOM      8  C   UNL     1      -6.684  -9.763   9.920  0.00  0.00    +0.000 C 
ATOM      9  C   UNL     1      -5.883  -9.232   8.705  0.00  0.00    +0.029 C 
ATOM     10  C   UNL     1      -6.127  -9.181  11.227  0.00  0.00    +0.012 C 
ATOM     11  C   UNL     1      -4.640  -9.530  11.433  0.00  0.00    +0.024 C 
ATOM     14  C   UNL     1      -4.398  -9.139   8.972  0.00  0.00    -0.023 C 
ATOM     15  C   UNL     1      -3.825  -9.282  10.180  0.00  0.00    -0.073 C 
ATOM     21  C   UNL     1      -2.337  -9.159  10.354  0.00  0.00    +0.039 C 
ENDROOT
BRANCH   8  12
ATOM     12  C   UNL     1      -8.176  -9.438   9.801  0.00  0.00    -0.013 C 
ATOM     17  C   UNL     1      -8.372  -8.012   9.293  0.00  0.00    +0.007 C 
ATOM     18  C   UNL     1      -8.871  -9.633  11.146  0.00  0.00    +0.007 C 
ENDBRANCH   8  12
BRANCH   9  13
ATOM     13  C   UNL     1      -6.125 -10.094   7.461  0.00  0.00    +0.092 C 
BRANCH  13   4
ATOM      4  N   UNL     1      -5.067 -11.091   7.310  0.00  0.00    -0.299 NA
ATOM      5  N   UNL     1      -4.032 -13.629   6.390  0.00  0.00    -0.303 NA
ATOM     19  C   UNL     1      -4.767 -11.322   5.893  0.00  0.00    +0.100 C 
ATOM     20  C   UNL     1      -5.441 -12.351   7.967  0.00  0.00    +0.100 C 
ATOM     22  C   UNL     1      -3.659 -12.369   5.734  0.00  0.00    +0.099 C 
ATOM     23  C   UNL     1      -4.335 -13.398   7.808  0.00  0.00    +0.099 C 
ATOM     25  C   UNL     1      -2.973 -14.625   6.241  0.00  0.00    +0.105 C 
ENDBRANCH  13   4
ENDBRANCH   9  13
BRANCH  11  16
ATOM     16  C   UNL     1      -4.475 -10.974  11.920  0.00  0.00    +0.105 C 
BRANCH  16  24
ATOM      2  O   UNL     1      -4.192 -10.831  14.339  0.00  0.00    -0.421 OA
ATOM      6  N   UNL     1      -2.308 -11.291  13.223  0.00  0.00    -0.112 NA
ATOM      7  N   UNL     1      -2.005 -11.240  14.570  0.00  0.00    -0.109 NA
ATOM     24  C   UNL     1      -3.595 -11.046  13.135  0.00  0.00    +0.218 A 
ATOM     26  C   UNL     1      -3.133 -10.969  15.183  0.00  0.00    +0.254 A 
BRANCH  26  27
ATOM     27  C   UNL     1      -3.403 -10.803  16.617  0.00  0.00    +0.326 C 
BRANCH  27   3
ATOM      3  O   UNL     1      -4.539  -9.956  16.813  0.00  0.00    -0.483 OA
BRANCH   3  28
ATOM      1  F   UNL     1      -8.505 -11.891  20.087  0.00  0.00    -0.205 F 
ATOM     28  C   UNL     1      -5.525 -10.437  17.627  0.00  0.00    +0.121 A 
ATOM     29  C   UNL     1      -5.198 -10.998  18.862  0.00  0.00    +0.048 A 
ATOM     30  C   UNL     1      -6.858 -10.368  17.223  0.00  0.00    +0.048 A 
ATOM     31  C   UNL     1      -6.205 -11.489  19.693  0.00  0.00    +0.042 A 
ATOM     32  C   UNL     1      -7.865 -10.859  18.055  0.00  0.00    +0.042 A 
ATOM     33  C   UNL     1      -7.538 -11.419  19.290  0.00  0.00    +0.124 A 
ENDBRANCH   3  28
ENDBRANCH  27   3
ENDBRANCH  26  27
ENDBRANCH  16  24
ENDBRANCH  11  16
TORSDOF 8
ENDMDL
MODEL 10
REMARK VINA RESULT:      -6.4     13.984     15.497
REMARK  Name = 45784037
REMARK  12 active torsions:
REMARK  status: ('A' for Active; 'I' for Inactive)
REMARK    1  A    between atoms: O_3  and  C_27
REMARK    2  A    between atoms: O_3  and  C_28
REMARK    3  A    between atoms: N_4  and  C_13
REMARK    4  A    between atoms: N_5  and  C_25
REMARK    5  A    between atoms: C_8  and  C_12
REMARK    6  A    between atoms: C_9  and  C_13
REMARK    7  A    between atoms: C_11  and  C_16
REMARK    8  A    between atoms: C_12  and  C_17
REMARK    9  A    between atoms: C_12  and  C_18
REMARK   10  A    between atoms: C_15  and  C_21
REMARK   11  A    between atoms: C_16  and  C_24
REMARK   12  A    between atoms: C_26  and  C_27
REMARK                            x       y       z     vdW  Elec       q    Type
REMARK                         _______ _______ _______ _____ _____    ______ ____
ROOT
ATOM      8  C   UNL     1      14.642  -5.421  30.286  0.00  0.00    +0.000 C 
ATOM      9  C   UNL     1      13.971  -5.441  31.682  0.00  0.00    +0.029 C 
ATOM     10  C   UNL     1      16.162  -5.244  30.423  0.00  0.00    +0.012 C 
ATOM     11  C   UNL     1      16.532  -3.944  31.161  0.00  0.00    +0.024 C 
ATOM     14  C   UNL     1      14.578  -4.445  32.644  0.00  0.00    -0.023 C 
ATOM     15  C   UNL     1      15.713  -3.758  32.422  0.00  0.00    -0.073 C 
ATOM     21  C   UNL     1      16.251  -2.797  33.444  0.00  0.00    +0.039 C 
ENDROOT
BRANCH   8  12
ATOM     12  C   UNL     1      14.337  -6.695  29.492  0.00  0.00    -0.013 C 
ATOM     17  C   UNL     1      14.475  -7.925  30.385  0.00  0.00    +0.007 C 
ATOM     18  C   UNL     1      15.260  -6.800  28.281  0.00  0.00    +0.007 C 
ENDBRANCH   8  12
BRANCH   9  13
ATOM     13  C   UNL     1      12.462  -5.192  31.576  0.00  0.00    +0.092 C 
BRANCH  13   4
ATOM      4  N   UNL     1      11.774  -5.673  32.772  0.00  0.00    -0.299 NA
ATOM      5  N   UNL     1       9.423  -6.522  34.225  0.00  0.00    -0.303 NA
ATOM     19  C   UNL     1      11.160  -6.983  32.528  0.00  0.00    +0.100 C 
ATOM     20  C   UNL     1      10.760  -4.707  33.214  0.00  0.00    +0.100 C 
ATOM     22  C   UNL     1      10.436  -7.488  33.781  0.00  0.00    +0.099 C 
ATOM     23  C   UNL     1      10.036  -5.211  34.466  0.00  0.00    +0.099 C 
ATOM     25  C   UNL     1       8.736  -7.003  35.421  0.00  0.00    +0.105 C 
ENDBRANCH  13   4
ENDBRANCH   9  13
BRANCH  11  16
ATOM     16  C   UNL     1      16.401  -2.728  30.237  0.00  0.00    +0.105 C 
BRANCH  16  24
ATOM      2  O   UNL     1      17.739  -2.827  28.200  0.00  0.00    -0.421 OA
ATOM      6  N   UNL     1      18.789  -1.891  29.940  0.00  0.00    -0.112 NA
ATOM      7  N   UNL     1      19.655  -1.882  28.862  0.00  0.00    -0.109 NA
ATOM     24  C   UNL     1      17.684  -2.452  29.507  0.00  0.00    +0.218 A 
ATOM     26  C   UNL     1      19.001  -2.438  27.870  0.00  0.00    +0.254 A 
BRANCH  26  27
ATOM     27  C   UNL     1      19.432  -2.686  26.488  0.00  0.00    +0.326 C 
BRANCH  27   3
ATOM      3  O   UNL     1      18.995  -1.625  25.634  0.00  0.00    -0.483 OA
BRANCH   3  28
ATOM      1  F   UNL     1      14.802  -2.758  22.267  0.00  0.00    -0.205 F 
ATOM     28  C   UNL     1      17.952  -1.907  24.797  0.00  0.00    +0.121 A 
ATOM     29  C   UNL     1      17.232  -3.091  24.954  0.00  0.00    +0.048 A 
ATOM     30  C   UNL     1      17.608  -1.010  23.785  0.00  0.00    +0.048 A 
ATOM     31  C   UNL     1      16.168  -3.379  24.099  0.00  0.00    +0.042 A 
ATOM     32  C   UNL     1      16.543  -1.297  22.931  0.00  0.00    +0.042 A 
ATOM     33  C   UNL     1      15.823  -2.482  23.088  0.00  0.00    +0.124 A 
ENDBRANCH   3  28
ENDBRANCH  27   3
ENDBRANCH  26  27
ENDBRANCH  16  24
ENDBRANCH  11  16
TORSDOF 8
ENDMDL
