MODEL 1
REMARK VINA RESULT:      -9.3      0.000      0.000
REMARK  Name = 11886262
REMARK  6 active torsions:
REMARK  status: ('A' for Active; 'I' for Inactive)
REMARK    1  A    between atoms: O_3  and  C_27
REMARK    2  A    between atoms: O_3  and  C_28
REMARK    3  A    between atoms: N_5  and  C_16
REMARK    4  A    between atoms: N_6  and  C_17
REMARK    5  A    between atoms: N_7  and  C_20
REMARK    6  A    between atoms: N_11  and  C_33
REMARK                            x       y       z     vdW  Elec       q    Type
REMARK                         _______ _______ _______ _____ _____    ______ ____
ROOT
ATOM      1  O   UNL     1      10.305   7.577  20.932  0.00  0.00    -0.370 OA
ATOM      2  O   UNL     1      13.285   7.812  21.909  0.00  0.00    -0.370 OA
ATOM     14  C   UNL     1      12.273   8.764  21.545  0.00  0.00    +0.171 C 
ATOM     15  C   UNL     1      11.490   8.182  20.384  0.00  0.00    +0.176 C 
ATOM     16  C   UNL     1      11.254   8.896  22.654  0.00  0.00    +0.131 C 
ATOM     17  C   UNL     1      12.396   7.111  19.806  0.00  0.00    +0.171 C 
ATOM     18  C   UNL     1      10.300   7.755  22.355  0.00  0.00    +0.185 C 
ATOM     19  C   UNL     1      13.248   6.702  21.003  0.00  0.00    +0.190 C 
ENDROOT
BRANCH  16   5
ATOM      4  O   UNL     1      12.369  11.466  23.304  0.00  0.00    -0.253 OA
ATOM      5  N   UNL     1      10.579  10.170  22.594  0.00  0.00    -0.292 N 
ATOM      7  N   UNL     1      10.330  12.450  22.785  0.00  0.00    -0.297 N 
ATOM     23  C   UNL     1      11.200  11.372  22.928  0.00  0.00    +0.300 C 
ATOM     36  H   UNL     1       9.591  10.188  22.361  0.00  0.00    +0.151 HD
ATOM     37  H   UNL     1       9.366  12.250  22.538  0.00  0.00    +0.151 HD
BRANCH   7  20
ATOM     20  C   UNL     1      10.709  13.816  23.063  0.00  0.00    +0.074 C 
ATOM     21  C   UNL     1      11.406  14.451  21.855  0.00  0.00    +0.022 C 
ATOM     22  C   UNL     1       9.499  14.646  23.504  0.00  0.00    +0.022 C 
ATOM     24  C   UNL     1      10.440  14.739  20.707  0.00  0.00    +0.002 C 
ATOM     25  C   UNL     1       8.535  14.932  22.353  0.00  0.00    +0.002 C 
ATOM     26  C   UNL     1       9.249  15.573  21.168  0.00  0.00    +0.000 C 
ENDBRANCH   7  20
ENDBRANCH  16   5
BRANCH  17   6
ATOM      6  N   UNL     1      13.149   7.580  18.641  0.00  0.00    -0.187 N 
ATOM      8  N   UNL     1      12.681   7.409  17.397  0.00  0.00    -0.041 NA
ATOM      9  N   UNL     1      14.652   8.450  17.341  0.00  0.00    -0.071 NA
ATOM     10  N   UNL     1      13.604   7.944  16.607  0.00  0.00    -0.020 NA
ATOM     27  C   UNL     1      14.349   8.215  18.597  0.00  0.00    +0.342 A 
BRANCH  27   3
ATOM      3  O   UNL     1      15.074   8.531  19.655  0.00  0.00    -0.423 OA
BRANCH   3  28
ATOM     28  C   UNL     1      16.249   7.868  19.982  0.00  0.00    +0.132 A 
ATOM     29  C   UNL     1      17.177   8.471  20.831  0.00  0.00    +0.048 A 
ATOM     30  C   UNL     1      16.501   6.599  19.461  0.00  0.00    +0.048 A 
ATOM     31  C   UNL     1      18.358   7.805  21.158  0.00  0.00    +0.031 A 
ATOM     32  C   UNL     1      17.682   5.933  19.789  0.00  0.00    +0.031 A 
ATOM     33  C   UNL     1      18.610   6.536  20.637  0.00  0.00    +0.067 A 
BRANCH  33  11
ATOM     11  N   UNL     1      19.782   5.875  20.962  0.00  0.00    -0.220 N 
ATOM     12  N   UNL     1      20.299   4.924  20.169  0.00  0.00    -0.154 NA
ATOM     13  N   UNL     1      21.585   5.262  22.031  0.00  0.00    -0.222 NA
ATOM     34  C   UNL     1      20.551   6.069  22.066  0.00  0.00    +0.225 A 
ATOM     35  C   UNL     1      21.390   4.585  20.860  0.00  0.00    +0.245 A 
ENDBRANCH  33  11
ENDBRANCH   3  28
ENDBRANCH  27   3
ENDBRANCH  17   6
TORSDOF 6
ENDMDL
MODEL 2
REMARK VINA RESULT:      -7.9     27.350     30.355
REMARK  Name = 11886262
REMARK  6 active torsions:
REMARK  status: ('A' for Active; 'I' for Inactive)
REMARK    1  A    between atoms: O_3  and  C_27
REMARK    2  A    between atoms: O_3  and  C_28
REMARK    3  A    between atoms: N_5  and  C_16
REMARK    4  A    between atoms: N_6  and  C_17
REMARK    5  A    between atoms: N_7  and  C_20
REMARK    6  A    between atoms: N_11  and  C_33
REMARK                            x       y       z     vdW  Elec       q    Type
REMARK                         _______ _______ _______ _____ _____    ______ ____
ROOT
ATOM      1  O   UNL     1      -4.062  -9.885  16.975  0.00  0.00    -0.370 OA
ATOM      2  O   UNL     1      -4.636 -12.904  17.644  0.00  0.00    -0.370 OA
ATOM     14  C   UNL     1      -4.980 -12.038  16.550  0.00  0.00    +0.171 C 
ATOM     15  C   UNL     1      -5.263 -10.663  17.124  0.00  0.00    +0.176 C 
ATOM     16  C   UNL     1      -3.783 -11.829  15.652  0.00  0.00    +0.131 C 
ATOM     17  C   UNL     1      -5.540 -10.908  18.595  0.00  0.00    +0.171 C 
ATOM     18  C   UNL     1      -3.058 -10.687  16.338  0.00  0.00    +0.185 C 
ATOM     19  C   UNL     1      -4.763 -12.189  18.881  0.00  0.00    +0.190 C 
ENDROOT
BRANCH  16   5
ATOM      4  O   UNL     1      -2.128 -11.779  13.300  0.00  0.00    -0.253 OA
ATOM      5  N   UNL     1      -4.190 -11.461  14.317  0.00  0.00    -0.292 N 
ATOM      7  N   UNL     1      -3.960 -11.071  12.061  0.00  0.00    -0.297 N 
ATOM     23  C   UNL     1      -3.316 -11.466  13.231  0.00  0.00    +0.300 C 
ATOM     36  H   UNL     1      -5.136 -11.122  14.172  0.00  0.00    +0.151 HD
ATOM     37  H   UNL     1      -4.925 -10.765  12.131  0.00  0.00    +0.151 HD
BRANCH   7  20
ATOM     20  C   UNL     1      -3.293 -10.986  10.781  0.00  0.00    +0.074 C 
ATOM     21  C   UNL     1      -4.126 -11.652   9.681  0.00  0.00    +0.022 C 
ATOM     22  C   UNL     1      -2.967  -9.531  10.426  0.00  0.00    +0.022 C 
ATOM     24  C   UNL     1      -5.369 -10.842   9.316  0.00  0.00    +0.002 C 
ATOM     25  C   UNL     1      -4.213  -8.724  10.061  0.00  0.00    +0.002 C 
ATOM     26  C   UNL     1      -5.018  -9.402   8.957  0.00  0.00    +0.000 C 
ENDBRANCH   7  20
ENDBRANCH  16   5
BRANCH  17   6
ATOM      6  N   UNL     1      -6.973 -10.972  18.895  0.00  0.00    -0.187 N 
ATOM      8  N   UNL     1      -7.455 -11.836  19.799  0.00  0.00    -0.041 NA
ATOM      9  N   UNL     1      -9.114 -10.632  18.923  0.00  0.00    -0.071 NA
ATOM     10  N   UNL     1      -8.765 -11.623  19.812  0.00  0.00    -0.020 NA
ATOM     27  C   UNL     1      -7.990 -10.244  18.367  0.00  0.00    +0.342 A 
BRANCH  27   3
ATOM      3  O   UNL     1      -7.848  -9.306  17.448  0.00  0.00    -0.423 OA
BRANCH   3  28
ATOM     28  C   UNL     1      -8.924  -8.776  16.748  0.00  0.00    +0.132 A 
ATOM     29  C   UNL     1      -9.711  -7.782  17.330  0.00  0.00    +0.048 A 
ATOM     30  C   UNL     1      -9.216  -9.237  15.465  0.00  0.00    +0.048 A 
ATOM     31  C   UNL     1     -10.792  -7.250  16.627  0.00  0.00    +0.031 A 
ATOM     32  C   UNL     1     -10.297  -8.704  14.762  0.00  0.00    +0.031 A 
ATOM     33  C   UNL     1     -11.085  -7.711  15.344  0.00  0.00    +0.067 A 
BRANCH  33  11
ATOM     11  N   UNL     1     -12.157  -7.183  14.647  0.00  0.00    -0.220 N 
ATOM     12  N   UNL     1     -13.055  -6.377  15.236  0.00  0.00    -0.154 NA
ATOM     13  N   UNL     1     -13.548  -6.717  13.028  0.00  0.00    -0.222 NA
ATOM     34  C   UNL     1     -12.459  -7.380  13.336  0.00  0.00    +0.225 A 
ATOM     35  C   UNL     1     -13.875  -6.123  14.214  0.00  0.00    +0.245 A 
ENDBRANCH  33  11
ENDBRANCH   3  28
ENDBRANCH  27   3
ENDBRANCH  17   6
TORSDOF 6
ENDMDL
MODEL 3
REMARK VINA RESULT:      -7.8     27.003     29.214
REMARK  Name = 11886262
REMARK  6 active torsions:
REMARK  status: ('A' for Active; 'I' for Inactive)
REMARK    1  A    between atoms: O_3  and  C_27
REMARK    2  A    between atoms: O_3  and  C_28
REMARK    3  A    between atoms: N_5  and  C_16
REMARK    4  A    between atoms: N_6  and  C_17
REMARK    5  A    between atoms: N_7  and  C_20
REMARK    6  A    between atoms: N_11  and  C_33
REMARK                            x       y       z     vdW  Elec       q    Type
REMARK                         _______ _______ _______ _____ _____    ______ ____
ROOT
ATOM      1  O   UNL     1      -6.631 -11.849  15.840  0.00  0.00    -0.370 OA
ATOM      2  O   UNL     1      -4.818 -10.692  18.135  0.00  0.00    -0.370 OA
ATOM     14  C   UNL     1      -5.677 -10.104  17.144  0.00  0.00    +0.171 C 
ATOM     15  C   UNL     1      -5.535 -10.917  15.872  0.00  0.00    +0.176 C 
ATOM     16  C   UNL     1      -7.126 -10.275  17.539  0.00  0.00    +0.131 C 
ATOM     17  C   UNL     1      -4.226 -11.665  16.036  0.00  0.00    +0.171 C 
ATOM     18  C   UNL     1      -7.445 -11.659  17.006  0.00  0.00    +0.185 C 
ATOM     19  C   UNL     1      -4.081 -11.773  17.550  0.00  0.00    +0.190 C 
ENDROOT
BRANCH  16   5
ATOM      4  O   UNL     1      -9.818  -9.579  18.273  0.00  0.00    -0.253 OA
ATOM      5  N   UNL     1      -7.958  -9.273  16.918  0.00  0.00    -0.292 N 
ATOM      7  N   UNL     1      -9.839  -7.991  16.577  0.00  0.00    -0.297 N 
ATOM     23  C   UNL     1      -9.257  -9.000  17.342  0.00  0.00    +0.300 C 
ATOM     36  H   UNL     1      -7.608  -8.788  16.097  0.00  0.00    +0.151 HD
ATOM     37  H   UNL     1      -9.312  -7.633  15.787  0.00  0.00    +0.151 HD
BRANCH   7  20
ATOM     20  C   UNL     1     -11.183  -7.507  16.797  0.00  0.00    +0.074 C 
ATOM     21  C   UNL     1     -11.322  -6.048  16.349  0.00  0.00    +0.022 C 
ATOM     22  C   UNL     1     -12.213  -8.402  16.099  0.00  0.00    +0.022 C 
ATOM     24  C   UNL     1     -11.298  -5.898  14.828  0.00  0.00    +0.002 C 
ATOM     25  C   UNL     1     -12.186  -8.249  14.579  0.00  0.00    +0.002 C 
ATOM     26  C   UNL     1     -12.338  -6.790  14.158  0.00  0.00    +0.000 C 
ENDBRANCH   7  20
ENDBRANCH  16   5
BRANCH  17   6
ATOM      6  N   UNL     1      -3.111 -11.004  15.353  0.00  0.00    -0.187 N 
ATOM      8  N   UNL     1      -2.188 -10.315  16.037  0.00  0.00    -0.041 NA
ATOM      9  N   UNL     1      -1.732 -10.256  13.855  0.00  0.00    -0.071 NA
ATOM     10  N   UNL     1      -1.347  -9.861  15.116  0.00  0.00    -0.020 NA
ATOM     27  C   UNL     1      -2.826 -10.962  14.025  0.00  0.00    +0.342 A 
BRANCH  27   3
ATOM      3  O   UNL     1      -3.545 -11.543  13.082  0.00  0.00    -0.423 OA
BRANCH   3  28
ATOM     28  C   UNL     1      -4.451 -10.844  12.296  0.00  0.00    +0.132 A 
ATOM     29  C   UNL     1      -3.993  -9.898  11.378  0.00  0.00    +0.048 A 
ATOM     30  C   UNL     1      -5.818 -11.089  12.424  0.00  0.00    +0.048 A 
ATOM     31  C   UNL     1      -4.904  -9.195  10.589  0.00  0.00    +0.031 A 
ATOM     32  C   UNL     1      -6.728 -10.386  11.634  0.00  0.00    +0.031 A 
ATOM     33  C   UNL     1      -6.271  -9.439  10.717  0.00  0.00    +0.067 A 
BRANCH  33  11
ATOM     11  N   UNL     1      -7.174  -8.742   9.935  0.00  0.00    -0.220 N 
ATOM     12  N   UNL     1      -6.771  -7.891   8.979  0.00  0.00    -0.154 NA
ATOM     13  N   UNL     1      -9.053  -8.003   9.100  0.00  0.00    -0.222 NA
ATOM     34  C   UNL     1      -8.532  -8.802  10.000  0.00  0.00    +0.225 A 
ATOM     35  C   UNL     1      -7.946  -7.470   8.504  0.00  0.00    +0.245 A 
ENDBRANCH  33  11
ENDBRANCH   3  28
ENDBRANCH  27   3
ENDBRANCH  17   6
TORSDOF 6
ENDMDL
MODEL 4
REMARK VINA RESULT:      -7.7      4.122      5.732
REMARK  Name = 11886262
REMARK  6 active torsions:
REMARK  status: ('A' for Active; 'I' for Inactive)
REMARK    1  A    between atoms: O_3  and  C_27
REMARK    2  A    between atoms: O_3  and  C_28
REMARK    3  A    between atoms: N_5  and  C_16
REMARK    4  A    between atoms: N_6  and  C_17
REMARK    5  A    between atoms: N_7  and  C_20
REMARK    6  A    between atoms: N_11  and  C_33
REMARK                            x       y       z     vdW  Elec       q    Type
REMARK                         _______ _______ _______ _____ _____    ______ ____
ROOT
ATOM      1  O   UNL     1      14.184  11.683  22.662  0.00  0.00    -0.370 OA
ATOM      2  O   UNL     1      11.073  11.913  23.059  0.00  0.00    -0.370 OA
ATOM     14  C   UNL     1      12.132  11.281  23.796  0.00  0.00    +0.171 C 
ATOM     15  C   UNL     1      13.121  10.722  22.791  0.00  0.00    +0.176 C 
ATOM     16  C   UNL     1      12.923  12.314  24.565  0.00  0.00    +0.131 C 
ATOM     17  C   UNL     1      12.343  10.635  21.492  0.00  0.00    +0.171 C 
ATOM     18  C   UNL     1      13.921  12.795  23.529  0.00  0.00    +0.185 C 
ATOM     19  C   UNL     1      11.283  11.720  21.654  0.00  0.00    +0.190 C 
ENDROOT
BRANCH  16   5
ATOM      4  O   UNL     1      14.188  13.707  26.740  0.00  0.00    -0.253 OA
ATOM      5  N   UNL     1      13.593  11.721  25.698  0.00  0.00    -0.292 N 
ATOM      7  N   UNL     1      14.757  11.662  27.682  0.00  0.00    -0.297 N 
ATOM     23  C   UNL     1      14.180  12.477  26.710  0.00  0.00    +0.300 C 
ATOM     36  H   UNL     1      13.698  10.711  25.728  0.00  0.00    +0.151 HD
ATOM     37  H   UNL     1      14.756  10.660  27.521  0.00  0.00    +0.151 HD
BRANCH   7  20
ATOM     20  C   UNL     1      15.436  12.180  28.848  0.00  0.00    +0.074 C 
ATOM     21  C   UNL     1      14.906  11.528  30.129  0.00  0.00    +0.022 C 
ATOM     22  C   UNL     1      16.954  12.007  28.724  0.00  0.00    +0.022 C 
ATOM     24  C   UNL     1      15.346  10.071  30.269  0.00  0.00    +0.002 C 
ATOM     25  C   UNL     1      17.390  10.549  28.865  0.00  0.00    +0.002 C 
ATOM     26  C   UNL     1      16.860   9.926  30.152  0.00  0.00    +0.000 C 
ENDBRANCH   7  20
ENDBRANCH  16   5
BRANCH  17   6
ATOM      6  N   UNL     1      11.820   9.291  21.237  0.00  0.00    -0.187 N 
ATOM      8  N   UNL     1      10.757   8.822  21.905  0.00  0.00    -0.041 NA
ATOM      9  N   UNL     1      11.502   7.288  20.468  0.00  0.00    -0.071 NA
ATOM     10  N   UNL     1      10.566   7.597  21.430  0.00  0.00    -0.020 NA
ATOM     27  C   UNL     1      12.266   8.350  20.366  0.00  0.00    +0.342 A 
BRANCH  27   3
ATOM      3  O   UNL     1      13.301   8.501  19.559  0.00  0.00    -0.423 OA
BRANCH   3  28
ATOM     28  C   UNL     1      14.571   8.039  19.878  0.00  0.00    +0.132 A 
ATOM     29  C   UNL     1      14.999   6.797  19.409  0.00  0.00    +0.048 A 
ATOM     30  C   UNL     1      15.418   8.817  20.665  0.00  0.00    +0.048 A 
ATOM     31  C   UNL     1      16.274   6.332  19.731  0.00  0.00    +0.031 A 
ATOM     32  C   UNL     1      16.694   8.353  20.986  0.00  0.00    +0.031 A 
ATOM     33  C   UNL     1      17.122   7.110  20.519  0.00  0.00    +0.067 A 
BRANCH  33  11
ATOM     11  N   UNL     1      18.387   6.650  20.837  0.00  0.00    -0.220 N 
ATOM     12  N   UNL     1      19.052   7.098  21.913  0.00  0.00    -0.154 NA
ATOM     13  N   UNL     1      20.269   5.543  20.758  0.00  0.00    -0.222 NA
ATOM     34  C   UNL     1      19.118   5.727  20.155  0.00  0.00    +0.225 A 
ATOM     35  C   UNL     1      20.184   6.396  21.821  0.00  0.00    +0.245 A 
ENDBRANCH  33  11
ENDBRANCH   3  28
ENDBRANCH  27   3
ENDBRANCH  17   6
TORSDOF 6
ENDMDL
MODEL 5
REMARK VINA RESULT:      -7.5     27.510     29.552
REMARK  Name = 11886262
REMARK  6 active torsions:
REMARK  status: ('A' for Active; 'I' for Inactive)
REMARK    1  A    between atoms: O_3  and  C_27
REMARK    2  A    between atoms: O_3  and  C_28
REMARK    3  A    between atoms: N_5  and  C_16
REMARK    4  A    between atoms: N_6  and  C_17
REMARK    5  A    between atoms: N_7  and  C_20
REMARK    6  A    between atoms: N_11  and  C_33
REMARK                            x       y       z     vdW  Elec       q    Type
REMARK                         _______ _______ _______ _____ _____    ______ ____
ROOT
ATOM      1  O   UNL     1      -6.466 -11.876  14.283  0.00  0.00    -0.370 OA
ATOM      2  O   UNL     1      -4.172 -10.760  16.121  0.00  0.00    -0.370 OA
ATOM     14  C   UNL     1      -5.254 -10.157  15.394  0.00  0.00    +0.171 C 
ATOM     15  C   UNL     1      -5.412 -10.916  14.091  0.00  0.00    +0.176 C 
ATOM     16  C   UNL     1      -6.561 -10.384  16.119  0.00  0.00    +0.131 C 
ATOM     17  C   UNL     1      -4.089 -11.634  13.900  0.00  0.00    +0.171 C 
ATOM     18  C   UNL     1      -6.977 -11.754  15.618  0.00  0.00    +0.185 C 
ATOM     19  C   UNL     1      -3.579 -11.797  15.328  0.00  0.00    +0.190 C 
ENDROOT
BRANCH  16   5
ATOM      4  O   UNL     1      -8.673  -9.368  17.786  0.00  0.00    -0.253 OA
ATOM      5  N   UNL     1      -7.536  -9.381  15.763  0.00  0.00    -0.292 N 
ATOM      7  N   UNL     1      -9.336  -7.976  16.049  0.00  0.00    -0.297 N 
ATOM     23  C   UNL     1      -8.529  -8.946  16.639  0.00  0.00    +0.300 C 
ATOM     36  H   UNL     1      -7.542  -9.021  14.813  0.00  0.00    +0.151 HD
ATOM     37  H   UNL     1      -9.173  -7.754  15.072  0.00  0.00    +0.151 HD
BRANCH   7  20
ATOM     20  C   UNL     1     -10.445  -7.348  16.731  0.00  0.00    +0.074 C 
ATOM     21  C   UNL     1     -10.911  -6.094  15.985  0.00  0.00    +0.022 C 
ATOM     22  C   UNL     1     -11.600  -8.337  16.931  0.00  0.00    +0.022 C 
ATOM     24  C   UNL     1     -11.636  -6.424  14.680  0.00  0.00    +0.002 C 
ATOM     25  C   UNL     1     -12.322  -8.664  15.624  0.00  0.00    +0.002 C 
ATOM     26  C   UNL     1     -12.785  -7.401  14.906  0.00  0.00    +0.000 C 
ENDBRANCH   7  20
ENDBRANCH  16   5
BRANCH  17   6
ATOM      6  N   UNL     1      -3.185 -10.917  12.997  0.00  0.00    -0.187 N 
ATOM      8  N   UNL     1      -2.096 -10.289  13.461  0.00  0.00    -0.041 NA
ATOM      9  N   UNL     1      -2.243 -10.043  11.250  0.00  0.00    -0.071 NA
ATOM     10  N   UNL     1      -1.524  -9.757  12.388  0.00  0.00    -0.020 NA
ATOM     27  C   UNL     1      -3.266 -10.762  11.651  0.00  0.00    +0.342 A 
BRANCH  27   3
ATOM      3  O   UNL     1      -4.226 -11.260  10.892  0.00  0.00    -0.423 OA
BRANCH   3  28
ATOM     28  C   UNL     1      -5.055 -10.461  10.115  0.00  0.00    +0.132 A 
ATOM     29  C   UNL     1      -5.898  -9.533  10.724  0.00  0.00    +0.048 A 
ATOM     30  C   UNL     1      -5.043 -10.589   8.727  0.00  0.00    +0.048 A 
ATOM     31  C   UNL     1      -6.732  -8.731   9.943  0.00  0.00    +0.031 A 
ATOM     32  C   UNL     1      -5.876  -9.787   7.946  0.00  0.00    +0.031 A 
ATOM     33  C   UNL     1      -6.721  -8.859   8.554  0.00  0.00    +0.067 A 
BRANCH  33  11
ATOM     11  N   UNL     1      -7.547  -8.064   7.780  0.00  0.00    -0.220 N 
ATOM     12  N   UNL     1      -7.674  -8.254   6.458  0.00  0.00    -0.154 NA
ATOM     13  N   UNL     1      -8.966  -6.513   7.186  0.00  0.00    -0.222 NA
ATOM     34  C   UNL     1      -8.317  -7.027   8.205  0.00  0.00    +0.225 A 
ATOM     35  C   UNL     1      -8.544  -7.291   6.146  0.00  0.00    +0.245 A 
ENDBRANCH  33  11
ENDBRANCH   3  28
ENDBRANCH  27   3
ENDBRANCH  17   6
TORSDOF 6
ENDMDL
MODEL 6
REMARK VINA RESULT:      -7.3     14.487     18.077
REMARK  Name = 11886262
REMARK  6 active torsions:
REMARK  status: ('A' for Active; 'I' for Inactive)
REMARK    1  A    between atoms: O_3  and  C_27
REMARK    2  A    between atoms: O_3  and  C_28
REMARK    3  A    between atoms: N_5  and  C_16
REMARK    4  A    between atoms: N_6  and  C_17
REMARK    5  A    between atoms: N_7  and  C_20
REMARK    6  A    between atoms: N_11  and  C_33
REMARK                            x       y       z     vdW  Elec       q    Type
REMARK                         _______ _______ _______ _____ _____    ______ ____
ROOT
ATOM      1  O   UNL     1      12.585   8.860   4.646  0.00  0.00    -0.370 OA
ATOM      2  O   UNL     1      12.110   9.460   7.696  0.00  0.00    -0.370 OA
ATOM     14  C   UNL     1      13.129   8.765   6.960  0.00  0.00    +0.171 C 
ATOM     15  C   UNL     1      12.453   8.034   5.816  0.00  0.00    +0.176 C 
ATOM     16  C   UNL     1      14.048   9.754   6.279  0.00  0.00    +0.131 C 
ATOM     17  C   UNL     1      10.994   7.946   6.224  0.00  0.00    +0.171 C 
ATOM     18  C   UNL     1      13.307  10.051   4.989  0.00  0.00    +0.185 C 
ATOM     19  C   UNL     1      10.823   9.149   7.145  0.00  0.00    +0.190 C 
ENDROOT
BRANCH  16   5
ATOM      4  O   UNL     1      16.483  11.160   5.677  0.00  0.00    -0.253 OA
ATOM      5  N   UNL     1      15.341   9.169   6.015  0.00  0.00    -0.292 N 
ATOM      7  N   UNL     1      17.587   9.123   5.517  0.00  0.00    -0.297 N 
ATOM     23  C   UNL     1      16.472   9.931   5.731  0.00  0.00    +0.300 C 
ATOM     36  H   UNL     1      15.418   8.157   5.971  0.00  0.00    +0.151 HD
ATOM     37  H   UNL     1      17.449   8.117   5.514  0.00  0.00    +0.151 HD
BRANCH   7  20
ATOM     20  C   UNL     1      18.896   9.648   5.203  0.00  0.00    +0.074 C 
ATOM     21  C   UNL     1      19.746   9.802   6.469  0.00  0.00    +0.022 C 
ATOM     22  C   UNL     1      19.605   8.775   4.162  0.00  0.00    +0.022 C 
ATOM     24  C   UNL     1      20.197   8.457   7.037  0.00  0.00    +0.002 C 
ATOM     25  C   UNL     1      20.056   7.431   4.734  0.00  0.00    +0.002 C 
ATOM     26  C   UNL     1      20.908   7.611   5.986  0.00  0.00    +0.000 C 
ENDBRANCH   7  20
ENDBRANCH  16   5
BRANCH  17   6
ATOM      6  N   UNL     1      10.655   6.653   6.824  0.00  0.00    -0.187 N 
ATOM      8  N   UNL     1      11.088   6.321   8.047  0.00  0.00    -0.041 NA
ATOM      9  N   UNL     1       9.865   4.666   7.187  0.00  0.00    -0.071 NA
ATOM     10  N   UNL     1      10.601   5.105   8.265  0.00  0.00    -0.020 NA
ATOM     27  C   UNL     1       9.912   5.640   6.308  0.00  0.00    +0.342 A 
BRANCH  27   3
ATOM      3  O   UNL     1       9.342   5.654   5.117  0.00  0.00    -0.423 OA
BRANCH   3  28
ATOM     28  C   UNL     1      10.043   5.385   3.949  0.00  0.00    +0.132 A 
ATOM     29  C   UNL     1      10.098   6.340   2.934  0.00  0.00    +0.048 A 
ATOM     30  C   UNL     1      10.691   4.161   3.792  0.00  0.00    +0.048 A 
ATOM     31  C   UNL     1      10.802   6.069   1.760  0.00  0.00    +0.031 A 
ATOM     32  C   UNL     1      11.395   3.890   2.619  0.00  0.00    +0.031 A 
ATOM     33  C   UNL     1      11.450   4.845   1.603  0.00  0.00    +0.067 A 
BRANCH  33  11
ATOM     11  N   UNL     1      12.148   4.576   0.439  0.00  0.00    -0.220 N 
ATOM     12  N   UNL     1      12.988   3.534   0.343  0.00  0.00    -0.154 NA
ATOM     13  N   UNL     1      12.898   4.725  -1.608  0.00  0.00    -0.222 NA
ATOM     34  C   UNL     1      12.101   5.279  -0.724  0.00  0.00    +0.225 A 
ATOM     35  C   UNL     1      13.415   3.668  -0.915  0.00  0.00    +0.245 A 
ENDBRANCH  33  11
ENDBRANCH   3  28
ENDBRANCH  27   3
ENDBRANCH  17   6
TORSDOF 6
ENDMDL
MODEL 7
REMARK VINA RESULT:      -7.3     14.626     17.939
REMARK  Name = 11886262
REMARK  6 active torsions:
REMARK  status: ('A' for Active; 'I' for Inactive)
REMARK    1  A    between atoms: O_3  and  C_27
REMARK    2  A    between atoms: O_3  and  C_28
REMARK    3  A    between atoms: N_5  and  C_16
REMARK    4  A    between atoms: N_6  and  C_17
REMARK    5  A    between atoms: N_7  and  C_20
REMARK    6  A    between atoms: N_11  and  C_33
REMARK                            x       y       z     vdW  Elec       q    Type
REMARK                         _______ _______ _______ _____ _____    ______ ____
ROOT
ATOM      1  O   UNL     1      10.705   6.114   6.261  0.00  0.00    -0.370 OA
ATOM      2  O   UNL     1       8.385   7.358   4.540  0.00  0.00    -0.370 OA
ATOM     14  C   UNL     1       9.791   7.151   4.326  0.00  0.00    +0.171 C 
ATOM     15  C   UNL     1      10.498   7.397   5.644  0.00  0.00    +0.176 C 
ATOM     16  C   UNL     1      10.065   5.696   4.020  0.00  0.00    +0.131 C 
ATOM     17  C   UNL     1       9.515   8.212   6.464  0.00  0.00    +0.171 C 
ATOM     18  C   UNL     1      10.179   5.090   5.406  0.00  0.00    +0.185 C 
ATOM     19  C   UNL     1       8.165   7.800   5.887  0.00  0.00    +0.190 C 
ENDROOT
BRANCH  16   5
ATOM      4  O   UNL     1      11.030   3.292   2.771  0.00  0.00    -0.253 OA
ATOM      5  N   UNL     1      11.294   5.541   3.280  0.00  0.00    -0.292 N 
ATOM      7  N   UNL     1      12.907   4.454   2.050  0.00  0.00    -0.297 N 
ATOM     23  C   UNL     1      11.684   4.333   2.705  0.00  0.00    +0.300 C 
ATOM     36  H   UNL     1      11.935   6.327   3.229  0.00  0.00    +0.151 HD
ATOM     37  H   UNL     1      13.396   5.341   2.120  0.00  0.00    +0.151 HD
BRANCH   7  20
ATOM     20  C   UNL     1      13.550   3.356   1.365  0.00  0.00    +0.074 C 
ATOM     21  C   UNL     1      13.018   3.212  -0.065  0.00  0.00    +0.022 C 
ATOM     22  C   UNL     1      15.074   3.516   1.376  0.00  0.00    +0.022 C 
ATOM     24  C   UNL     1      13.500   4.335  -0.984  0.00  0.00    +0.002 C 
ATOM     25  C   UNL     1      15.552   4.639   0.456  0.00  0.00    +0.002 C 
ATOM     26  C   UNL     1      15.019   4.468  -0.963  0.00  0.00    +0.000 C 
ENDBRANCH   7  20
ENDBRANCH  16   5
BRANCH  17   6
ATOM      6  N   UNL     1       9.797   9.649   6.415  0.00  0.00    -0.187 N 
ATOM      8  N   UNL     1       8.985  10.494   5.766  0.00  0.00    -0.041 NA
ATOM      9  N   UNL     1      10.692  11.607   6.670  0.00  0.00    -0.071 NA
ATOM     10  N   UNL     1       9.537  11.690   5.926  0.00  0.00    -0.020 NA
ATOM     27  C   UNL     1      10.834  10.335   6.962  0.00  0.00    +0.342 A 
BRANCH  27   3
ATOM      3  O   UNL     1      11.810   9.792   7.665  0.00  0.00    -0.423 OA
BRANCH   3  28
ATOM     28  C   UNL     1      13.064   9.531   7.128  0.00  0.00    +0.132 A 
ATOM     29  C   UNL     1      13.929  10.585   6.835  0.00  0.00    +0.048 A 
ATOM     30  C   UNL     1      13.456   8.216   6.881  0.00  0.00    +0.048 A 
ATOM     31  C   UNL     1      15.188  10.323   6.293  0.00  0.00    +0.031 A 
ATOM     32  C   UNL     1      14.715   7.954   6.341  0.00  0.00    +0.031 A 
ATOM     33  C   UNL     1      15.581   9.007   6.047  0.00  0.00    +0.067 A 
BRANCH  33  11
ATOM     11  N   UNL     1      16.829   8.748   5.510  0.00  0.00    -0.220 N 
ATOM     12  N   UNL     1      17.957   9.119   6.134  0.00  0.00    -0.154 NA
ATOM     13  N   UNL     1      18.399   8.050   4.161  0.00  0.00    -0.222 NA
ATOM     34  C   UNL     1      17.100   8.114   4.338  0.00  0.00    +0.225 A 
ATOM     35  C   UNL     1      18.879   8.673   5.278  0.00  0.00    +0.245 A 
ENDBRANCH  33  11
ENDBRANCH   3  28
ENDBRANCH  27   3
ENDBRANCH  17   6
TORSDOF 6
ENDMDL
MODEL 8
REMARK VINA RESULT:      -7.3     21.703     24.478
REMARK  Name = 11886262
REMARK  6 active torsions:
REMARK  status: ('A' for Active; 'I' for Inactive)
REMARK    1  A    between atoms: O_3  and  C_27
REMARK    2  A    between atoms: O_3  and  C_28
REMARK    3  A    between atoms: N_5  and  C_16
REMARK    4  A    between atoms: N_6  and  C_17
REMARK    5  A    between atoms: N_7  and  C_20
REMARK    6  A    between atoms: N_11  and  C_33
REMARK                            x       y       z     vdW  Elec       q    Type
REMARK                         _______ _______ _______ _____ _____    ______ ____
ROOT
ATOM      1  O   UNL     1       7.517   6.860  -2.582  0.00  0.00    -0.370 OA
ATOM      2  O   UNL     1       9.456   6.559  -5.041  0.00  0.00    -0.370 OA
ATOM     14  C   UNL     1       8.370   5.775  -4.519  0.00  0.00    +0.171 C 
ATOM     15  C   UNL     1       8.440   5.841  -3.006  0.00  0.00    +0.176 C 
ATOM     16  C   UNL     1       7.047   6.421  -4.861  0.00  0.00    +0.131 C 
ATOM     17  C   UNL     1       9.862   6.275  -2.704  0.00  0.00    +0.171 C 
ATOM     18  C   UNL     1       6.875   7.422  -3.735  0.00  0.00    +0.185 C 
ATOM     19  C   UNL     1      10.257   7.050  -3.957  0.00  0.00    +0.190 C 
ENDROOT
BRANCH  16   5
ATOM      4  O   UNL     1       4.787   6.356  -6.639  0.00  0.00    -0.253 OA
ATOM      5  N   UNL     1       5.978   5.451  -4.865  0.00  0.00    -0.292 N 
ATOM      7  N   UNL     1       4.027   4.447  -5.557  0.00  0.00    -0.297 N 
ATOM     23  C   UNL     1       4.918   5.496  -5.768  0.00  0.00    +0.300 C 
ATOM     36  H   UNL     1       5.962   4.741  -4.139  0.00  0.00    +0.151 HD
ATOM     37  H   UNL     1       4.193   3.837  -4.763  0.00  0.00    +0.151 HD
BRANCH   7  20
ATOM     20  C   UNL     1       2.835   4.249  -6.350  0.00  0.00    +0.074 C 
ATOM     21  C   UNL     1       2.596   2.761  -6.624  0.00  0.00    +0.022 C 
ATOM     22  C   UNL     1       1.615   4.893  -5.682  0.00  0.00    +0.022 C 
ATOM     24  C   UNL     1       2.138   2.003  -5.378  0.00  0.00    +0.002 C 
ATOM     25  C   UNL     1       1.160   4.132  -4.437  0.00  0.00    +0.002 C 
ATOM     26  C   UNL     1       0.919   2.657  -4.737  0.00  0.00    +0.000 C 
ENDBRANCH   7  20
ENDBRANCH  16   5
BRANCH  17   6
ATOM      6  N   UNL     1      10.736   5.147  -2.372  0.00  0.00    -0.187 N 
ATOM      8  N   UNL     1      11.739   4.784  -3.183  0.00  0.00    -0.041 NA
ATOM      9  N   UNL     1      11.672   3.451  -1.397  0.00  0.00    -0.071 NA
ATOM     10  N   UNL     1      12.308   3.747  -2.581  0.00  0.00    -0.020 NA
ATOM     27  C   UNL     1      10.703   4.330  -1.288  0.00  0.00    +0.342 A 
BRANCH  27   3
ATOM      3  O   UNL     1       9.831   4.424  -0.301  0.00  0.00    -0.423 OA
BRANCH   3  28
ATOM     28  C   UNL     1      10.185   4.850   0.973  0.00  0.00    +0.132 A 
ATOM     29  C   UNL     1      10.626   3.926   1.919  0.00  0.00    +0.048 A 
ATOM     30  C   UNL     1      10.100   6.202   1.303  0.00  0.00    +0.048 A 
ATOM     31  C   UNL     1      10.981   4.355   3.199  0.00  0.00    +0.031 A 
ATOM     32  C   UNL     1      10.456   6.631   2.582  0.00  0.00    +0.031 A 
ATOM     33  C   UNL     1      10.896   5.707   3.530  0.00  0.00    +0.067 A 
BRANCH  33  11
ATOM     11  N   UNL     1      11.248   6.132   4.798  0.00  0.00    -0.220 N 
ATOM     12  N   UNL     1      12.315   6.919   5.009  0.00  0.00    -0.154 NA
ATOM     13  N   UNL     1      11.235   6.424   6.963  0.00  0.00    -0.222 NA
ATOM     34  C   UNL     1      10.613   5.842   5.965  0.00  0.00    +0.225 A 
ATOM     35  C   UNL     1      12.263   7.066   6.334  0.00  0.00    +0.245 A 
ENDBRANCH  33  11
ENDBRANCH   3  28
ENDBRANCH  27   3
ENDBRANCH  17   6
TORSDOF 6
ENDMDL
MODEL 9
REMARK VINA RESULT:      -7.3      3.019      6.081
REMARK  Name = 11886262
REMARK  6 active torsions:
REMARK  status: ('A' for Active; 'I' for Inactive)
REMARK    1  A    between atoms: O_3  and  C_27
REMARK    2  A    between atoms: O_3  and  C_28
REMARK    3  A    between atoms: N_5  and  C_16
REMARK    4  A    between atoms: N_6  and  C_17
REMARK    5  A    between atoms: N_7  and  C_20
REMARK    6  A    between atoms: N_11  and  C_33
REMARK                            x       y       z     vdW  Elec       q    Type
REMARK                         _______ _______ _______ _____ _____    ______ ____
ROOT
ATOM      1  O   UNL     1      13.772  11.013  19.415  0.00  0.00    -0.370 OA
ATOM      2  O   UNL     1      12.812  11.014  22.409  0.00  0.00    -0.370 OA
ATOM     14  C   UNL     1      13.964  10.494  21.728  0.00  0.00    +0.171 C 
ATOM     15  C   UNL     1      13.506   9.978  20.378  0.00  0.00    +0.176 C 
ATOM     16  C   UNL     1      14.925  11.613  21.394  0.00  0.00    +0.131 C 
ATOM     17  C   UNL     1      12.009   9.783  20.527  0.00  0.00    +0.171 C 
ATOM     18  C   UNL     1      14.372  12.133  20.081  0.00  0.00    +0.185 C 
ATOM     19  C   UNL     1      11.640  10.787  21.614  0.00  0.00    +0.190 C 
ENDROOT
BRANCH  16   5
ATOM      4  O   UNL     1      17.290  12.601  22.697  0.00  0.00    -0.253 OA
ATOM      5  N   UNL     1      16.270  11.116  21.235  0.00  0.00    -0.292 N 
ATOM      7  N   UNL     1      18.542  10.996  21.578  0.00  0.00    -0.297 N 
ATOM     23  C   UNL     1      17.362  11.658  21.910  0.00  0.00    +0.300 C 
ATOM     36  H   UNL     1      16.441  10.382  20.554  0.00  0.00    +0.151 HD
ATOM     37  H   UNL     1      18.498  10.279  20.862  0.00  0.00    +0.151 HD
BRANCH   7  20
ATOM     20  C   UNL     1      19.830  11.350  22.131  0.00  0.00    +0.074 C 
ATOM     21  C   UNL     1      20.730  10.118  22.263  0.00  0.00    +0.022 C 
ATOM     22  C   UNL     1      20.506  12.445  21.298  0.00  0.00    +0.022 C 
ATOM     24  C   UNL     1      21.225   9.607  20.910  0.00  0.00    +0.002 C 
ATOM     25  C   UNL     1      20.999  11.930  19.946  0.00  0.00    +0.002 C 
ATOM     26  C   UNL     1      21.902  10.711  20.104  0.00  0.00    +0.000 C 
ENDBRANCH   7  20
ENDBRANCH  16   5
BRANCH  17   6
ATOM      6  N   UNL     1      11.649   8.393  20.818  0.00  0.00    -0.187 N 
ATOM      8  N   UNL     1      10.710   8.096  21.726  0.00  0.00    -0.041 NA
ATOM      9  N   UNL     1      11.537   6.228  20.833  0.00  0.00    -0.071 NA
ATOM     10  N   UNL     1      10.646   6.770  21.731  0.00  0.00    -0.020 NA
ATOM     27  C   UNL     1      12.146   7.250  20.279  0.00  0.00    +0.342 A 
BRANCH  27   3
ATOM      3  O   UNL     1      13.088   7.201  19.354  0.00  0.00    -0.423 OA
BRANCH   3  28
ATOM     28  C   UNL     1      14.413   6.909  19.651  0.00  0.00    +0.132 A 
ATOM     29  C   UNL     1      15.313   6.633  18.622  0.00  0.00    +0.048 A 
ATOM     30  C   UNL     1      14.842   6.894  20.977  0.00  0.00    +0.048 A 
ATOM     31  C   UNL     1      16.643   6.339  18.920  0.00  0.00    +0.031 A 
ATOM     32  C   UNL     1      16.173   6.601  21.275  0.00  0.00    +0.031 A 
ATOM     33  C   UNL     1      17.074   6.323  20.247  0.00  0.00    +0.067 A 
BRANCH  33  11
ATOM     11  N   UNL     1      18.393   6.032  20.542  0.00  0.00    -0.220 N 
ATOM     12  N   UNL     1      19.091   5.126  19.841  0.00  0.00    -0.154 NA
ATOM     13  N   UNL     1      20.355   6.060  21.503  0.00  0.00    -0.222 NA
ATOM     34  C   UNL     1      19.152   6.582  21.529  0.00  0.00    +0.225 A 
ATOM     35  C   UNL     1      20.272   5.180  20.461  0.00  0.00    +0.245 A 
ENDBRANCH  33  11
ENDBRANCH   3  28
ENDBRANCH  27   3
ENDBRANCH  17   6
TORSDOF 6
ENDMDL
MODEL 10
REMARK VINA RESULT:      -7.2      4.919     12.244
REMARK  Name = 11886262
REMARK  6 active torsions:
REMARK  status: ('A' for Active; 'I' for Inactive)
REMARK    1  A    between atoms: O_3  and  C_27
REMARK    2  A    between atoms: O_3  and  C_28
REMARK    3  A    between atoms: N_5  and  C_16
REMARK    4  A    between atoms: N_6  and  C_17
REMARK    5  A    between atoms: N_7  and  C_20
REMARK    6  A    between atoms: N_11  and  C_33
REMARK                            x       y       z     vdW  Elec       q    Type
REMARK                         _______ _______ _______ _____ _____    ______ ____
ROOT
ATOM      1  O   UNL     1      21.240   3.518  20.996  0.00  0.00    -0.370 OA
ATOM      2  O   UNL     1      23.391   5.711  21.674  0.00  0.00    -0.370 OA
ATOM     14  C   UNL     1      22.560   4.845  22.464  0.00  0.00    +0.171 C 
ATOM     15  C   UNL     1      21.218   4.732  21.768  0.00  0.00    +0.176 C 
ATOM     16  C   UNL     1      23.109   3.436  22.448  0.00  0.00    +0.131 C 
ATOM     17  C   UNL     1      21.163   5.932  20.841  0.00  0.00    +0.171 C 
ATOM     18  C   UNL     1      22.506   2.868  21.177  0.00  0.00    +0.185 C 
ATOM     19  C   UNL     1      22.635   6.220  20.566  0.00  0.00    +0.190 C 
ENDROOT
BRANCH  16   5
ATOM      4  O   UNL     1      24.163   0.926  23.377  0.00  0.00    -0.253 OA
ATOM      5  N   UNL     1      22.677   2.694  23.608  0.00  0.00    -0.292 N 
ATOM      7  N   UNL     1      22.649   0.975  25.138  0.00  0.00    -0.297 N 
ATOM     23  C   UNL     1      23.247   1.480  23.986  0.00  0.00    +0.300 C 
ATOM     36  H   UNL     1      21.880   3.037  24.137  0.00  0.00    +0.151 HD
ATOM     37  H   UNL     1      21.853   1.478  25.517  0.00  0.00    +0.151 HD
BRANCH   7  20
ATOM     20  C   UNL     1      23.044  -0.272  25.753  0.00  0.00    +0.074 C 
ATOM     21  C   UNL     1      23.472  -0.056  27.208  0.00  0.00    +0.022 C 
ATOM     22  C   UNL     1      21.925  -1.315  25.652  0.00  0.00    +0.022 C 
ATOM     24  C   UNL     1      22.290   0.257  28.126  0.00  0.00    +0.002 C 
ATOM     25  C   UNL     1      20.745  -0.998  26.571  0.00  0.00    +0.002 C 
ATOM     26  C   UNL     1      21.195  -0.799  28.015  0.00  0.00    +0.000 C 
ENDBRANCH   7  20
ENDBRANCH  16   5
BRANCH  17   6
ATOM      6  N   UNL     1      20.408   7.050  21.412  0.00  0.00    -0.187 N 
ATOM      8  N   UNL     1      21.032   8.133  21.895  0.00  0.00    -0.041 NA
ATOM      9  N   UNL     1      18.824   8.352  22.118  0.00  0.00    -0.071 NA
ATOM     10  N   UNL     1      20.058   8.927  22.324  0.00  0.00    -0.020 NA
ATOM     27  C   UNL     1      19.065   7.192  21.552  0.00  0.00    +0.342 A 
BRANCH  27   3
ATOM      3  O   UNL     1      18.170   6.298  21.176  0.00  0.00    -0.423 OA
BRANCH   3  28
ATOM     28  C   UNL     1      16.898   6.649  20.743  0.00  0.00    +0.132 A 
ATOM     29  C   UNL     1      16.590   6.616  19.383  0.00  0.00    +0.048 A 
ATOM     30  C   UNL     1      15.929   7.036  21.669  0.00  0.00    +0.048 A 
ATOM     31  C   UNL     1      15.313   6.971  18.949  0.00  0.00    +0.031 A 
ATOM     32  C   UNL     1      14.652   7.389  21.235  0.00  0.00    +0.031 A 
ATOM     33  C   UNL     1      14.343   7.357  19.875  0.00  0.00    +0.067 A 
BRANCH  33  11
ATOM     11  N   UNL     1      13.077   7.708  19.444  0.00  0.00    -0.220 N 
ATOM     12  N   UNL     1      12.171   8.244  20.276  0.00  0.00    -0.154 NA
ATOM     13  N   UNL     1      11.338   8.018  18.157  0.00  0.00    -0.222 NA
ATOM     34  C   UNL     1      12.574   7.576  18.187  0.00  0.00    +0.225 A 
ATOM     35  C   UNL     1      11.137   8.414  19.449  0.00  0.00    +0.245 A 
ENDBRANCH  33  11
ENDBRANCH   3  28
ENDBRANCH  27   3
ENDBRANCH  17   6
TORSDOF 6
ENDMDL
