MODEL 1
REMARK VINA RESULT:      -6.8      0.000      0.000
REMARK  Name = 11879581
REMARK  10 active torsions:
REMARK  status: ('A' for Active; 'I' for Inactive)
REMARK    1  A    between atoms: S_1  and  N_7
REMARK    2  A    between atoms: S_1  and  C_21
REMARK    3  A    between atoms: O_4  and  C_20
REMARK    4  A    between atoms: O_4  and  C_24
REMARK    5  A    between atoms: N_7  and  C_16
REMARK    6  A    between atoms: N_8  and  C_17
REMARK    7  A    between atoms: N_12  and  C_31
REMARK    8  A    between atoms: N_12  and  C_34
REMARK    9  A    between atoms: N_12  and  C_35
REMARK   10  A    between atoms: C_22  and  C_29
REMARK                            x       y       z     vdW  Elec       q    Type
REMARK                         _______ _______ _______ _____ _____    ______ ____
ROOT
ATOM      2  O   UNL     1      -4.106  -9.931  16.860  0.00  0.00    -0.370 OA
ATOM      3  O   UNL     1      -4.522 -12.887  17.895  0.00  0.00    -0.370 OA
ATOM     14  C   UNL     1      -4.915 -12.166  16.715  0.00  0.00    +0.170 C 
ATOM     15  C   UNL     1      -5.258 -10.750  17.133  0.00  0.00    +0.175 C 
ATOM     16  C   UNL     1      -3.735 -12.008  15.785  0.00  0.00    +0.133 C 
ATOM     17  C   UNL     1      -5.488 -10.832  18.631  0.00  0.00    +0.171 C 
ATOM     18  C   UNL     1      -3.070 -10.746  16.295  0.00  0.00    +0.183 C 
ATOM     19  C   UNL     1      -4.643 -12.033  19.041  0.00  0.00    +0.190 C 
ENDROOT
BRANCH  17   8
ATOM      8  N   UNL     1      -6.909 -10.926  18.976  0.00  0.00    -0.187 N 
ATOM      9  N   UNL     1      -7.341 -11.825  19.865  0.00  0.00    -0.041 NA
ATOM     10  N   UNL     1      -9.045 -10.619  19.085  0.00  0.00    -0.071 NA
ATOM     11  N   UNL     1      -8.652 -11.631  19.930  0.00  0.00    -0.020 NA
ATOM     20  C   UNL     1      -7.946 -10.196  18.503  0.00  0.00    +0.342 A 
BRANCH  20   4
ATOM      4  O   UNL     1      -7.848  -9.230  17.610  0.00  0.00    -0.423 OA
BRANCH   4  24
ATOM     24  C   UNL     1      -8.661  -9.165  16.486  0.00  0.00    +0.134 A 
ATOM     28  C   UNL     1      -9.592  -8.149  16.390  0.00  0.00    +0.069 A 
ATOM     30  C   UNL     1      -8.514 -10.118  15.497  0.00  0.00    +0.046 A 
ATOM     31  C   UNL     1     -10.408  -8.084  15.261  0.00  0.00    +0.033 A 
ATOM     32  C   UNL     1      -9.330 -10.053  14.367  0.00  0.00    +0.005 A 
ATOM     33  C   UNL     1     -10.277  -9.036  14.250  0.00  0.00    +0.023 A 
BRANCH  31  12
ATOM     12  N   UNL     1     -11.366  -7.056  15.142  0.00  0.00    -0.336 N 
ATOM     34  C   UNL     1     -11.411  -5.979  16.111  0.00  0.00    +0.129 C 
ATOM     35  C   UNL     1     -12.312  -7.056  14.044  0.00  0.00    +0.129 C 
ENDBRANCH  31  12
ENDBRANCH   4  24
ENDBRANCH  20   4
ENDBRANCH  17   8
BRANCH  16   7
ATOM      7  N   UNL     1      -4.212 -11.796  14.398  0.00  0.00    -0.182 NA
ATOM     36  H   UNL     1      -5.202 -11.557  14.265  0.00  0.00    +0.148 HD
BRANCH   7   1
ATOM      1  S   UNL     1      -3.263 -12.316  13.090  0.00  0.00    +0.060 S 
ATOM      5  O   UNL     1      -3.834 -13.527  12.532  0.00  0.00    -0.153 OA
ATOM      6  O   UNL     1      -1.867 -12.282  13.483  0.00  0.00    -0.153 OA
BRANCH   1  21
ATOM     21  C   UNL     1      -3.502 -11.011  11.922  0.00  0.00    +0.123 A 
ATOM     22  C   UNL     1      -4.771 -10.660  11.485  0.00  0.00    +0.078 A 
ATOM     23  C   UNL     1      -2.375 -10.348  11.459  0.00  0.00    +0.030 A 
ATOM     25  C   UNL     1      -4.915  -9.622  10.563  0.00  0.00    +0.021 A 
ATOM     26  C   UNL     1      -2.519  -9.312  10.537  0.00  0.00    +0.002 A 
ATOM     27  C   UNL     1      -3.790  -8.949  10.089  0.00  0.00    +0.001 A 
BRANCH  22  29
ATOM     13  N   UNL     1      -6.900 -11.872  12.327  0.00  0.00    -0.191 NA
ATOM     29  C   UNL     1      -5.947 -11.330  11.950  0.00  0.00    +0.101 C 
ENDBRANCH  22  29
ENDBRANCH   1  21
ENDBRANCH   7   1
ENDBRANCH  16   7
TORSDOF 8
ENDMDL
MODEL 2
REMARK VINA RESULT:      -6.7     19.117     21.508
REMARK  Name = 11879581
REMARK  10 active torsions:
REMARK  status: ('A' for Active; 'I' for Inactive)
REMARK    1  A    between atoms: S_1  and  N_7
REMARK    2  A    between atoms: S_1  and  C_21
REMARK    3  A    between atoms: O_4  and  C_20
REMARK    4  A    between atoms: O_4  and  C_24
REMARK    5  A    between atoms: N_7  and  C_16
REMARK    6  A    between atoms: N_8  and  C_17
REMARK    7  A    between atoms: N_12  and  C_31
REMARK    8  A    between atoms: N_12  and  C_34
REMARK    9  A    between atoms: N_12  and  C_35
REMARK   10  A    between atoms: C_22  and  C_29
REMARK                            x       y       z     vdW  Elec       q    Type
REMARK                         _______ _______ _______ _____ _____    ______ ____
ROOT
ATOM      2  O   UNL     1     -17.975   3.392  23.931  0.00  0.00    -0.370 OA
ATOM      3  O   UNL     1     -14.869   3.937  24.121  0.00  0.00    -0.370 OA
ATOM     14  C   UNL     1     -15.976   4.078  25.027  0.00  0.00    +0.170 C 
ATOM     15  C   UNL     1     -17.172   4.550  24.224  0.00  0.00    +0.175 C 
ATOM     16  C   UNL     1     -16.389   2.726  25.557  0.00  0.00    +0.133 C 
ATOM     17  C   UNL     1     -16.583   5.107  22.941  0.00  0.00    +0.171 C 
ATOM     18  C   UNL     1     -17.358   2.231  24.503  0.00  0.00    +0.183 C 
ATOM     19  C   UNL     1     -15.273   4.339  22.805  0.00  0.00    +0.190 C 
ENDROOT
BRANCH  17   8
ATOM      8  N   UNL     1     -16.447   6.565  22.973  0.00  0.00    -0.187 N 
ATOM      9  N   UNL     1     -16.826   7.266  24.046  0.00  0.00    -0.041 NA
ATOM     10  N   UNL     1     -16.027   8.624  22.471  0.00  0.00    -0.071 NA
ATOM     11  N   UNL     1     -16.565   8.529  23.734  0.00  0.00    -0.020 NA
ATOM     20  C   UNL     1     -15.962   7.393  22.018  0.00  0.00    +0.342 A 
BRANCH  20   4
ATOM      4  O   UNL     1     -15.509   7.008  20.841  0.00  0.00    -0.423 OA
BRANCH   4  24
ATOM     24  C   UNL     1     -14.179   7.153  20.467  0.00  0.00    +0.134 A 
ATOM     28  C   UNL     1     -13.886   7.719  19.242  0.00  0.00    +0.069 A 
ATOM     30  C   UNL     1     -13.190   6.727  21.331  0.00  0.00    +0.046 A 
ATOM     31  C   UNL     1     -12.550   7.864  18.866  0.00  0.00    +0.033 A 
ATOM     32  C   UNL     1     -11.854   6.872  20.956  0.00  0.00    +0.005 A 
ATOM     33  C   UNL     1     -11.535   7.441  19.723  0.00  0.00    +0.023 A 
BRANCH  31  12
ATOM     12  N   UNL     1     -12.228   8.438  17.619  0.00  0.00    -0.336 N 
ATOM     34  C   UNL     1     -13.248   9.099  16.830  0.00  0.00    +0.129 C 
ATOM     35  C   UNL     1     -10.869   8.387  17.116  0.00  0.00    +0.129 C 
ENDBRANCH  31  12
ENDBRANCH   4  24
ENDBRANCH  20   4
ENDBRANCH  17   8
BRANCH  16   7
ATOM      7  N   UNL     1     -17.097   2.886  26.850  0.00  0.00    -0.182 NA
ATOM     36  H   UNL     1     -17.421   3.827  27.103  0.00  0.00    +0.148 HD
BRANCH   7   1
ATOM      1  S   UNL     1     -17.012   1.656  28.017  0.00  0.00    +0.060 S 
ATOM      5  O   UNL     1     -16.144   0.597  27.540  0.00  0.00    -0.153 OA
ATOM      6  O   UNL     1     -18.355   1.349  28.470  0.00  0.00    -0.153 OA
BRANCH   1  21
ATOM     21  C   UNL     1     -16.192   2.475  29.351  0.00  0.00    +0.123 A 
ATOM     22  C   UNL     1     -15.629   1.760  30.399  0.00  0.00    +0.078 A 
ATOM     23  C   UNL     1     -16.129   3.861  29.314  0.00  0.00    +0.030 A 
ATOM     25  C   UNL     1     -14.990   2.446  31.432  0.00  0.00    +0.021 A 
ATOM     26  C   UNL     1     -15.490   4.546  30.347  0.00  0.00    +0.002 A 
ATOM     27  C   UNL     1     -14.920   3.839  31.406  0.00  0.00    +0.001 A 
BRANCH  22  29
ATOM     13  N   UNL     1     -15.726  -0.827  30.505  0.00  0.00    -0.191 NA
ATOM     29  C   UNL     1     -15.683   0.331  30.457  0.00  0.00    +0.101 C 
ENDBRANCH  22  29
ENDBRANCH   1  21
ENDBRANCH   7   1
ENDBRANCH  16   7
TORSDOF 8
ENDMDL
MODEL 3
REMARK VINA RESULT:      -6.6      1.253      2.301
REMARK  Name = 11879581
REMARK  10 active torsions:
REMARK  status: ('A' for Active; 'I' for Inactive)
REMARK    1  A    between atoms: S_1  and  N_7
REMARK    2  A    between atoms: S_1  and  C_21
REMARK    3  A    between atoms: O_4  and  C_20
REMARK    4  A    between atoms: O_4  and  C_24
REMARK    5  A    between atoms: N_7  and  C_16
REMARK    6  A    between atoms: N_8  and  C_17
REMARK    7  A    between atoms: N_12  and  C_31
REMARK    8  A    between atoms: N_12  and  C_34
REMARK    9  A    between atoms: N_12  and  C_35
REMARK   10  A    between atoms: C_22  and  C_29
REMARK                            x       y       z     vdW  Elec       q    Type
REMARK                         _______ _______ _______ _____ _____    ______ ____
ROOT
ATOM      2  O   UNL     1      -4.181 -10.069  16.839  0.00  0.00    -0.370 OA
ATOM      3  O   UNL     1      -4.750 -13.164  17.112  0.00  0.00    -0.370 OA
ATOM     14  C   UNL     1      -5.138 -12.146  16.176  0.00  0.00    +0.170 C 
ATOM     15  C   UNL     1      -5.373 -10.867  16.956  0.00  0.00    +0.175 C 
ATOM     16  C   UNL     1      -3.986 -11.818  15.256  0.00  0.00    +0.133 C 
ATOM     17  C   UNL     1      -5.553 -11.318  18.394  0.00  0.00    +0.171 C 
ATOM     18  C   UNL     1      -3.222 -10.766  16.033  0.00  0.00    +0.183 C 
ATOM     19  C   UNL     1      -4.773 -12.627  18.441  0.00  0.00    +0.190 C 
ENDROOT
BRANCH  17   8
ATOM      8  N   UNL     1      -6.963 -11.421  18.778  0.00  0.00    -0.187 N 
ATOM      9  N   UNL     1      -7.418 -12.490  19.438  0.00  0.00    -0.041 NA
ATOM     10  N   UNL     1      -9.070 -11.040  19.069  0.00  0.00    -0.071 NA
ATOM     11  N   UNL     1      -8.711 -12.251  19.616  0.00  0.00    -0.020 NA
ATOM     20  C   UNL     1      -7.969 -10.542  18.555  0.00  0.00    +0.342 A 
BRANCH  20   4
ATOM      4  O   UNL     1      -7.843  -9.390  17.926  0.00  0.00    -0.423 OA
BRANCH   4  24
ATOM     24  C   UNL     1      -8.754  -8.955  16.973  0.00  0.00    +0.134 A 
ATOM     28  C   UNL     1      -8.676  -9.462  15.691  0.00  0.00    +0.069 A 
ATOM     30  C   UNL     1      -9.713  -8.029  17.336  0.00  0.00    +0.046 A 
ATOM     31  C   UNL     1      -9.592  -9.024  14.733  0.00  0.00    +0.033 A 
ATOM     32  C   UNL     1     -10.629  -7.592  16.379  0.00  0.00    +0.005 A 
ATOM     33  C   UNL     1     -10.568  -8.090  15.078  0.00  0.00    +0.023 A 
BRANCH  31  12
ATOM     12  N   UNL     1      -9.530  -9.527  13.417  0.00  0.00    -0.336 N 
ATOM     34  C   UNL     1     -10.716  -9.557  12.586  0.00  0.00    +0.129 C 
ATOM     35  C   UNL     1      -8.275 -10.010  12.874  0.00  0.00    +0.129 C 
ENDBRANCH  31  12
ENDBRANCH   4  24
ENDBRANCH  20   4
ENDBRANCH  17   8
BRANCH  16   7
ATOM      7  N   UNL     1      -4.499 -11.232  13.994  0.00  0.00    -0.182 NA
ATOM     36  H   UNL     1      -4.954 -10.314  14.046  0.00  0.00    +0.148 HD
BRANCH   7   1
ATOM      1  S   UNL     1      -4.679 -12.213  12.620  0.00  0.00    +0.060 S 
ATOM      5  O   UNL     1      -6.029 -12.742  12.579  0.00  0.00    -0.153 OA
ATOM      6  O   UNL     1      -3.541 -13.109  12.534  0.00  0.00    -0.153 OA
BRANCH   1  21
ATOM     21  C   UNL     1      -4.512 -11.039  11.309  0.00  0.00    +0.123 A 
ATOM     22  C   UNL     1      -3.410 -10.200  11.229  0.00  0.00    +0.078 A 
ATOM     23  C   UNL     1      -5.524 -10.986  10.361  0.00  0.00    +0.030 A 
ATOM     25  C   UNL     1      -3.318  -9.288  10.177  0.00  0.00    +0.021 A 
ATOM     26  C   UNL     1      -5.431 -10.074   9.309  0.00  0.00    +0.002 A 
ATOM     27  C   UNL     1      -4.328  -9.225   9.217  0.00  0.00    +0.001 A 
BRANCH  22  29
ATOM     13  N   UNL     1      -1.501 -10.267  12.980  0.00  0.00    -0.191 NA
ATOM     29  C   UNL     1      -2.356 -10.237  12.196  0.00  0.00    +0.101 C 
ENDBRANCH  22  29
ENDBRANCH   1  21
ENDBRANCH   7   1
ENDBRANCH  16   7
TORSDOF 8
ENDMDL
MODEL 4
REMARK VINA RESULT:      -6.5      4.888      9.598
REMARK  Name = 11879581
REMARK  10 active torsions:
REMARK  status: ('A' for Active; 'I' for Inactive)
REMARK    1  A    between atoms: S_1  and  N_7
REMARK    2  A    between atoms: S_1  and  C_21
REMARK    3  A    between atoms: O_4  and  C_20
REMARK    4  A    between atoms: O_4  and  C_24
REMARK    5  A    between atoms: N_7  and  C_16
REMARK    6  A    between atoms: N_8  and  C_17
REMARK    7  A    between atoms: N_12  and  C_31
REMARK    8  A    between atoms: N_12  and  C_34
REMARK    9  A    between atoms: N_12  and  C_35
REMARK   10  A    between atoms: C_22  and  C_29
REMARK                            x       y       z     vdW  Elec       q    Type
REMARK                         _______ _______ _______ _____ _____    ______ ____
ROOT
ATOM      2  O   UNL     1     -13.385  -7.856  15.498  0.00  0.00    -0.370 OA
ATOM      3  O   UNL     1     -10.974  -5.817  15.552  0.00  0.00    -0.370 OA
ATOM     14  C   UNL     1     -11.804  -6.370  14.518  0.00  0.00    +0.170 C 
ATOM     15  C   UNL     1     -12.087  -7.816  14.879  0.00  0.00    +0.175 C 
ATOM     16  C   UNL     1     -13.161  -5.708  14.530  0.00  0.00    +0.133 C 
ATOM     17  C   UNL     1     -11.019  -8.179  15.894  0.00  0.00    +0.171 C 
ATOM     18  C   UNL     1     -13.930  -6.531  15.543  0.00  0.00    +0.183 C 
ATOM     19  C   UNL     1     -10.670  -6.832  16.518  0.00  0.00    +0.190 C 
ENDROOT
BRANCH  17   8
ATOM      8  N   UNL     1      -9.892  -8.895  15.292  0.00  0.00    -0.187 N 
ATOM      9  N   UNL     1      -9.909  -9.238  14.000  0.00  0.00    -0.041 NA
ATOM     10  N   UNL     1      -8.014  -9.909  14.961  0.00  0.00    -0.071 NA
ATOM     11  N   UNL     1      -8.754  -9.859  13.801  0.00  0.00    -0.020 NA
ATOM     20  C   UNL     1      -8.740  -9.305  15.872  0.00  0.00    +0.342 A 
BRANCH  20   4
ATOM      4  O   UNL     1      -8.422  -9.119  17.139  0.00  0.00    -0.423 OA
BRANCH   4  24
ATOM     24  C   UNL     1      -7.791 -10.093  17.902  0.00  0.00    +0.134 A 
ATOM     28  C   UNL     1      -6.437 -10.307  17.727  0.00  0.00    +0.069 A 
ATOM     30  C   UNL     1      -8.534 -10.818  18.812  0.00  0.00    +0.046 A 
ATOM     31  C   UNL     1      -5.803 -11.286  18.494  0.00  0.00    +0.033 A 
ATOM     32  C   UNL     1      -7.900 -11.796  19.579  0.00  0.00    +0.005 A 
ATOM     33  C   UNL     1      -6.535 -12.029  19.419  0.00  0.00    +0.023 A 
BRANCH  31  12
ATOM     12  N   UNL     1      -4.423 -11.523  18.331  0.00  0.00    -0.336 N 
ATOM     34  C   UNL     1      -3.754 -11.151  17.100  0.00  0.00    +0.129 C 
ATOM     35  C   UNL     1      -3.651 -12.130  19.397  0.00  0.00    +0.129 C 
ENDBRANCH  31  12
ENDBRANCH   4  24
ENDBRANCH  20   4
ENDBRANCH  17   8
BRANCH  16   7
ATOM      7  N   UNL     1     -13.797  -5.836  13.197  0.00  0.00    -0.182 NA
ATOM     36  H   UNL     1     -13.491  -6.610  12.596  0.00  0.00    +0.148 HD
BRANCH   7   1
ATOM      1  S   UNL     1     -14.681  -4.538  12.555  0.00  0.00    +0.060 S 
ATOM      5  O   UNL     1     -14.630  -3.417  13.475  0.00  0.00    -0.153 OA
ATOM      6  O   UNL     1     -15.959  -5.033  12.080  0.00  0.00    -0.153 OA
BRANCH   1  21
ATOM     21  C   UNL     1     -13.728  -4.116  11.128  0.00  0.00    +0.123 A 
ATOM     22  C   UNL     1     -14.231  -3.272  10.148  0.00  0.00    +0.078 A 
ATOM     23  C   UNL     1     -12.455  -4.659  11.022  0.00  0.00    +0.030 A 
ATOM     25  C   UNL     1     -13.445  -2.964   9.038  0.00  0.00    +0.021 A 
ATOM     26  C   UNL     1     -11.669  -4.351   9.911  0.00  0.00    +0.002 A 
ATOM     27  C   UNL     1     -12.164  -3.504   8.919  0.00  0.00    +0.001 A 
BRANCH  22  29
ATOM     13  N   UNL     1     -16.602  -2.239  10.311  0.00  0.00    -0.191 NA
ATOM     29  C   UNL     1     -15.541  -2.702  10.238  0.00  0.00    +0.101 C 
ENDBRANCH  22  29
ENDBRANCH   1  21
ENDBRANCH   7   1
ENDBRANCH  16   7
TORSDOF 8
ENDMDL
MODEL 5
REMARK VINA RESULT:      -6.5      2.628      7.541
REMARK  Name = 11879581
REMARK  10 active torsions:
REMARK  status: ('A' for Active; 'I' for Inactive)
REMARK    1  A    between atoms: S_1  and  N_7
REMARK    2  A    between atoms: S_1  and  C_21
REMARK    3  A    between atoms: O_4  and  C_20
REMARK    4  A    between atoms: O_4  and  C_24
REMARK    5  A    between atoms: N_7  and  C_16
REMARK    6  A    between atoms: N_8  and  C_17
REMARK    7  A    between atoms: N_12  and  C_31
REMARK    8  A    between atoms: N_12  and  C_34
REMARK    9  A    between atoms: N_12  and  C_35
REMARK   10  A    between atoms: C_22  and  C_29
REMARK                            x       y       z     vdW  Elec       q    Type
REMARK                         _______ _______ _______ _____ _____    ______ ____
ROOT
ATOM      2  O   UNL     1      -6.764 -11.299  15.190  0.00  0.00    -0.370 OA
ATOM      3  O   UNL     1      -5.250 -13.476  16.907  0.00  0.00    -0.370 OA
ATOM     14  C   UNL     1      -5.770 -12.163  17.173  0.00  0.00    +0.170 C 
ATOM     15  C   UNL     1      -5.535 -11.315  15.939  0.00  0.00    +0.175 C 
ATOM     16  C   UNL     1      -7.272 -12.216  17.313  0.00  0.00    +0.133 C 
ATOM     17  C   UNL     1      -4.465 -12.055  15.157  0.00  0.00    +0.171 C 
ATOM     18  C   UNL     1      -7.749 -12.078  15.881  0.00  0.00    +0.183 C 
ATOM     19  C   UNL     1      -4.656 -13.501  15.602  0.00  0.00    +0.190 C 
ENDROOT
BRANCH  17   8
ATOM      8  N   UNL     1      -3.125 -11.508  15.383  0.00  0.00    -0.187 N 
ATOM      9  N   UNL     1      -2.772 -11.032  16.581  0.00  0.00    -0.041 NA
ATOM     10  N   UNL     1      -1.084 -10.842  15.138  0.00  0.00    -0.071 NA
ATOM     11  N   UNL     1      -1.518 -10.626  16.426  0.00  0.00    -0.020 NA
ATOM     20  C   UNL     1      -2.098 -11.390  14.510  0.00  0.00    +0.342 A 
BRANCH  20   4
ATOM      4  O   UNL     1      -2.132 -11.767  13.246  0.00  0.00    -0.423 OA
BRANCH   4  24
ATOM     24  C   UNL     1      -2.517 -10.913  12.221  0.00  0.00    +0.134 A 
ATOM     28  C   UNL     1      -3.808 -10.991  11.735  0.00  0.00    +0.069 A 
ATOM     30  C   UNL     1      -1.599 -10.012  11.718  0.00  0.00    +0.046 A 
ATOM     31  C   UNL     1      -4.195 -10.133  10.705  0.00  0.00    +0.033 A 
ATOM     32  C   UNL     1      -1.987  -9.154  10.689  0.00  0.00    +0.005 A 
ATOM     33  C   UNL     1      -3.285  -9.215  10.183  0.00  0.00    +0.023 A 
BRANCH  31  12
ATOM     12  N   UNL     1      -5.508 -10.196  10.192  0.00  0.00    -0.336 N 
ATOM     34  C   UNL     1      -6.373  -9.034  10.246  0.00  0.00    +0.129 C 
ATOM     35  C   UNL     1      -6.005 -11.419   9.594  0.00  0.00    +0.129 C 
ENDBRANCH  31  12
ENDBRANCH   4  24
ENDBRANCH  20   4
ENDBRANCH  17   8
BRANCH  16   7
ATOM      7  N   UNL     1      -7.746 -11.059  18.110  0.00  0.00    -0.182 NA
ATOM     36  H   UNL     1      -7.041 -10.396  18.453  0.00  0.00    +0.148 HD
BRANCH   7   1
ATOM      1  S   UNL     1      -9.317 -11.063  18.752  0.00  0.00    +0.060 S 
ATOM      5  O   UNL     1      -9.260 -10.759  20.169  0.00  0.00    -0.153 OA
ATOM      6  O   UNL     1     -10.008 -12.252  18.289  0.00  0.00    -0.153 OA
BRANCH   1  21
ATOM     21  C   UNL     1     -10.053  -9.684  17.927  0.00  0.00    +0.123 A 
ATOM     22  C   UNL     1     -11.411  -9.421  18.034  0.00  0.00    +0.078 A 
ATOM     23  C   UNL     1      -9.223  -8.871  17.168  0.00  0.00    +0.030 A 
ATOM     25  C   UNL     1     -11.951  -8.321  17.367  0.00  0.00    +0.021 A 
ATOM     26  C   UNL     1      -9.763  -7.772  16.501  0.00  0.00    +0.002 A 
ATOM     27  C   UNL     1     -11.127  -7.496  16.600  0.00  0.00    +0.001 A 
BRANCH  22  29
ATOM     13  N   UNL     1     -12.993 -10.914  19.441  0.00  0.00    -0.191 NA
ATOM     29  C   UNL     1     -12.285 -10.246  18.811  0.00  0.00    +0.101 C 
ENDBRANCH  22  29
ENDBRANCH   1  21
ENDBRANCH   7   1
ENDBRANCH  16   7
TORSDOF 8
ENDMDL
MODEL 6
REMARK VINA RESULT:      -6.5     26.561     30.640
REMARK  Name = 11879581
REMARK  10 active torsions:
REMARK  status: ('A' for Active; 'I' for Inactive)
REMARK    1  A    between atoms: S_1  and  N_7
REMARK    2  A    between atoms: S_1  and  C_21
REMARK    3  A    between atoms: O_4  and  C_20
REMARK    4  A    between atoms: O_4  and  C_24
REMARK    5  A    between atoms: N_7  and  C_16
REMARK    6  A    between atoms: N_8  and  C_17
REMARK    7  A    between atoms: N_12  and  C_31
REMARK    8  A    between atoms: N_12  and  C_34
REMARK    9  A    between atoms: N_12  and  C_35
REMARK   10  A    between atoms: C_22  and  C_29
REMARK                            x       y       z     vdW  Elec       q    Type
REMARK                         _______ _______ _______ _____ _____    ______ ____
ROOT
ATOM      2  O   UNL     1      14.326   6.799   6.860  0.00  0.00    -0.370 OA
ATOM      3  O   UNL     1      12.657   9.415   6.267  0.00  0.00    -0.370 OA
ATOM     14  C   UNL     1      12.772   8.127   5.639  0.00  0.00    +0.170 C 
ATOM     15  C   UNL     1      14.221   7.694   5.737  0.00  0.00    +0.175 C 
ATOM     16  C   UNL     1      12.015   7.092   6.436  0.00  0.00    +0.133 C 
ATOM     17  C   UNL     1      14.990   8.971   6.023  0.00  0.00    +0.171 C 
ATOM     18  C   UNL     1      13.035   6.644   7.463  0.00  0.00    +0.183 C 
ATOM     19  C   UNL     1      13.950   9.849   6.711  0.00  0.00    +0.190 C 
ENDROOT
BRANCH  17   8
ATOM      8  N   UNL     1      15.588   9.548   4.817  0.00  0.00    -0.187 N 
ATOM      9  N   UNL     1      15.072  10.643   4.251  0.00  0.00    -0.041 NA
ATOM     10  N   UNL     1      16.847   9.936   3.104  0.00  0.00    -0.071 NA
ATOM     11  N   UNL     1      15.848  10.878   3.201  0.00  0.00    -0.020 NA
ATOM     20  C   UNL     1      16.666   9.121   4.117  0.00  0.00    +0.342 A 
BRANCH  20   4
ATOM      4  O   UNL     1      17.394   8.063   4.419  0.00  0.00    -0.423 OA
BRANCH   4  24
ATOM     24  C   UNL     1      18.605   8.156   5.092  0.00  0.00    +0.134 A 
ATOM     28  C   UNL     1      19.752   7.694   4.475  0.00  0.00    +0.069 A 
ATOM     30  C   UNL     1      18.628   8.708   6.357  0.00  0.00    +0.046 A 
ATOM     31  C   UNL     1      20.968   7.787   5.151  0.00  0.00    +0.033 A 
ATOM     32  C   UNL     1      19.845   8.802   7.034  0.00  0.00    +0.005 A 
ATOM     33  C   UNL     1      21.015   8.341   6.430  0.00  0.00    +0.023 A 
BRANCH  31  12
ATOM     12  N   UNL     1      22.151   7.320   4.541  0.00  0.00    -0.336 N 
ATOM     34  C   UNL     1      23.413   7.993   4.775  0.00  0.00    +0.129 C 
ATOM     35  C   UNL     1      22.123   6.153   3.682  0.00  0.00    +0.129 C 
ENDBRANCH  31  12
ENDBRANCH   4  24
ENDBRANCH  20   4
ENDBRANCH  17   8
BRANCH  16   7
ATOM      7  N   UNL     1      11.653   5.949   5.562  0.00  0.00    -0.182 NA
ATOM     36  H   UNL     1      12.343   5.645   4.865  0.00  0.00    +0.148 HD
BRANCH   7   1
ATOM      1  S   UNL     1      10.036   5.447   5.457  0.00  0.00    +0.060 S 
ATOM      5  O   UNL     1       9.393   5.617   6.746  0.00  0.00    -0.153 OA
ATOM      6  O   UNL     1       9.988   4.163   4.782  0.00  0.00    -0.153 OA
BRANCH   1  21
ATOM     21  C   UNL     1       9.354   6.640   4.345  0.00  0.00    +0.123 A 
ATOM     22  C   UNL     1       9.887   6.831   3.078  0.00  0.00    +0.078 A 
ATOM     23  C   UNL     1       8.264   7.378   4.784  0.00  0.00    +0.030 A 
ATOM     25  C   UNL     1       9.317   7.783   2.232  0.00  0.00    +0.021 A 
ATOM     26  C   UNL     1       7.696   8.330   3.937  0.00  0.00    +0.002 A 
ATOM     27  C   UNL     1       8.222   8.533   2.661  0.00  0.00    +0.001 A 
BRANCH  22  29
ATOM     13  N   UNL     1      11.919   5.472   2.222  0.00  0.00    -0.191 NA
ATOM     29  C   UNL     1      11.010   6.080   2.606  0.00  0.00    +0.101 C 
ENDBRANCH  22  29
ENDBRANCH   1  21
ENDBRANCH   7   1
ENDBRANCH  16   7
TORSDOF 8
ENDMDL
MODEL 7
REMARK VINA RESULT:      -6.5      2.683      7.572
REMARK  Name = 11879581
REMARK  10 active torsions:
REMARK  status: ('A' for Active; 'I' for Inactive)
REMARK    1  A    between atoms: S_1  and  N_7
REMARK    2  A    between atoms: S_1  and  C_21
REMARK    3  A    between atoms: O_4  and  C_20
REMARK    4  A    between atoms: O_4  and  C_24
REMARK    5  A    between atoms: N_7  and  C_16
REMARK    6  A    between atoms: N_8  and  C_17
REMARK    7  A    between atoms: N_12  and  C_31
REMARK    8  A    between atoms: N_12  and  C_34
REMARK    9  A    between atoms: N_12  and  C_35
REMARK   10  A    between atoms: C_22  and  C_29
REMARK                            x       y       z     vdW  Elec       q    Type
REMARK                         _______ _______ _______ _____ _____    ______ ____
ROOT
ATOM      2  O   UNL     1      -5.687 -11.612  19.023  0.00  0.00    -0.370 OA
ATOM      3  O   UNL     1      -5.315  -9.673  16.557  0.00  0.00    -0.370 OA
ATOM     14  C   UNL     1      -6.394 -10.485  17.048  0.00  0.00    +0.170 C 
ATOM     15  C   UNL     1      -5.795 -11.765  17.596  0.00  0.00    +0.175 C 
ATOM     16  C   UNL     1      -7.035  -9.828  18.247  0.00  0.00    +0.133 C 
ATOM     17  C   UNL     1      -4.410 -11.841  16.979  0.00  0.00    +0.171 C 
ATOM     18  C   UNL     1      -6.183 -10.321  19.399  0.00  0.00    +0.183 C 
ATOM     19  C   UNL     1      -4.076 -10.378  16.710  0.00  0.00    +0.190 C 
ENDROOT
BRANCH  17   8
ATOM      8  N   UNL     1      -4.367 -12.713  15.802  0.00  0.00    -0.187 N 
ATOM      9  N   UNL     1      -4.991 -13.896  15.802  0.00  0.00    -0.041 NA
ATOM     10  N   UNL     1      -3.970 -13.551  13.851  0.00  0.00    -0.071 NA
ATOM     11  N   UNL     1      -4.746 -14.405  14.602  0.00  0.00    -0.020 NA
ATOM     20  C   UNL     1      -3.748 -12.508  14.616  0.00  0.00    +0.342 A 
BRANCH  20   4
ATOM      4  O   UNL     1      -3.045 -11.436  14.304  0.00  0.00    -0.423 OA
BRANCH   4  24
ATOM     24  C   UNL     1      -3.193 -10.771  13.095  0.00  0.00    +0.134 A 
ATOM     28  C   UNL     1      -4.448 -10.329  12.723  0.00  0.00    +0.069 A 
ATOM     30  C   UNL     1      -2.082 -10.569  12.300  0.00  0.00    +0.046 A 
ATOM     31  C   UNL     1      -4.597  -9.661  11.507  0.00  0.00    +0.033 A 
ATOM     32  C   UNL     1      -2.231  -9.899  11.085  0.00  0.00    +0.005 A 
ATOM     33  C   UNL     1      -3.489  -9.446  10.689  0.00  0.00    +0.023 A 
BRANCH  31  12
ATOM     12  N   UNL     1      -5.870  -9.203  11.106  0.00  0.00    -0.336 N 
ATOM     34  C   UNL     1      -6.114  -8.827   9.728  0.00  0.00    +0.129 C 
ATOM     35  C   UNL     1      -6.954  -9.114  12.065  0.00  0.00    +0.129 C 
ENDBRANCH  31  12
ENDBRANCH   4  24
ENDBRANCH  20   4
ENDBRANCH  17   8
BRANCH  16   7
ATOM      7  N   UNL     1      -8.425 -10.319  18.409  0.00  0.00    -0.182 NA
ATOM     36  H   UNL     1      -8.579 -11.113  19.042  0.00  0.00    +0.148 HD
BRANCH   7   1
ATOM      1  S   UNL     1      -9.620  -9.851  17.298  0.00  0.00    +0.060 S 
ATOM      5  O   UNL     1      -9.791 -10.894  16.305  0.00  0.00    -0.153 OA
ATOM      6  O   UNL     1      -9.363  -8.485  16.883  0.00  0.00    -0.153 OA
BRANCH   1  21
ATOM     21  C   UNL     1     -11.068  -9.819  18.311  0.00  0.00    +0.123 A 
ATOM     22  C   UNL     1     -12.308  -9.486  17.786  0.00  0.00    +0.078 A 
ATOM     23  C   UNL     1     -10.921 -10.140  19.653  0.00  0.00    +0.030 A 
ATOM     25  C   UNL     1     -13.426  -9.474  18.621  0.00  0.00    +0.021 A 
ATOM     26  C   UNL     1     -12.039 -10.128  20.488  0.00  0.00    +0.002 A 
ATOM     27  C   UNL     1     -13.291  -9.795  19.972  0.00  0.00    +0.001 A 
BRANCH  22  29
ATOM     13  N   UNL     1     -12.622  -8.880  15.286  0.00  0.00    -0.191 NA
ATOM     29  C   UNL     1     -12.482  -9.151  16.405  0.00  0.00    +0.101 C 
ENDBRANCH  22  29
ENDBRANCH   1  21
ENDBRANCH   7   1
ENDBRANCH  16   7
TORSDOF 8
ENDMDL
MODEL 8
REMARK VINA RESULT:      -6.4      2.519      5.588
REMARK  Name = 11879581
REMARK  10 active torsions:
REMARK  status: ('A' for Active; 'I' for Inactive)
REMARK    1  A    between atoms: S_1  and  N_7
REMARK    2  A    between atoms: S_1  and  C_21
REMARK    3  A    between atoms: O_4  and  C_20
REMARK    4  A    between atoms: O_4  and  C_24
REMARK    5  A    between atoms: N_7  and  C_16
REMARK    6  A    between atoms: N_8  and  C_17
REMARK    7  A    between atoms: N_12  and  C_31
REMARK    8  A    between atoms: N_12  and  C_34
REMARK    9  A    between atoms: N_12  and  C_35
REMARK   10  A    between atoms: C_22  and  C_29
REMARK                            x       y       z     vdW  Elec       q    Type
REMARK                         _______ _______ _______ _____ _____    ______ ____
ROOT
ATOM      2  O   UNL     1      -8.751 -12.012  15.369  0.00  0.00    -0.370 OA
ATOM      3  O   UNL     1      -8.173  -9.072  16.369  0.00  0.00    -0.370 OA
ATOM     14  C   UNL     1      -7.441 -10.037  15.594  0.00  0.00    +0.170 C 
ATOM     15  C   UNL     1      -7.725 -11.407  16.177  0.00  0.00    +0.175 C 
ATOM     16  C   UNL     1      -7.994 -10.104  14.191  0.00  0.00    +0.133 C 
ATOM     17  C   UNL     1      -8.262 -11.133  17.570  0.00  0.00    +0.171 C 
ATOM     18  C   UNL     1      -9.120 -11.109  14.318  0.00  0.00    +0.183 C 
ATOM     19  C   UNL     1      -8.861  -9.737  17.436  0.00  0.00    +0.190 C 
ENDROOT
BRANCH  17   8
ATOM      8  N   UNL     1      -7.234 -11.270  18.604  0.00  0.00    -0.187 N 
ATOM      9  N   UNL     1      -7.377 -10.682  19.796  0.00  0.00    -0.041 NA
ATOM     10  N   UNL     1      -5.450 -11.799  19.704  0.00  0.00    -0.071 NA
ATOM     11  N   UNL     1      -6.281 -11.011  20.468  0.00  0.00    -0.020 NA
ATOM     20  C   UNL     1      -6.063 -11.947  18.552  0.00  0.00    +0.342 A 
BRANCH  20   4
ATOM      4  O   UNL     1      -5.629 -12.630  17.510  0.00  0.00    -0.423 OA
BRANCH   4  24
ATOM     24  C   UNL     1      -4.561 -12.206  16.729  0.00  0.00    +0.134 A 
ATOM     28  C   UNL     1      -4.183 -12.968  15.641  0.00  0.00    +0.069 A 
ATOM     30  C   UNL     1      -3.909 -11.035  17.064  0.00  0.00    +0.046 A 
ATOM     31  C   UNL     1      -3.110 -12.543  14.857  0.00  0.00    +0.033 A 
ATOM     32  C   UNL     1      -2.837 -10.609  16.280  0.00  0.00    +0.005 A 
ATOM     33  C   UNL     1      -2.438 -11.363  15.176  0.00  0.00    +0.023 A 
BRANCH  31  12
ATOM     12  N   UNL     1      -2.707 -13.306  13.742  0.00  0.00    -0.336 N 
ATOM     34  C   UNL     1      -3.661 -14.138  13.038  0.00  0.00    +0.129 C 
ATOM     35  C   UNL     1      -1.334 -13.259  13.277  0.00  0.00    +0.129 C 
ENDBRANCH  31  12
ENDBRANCH   4  24
ENDBRANCH  20   4
ENDBRANCH  17   8
BRANCH  16   7
ATOM      7  N   UNL     1      -6.960 -10.627  13.266  0.00  0.00    -0.182 NA
ATOM     36  H   UNL     1      -6.084 -10.972  13.676  0.00  0.00    +0.148 HD
BRANCH   7   1
ATOM      1  S   UNL     1      -7.067 -10.296  11.605  0.00  0.00    +0.060 S 
ATOM      5  O   UNL     1      -7.795  -9.057  11.406  0.00  0.00    -0.153 OA
ATOM      6  O   UNL     1      -7.479 -11.502  10.913  0.00  0.00    -0.153 OA
BRANCH   1  21
ATOM     21  C   UNL     1      -5.375 -10.009  11.180  0.00  0.00    +0.123 A 
ATOM     22  C   UNL     1      -5.022  -9.479   9.947  0.00  0.00    +0.078 A 
ATOM     23  C   UNL     1      -4.412 -10.331  12.125  0.00  0.00    +0.030 A 
ATOM     25  C   UNL     1      -3.675  -9.267   9.653  0.00  0.00    +0.021 A 
ATOM     26  C   UNL     1      -3.065 -10.120  11.830  0.00  0.00    +0.002 A 
ATOM     27  C   UNL     1      -2.696  -9.588  10.594  0.00  0.00    +0.001 A 
BRANCH  22  29
ATOM     13  N   UNL     1      -6.791  -8.863   8.157  0.00  0.00    -0.191 NA
ATOM     29  C   UNL     1      -5.999  -9.139   8.959  0.00  0.00    +0.101 C 
ENDBRANCH  22  29
ENDBRANCH   1  21
ENDBRANCH   7   1
ENDBRANCH  16   7
TORSDOF 8
ENDMDL
MODEL 9
REMARK VINA RESULT:      -6.4      2.834      7.849
REMARK  Name = 11879581
REMARK  10 active torsions:
REMARK  status: ('A' for Active; 'I' for Inactive)
REMARK    1  A    between atoms: S_1  and  N_7
REMARK    2  A    between atoms: S_1  and  C_21
REMARK    3  A    between atoms: O_4  and  C_20
REMARK    4  A    between atoms: O_4  and  C_24
REMARK    5  A    between atoms: N_7  and  C_16
REMARK    6  A    between atoms: N_8  and  C_17
REMARK    7  A    between atoms: N_12  and  C_31
REMARK    8  A    between atoms: N_12  and  C_34
REMARK    9  A    between atoms: N_12  and  C_35
REMARK   10  A    between atoms: C_22  and  C_29
REMARK                            x       y       z     vdW  Elec       q    Type
REMARK                         _______ _______ _______ _____ _____    ______ ____
ROOT
ATOM      2  O   UNL     1      -6.758 -12.050  14.865  0.00  0.00    -0.370 OA
ATOM      3  O   UNL     1      -5.133 -13.811  16.923  0.00  0.00    -0.370 OA
ATOM     14  C   UNL     1      -5.838 -12.562  17.000  0.00  0.00    +0.170 C 
ATOM     15  C   UNL     1      -5.607 -11.821  15.698  0.00  0.00    +0.175 C 
ATOM     16  C   UNL     1      -7.328 -12.806  17.035  0.00  0.00    +0.133 C 
ATOM     17  C   UNL     1      -4.386 -12.483  15.085  0.00  0.00    +0.171 C 
ATOM     18  C   UNL     1      -7.691 -12.882  15.566  0.00  0.00    +0.183 C 
ATOM     19  C   UNL     1      -4.428 -13.888  15.676  0.00  0.00    +0.190 C 
ENDROOT
BRANCH  17   8
ATOM      8  N   UNL     1      -3.153 -11.737  15.346  0.00  0.00    -0.187 N 
ATOM      9  N   UNL     1      -2.899 -11.232  16.557  0.00  0.00    -0.041 NA
ATOM     10  N   UNL     1      -1.238 -10.755  15.150  0.00  0.00    -0.071 NA
ATOM     11  N   UNL     1      -1.722 -10.632  16.432  0.00  0.00    -0.020 NA
ATOM     20  C   UNL     1      -2.142 -11.445  14.494  0.00  0.00    +0.342 A 
BRANCH  20   4
ATOM      4  O   UNL     1      -2.095 -11.801  13.224  0.00  0.00    -0.423 OA
BRANCH   4  24
ATOM     24  C   UNL     1      -2.498 -10.958  12.196  0.00  0.00    +0.134 A 
ATOM     28  C   UNL     1      -3.773 -11.092  11.682  0.00  0.00    +0.069 A 
ATOM     30  C   UNL     1      -1.613 -10.012  11.719  0.00  0.00    +0.046 A 
ATOM     31  C   UNL     1      -4.178 -10.246  10.649  0.00  0.00    +0.033 A 
ATOM     32  C   UNL     1      -2.018  -9.165  10.686  0.00  0.00    +0.005 A 
ATOM     33  C   UNL     1      -3.301  -9.283  10.152  0.00  0.00    +0.023 A 
BRANCH  31  12
ATOM     12  N   UNL     1      -5.475 -10.366  10.108  0.00  0.00    -0.336 N 
ATOM     34  C   UNL     1      -6.040  -9.294   9.314  0.00  0.00    +0.129 C 
ATOM     35  C   UNL     1      -6.255 -11.568  10.329  0.00  0.00    +0.129 C 
ENDBRANCH  31  12
ENDBRANCH   4  24
ENDBRANCH  20   4
ENDBRANCH  17   8
BRANCH  16   7
ATOM      7  N   UNL     1      -8.014 -11.650  17.659  0.00  0.00    -0.182 NA
ATOM     36  H   UNL     1      -8.071 -10.780  17.117  0.00  0.00    +0.148 HD
BRANCH   7   1
ATOM      1  S   UNL     1      -8.324 -11.653  19.328  0.00  0.00    +0.060 S 
ATOM      5  O   UNL     1      -7.470 -10.678  19.979  0.00  0.00    -0.153 OA
ATOM      6  O   UNL     1      -8.351 -13.026  19.795  0.00  0.00    -0.153 OA
BRANCH   1  21
ATOM     21  C   UNL     1      -9.985 -11.053  19.392  0.00  0.00    +0.123 A 
ATOM     22  C   UNL     1     -10.388  -9.963  18.634  0.00  0.00    +0.078 A 
ATOM     23  C   UNL     1     -10.875 -11.712  20.228  0.00  0.00    +0.030 A 
ATOM     25  C   UNL     1     -11.709  -9.522  18.713  0.00  0.00    +0.021 A 
ATOM     26  C   UNL     1     -12.196 -11.271  20.308  0.00  0.00    +0.002 A 
ATOM     27  C   UNL     1     -12.613 -10.176  19.550  0.00  0.00    +0.001 A 
BRANCH  22  29
ATOM     13  N   UNL     1      -8.755  -8.706  17.062  0.00  0.00    -0.191 NA
ATOM     29  C   UNL     1      -9.486  -9.268  17.765  0.00  0.00    +0.101 C 
ENDBRANCH  22  29
ENDBRANCH   1  21
ENDBRANCH   7   1
ENDBRANCH  16   7
TORSDOF 8
ENDMDL
MODEL 10
REMARK VINA RESULT:      -6.4      2.805      7.262
REMARK  Name = 11879581
REMARK  10 active torsions:
REMARK  status: ('A' for Active; 'I' for Inactive)
REMARK    1  A    between atoms: S_1  and  N_7
REMARK    2  A    between atoms: S_1  and  C_21
REMARK    3  A    between atoms: O_4  and  C_20
REMARK    4  A    between atoms: O_4  and  C_24
REMARK    5  A    between atoms: N_7  and  C_16
REMARK    6  A    between atoms: N_8  and  C_17
REMARK    7  A    between atoms: N_12  and  C_31
REMARK    8  A    between atoms: N_12  and  C_34
REMARK    9  A    between atoms: N_12  and  C_35
REMARK   10  A    between atoms: C_22  and  C_29
REMARK                            x       y       z     vdW  Elec       q    Type
REMARK                         _______ _______ _______ _____ _____    ______ ____
ROOT
ATOM      2  O   UNL     1      -6.364 -12.634  15.017  0.00  0.00    -0.370 OA
ATOM      3  O   UNL     1      -4.968 -15.042  16.511  0.00  0.00    -0.370 OA
ATOM     14  C   UNL     1      -4.987 -13.616  16.692  0.00  0.00    +0.170 C 
ATOM     15  C   UNL     1      -4.999 -12.977  15.318  0.00  0.00    +0.175 C 
ATOM     16  C   UNL     1      -6.292 -13.188  17.318  0.00  0.00    +0.133 C 
ATOM     17  C   UNL     1      -4.524 -14.070  14.377  0.00  0.00    +0.171 C 
ATOM     18  C   UNL     1      -7.201 -13.014  16.118  0.00  0.00    +0.183 C 
ATOM     19  C   UNL     1      -4.917 -15.347  15.111  0.00  0.00    +0.190 C 
ENDROOT
BRANCH  17   8
ATOM      8  N   UNL     1      -3.100 -13.952  14.055  0.00  0.00    -0.187 N 
ATOM      9  N   UNL     1      -2.330 -15.039  13.942  0.00  0.00    -0.041 NA
ATOM     10  N   UNL     1      -1.132 -13.194  13.584  0.00  0.00    -0.071 NA
ATOM     11  N   UNL     1      -1.124 -14.569  13.651  0.00  0.00    -0.020 NA
ATOM     20  C   UNL     1      -2.369 -12.834  13.837  0.00  0.00    +0.342 A 
BRANCH  20   4
ATOM      4  O   UNL     1      -2.838 -11.602  13.879  0.00  0.00    -0.423 OA
BRANCH   4  24
ATOM     24  C   UNL     1      -3.097 -10.860  12.734  0.00  0.00    +0.134 A 
ATOM     28  C   UNL     1      -4.408 -10.669  12.342  0.00  0.00    +0.069 A 
ATOM     30  C   UNL     1      -2.037 -10.335  12.022  0.00  0.00    +0.046 A 
ATOM     31  C   UNL     1      -4.668  -9.925  11.191  0.00  0.00    +0.033 A 
ATOM     32  C   UNL     1      -2.297  -9.589  10.871  0.00  0.00    +0.005 A 
ATOM     33  C   UNL     1      -3.613  -9.385  10.457  0.00  0.00    +0.023 A 
BRANCH  31  12
ATOM     12  N   UNL     1      -5.998  -9.719  10.772  0.00  0.00    -0.336 N 
ATOM     34  C   UNL     1      -6.981  -9.178  11.689  0.00  0.00    +0.129 C 
ATOM     35  C   UNL     1      -6.398 -10.033   9.414  0.00  0.00    +0.129 C 
ENDBRANCH  31  12
ENDBRANCH   4  24
ENDBRANCH  20   4
ENDBRANCH  17   8
BRANCH  16   7
ATOM      7  N   UNL     1      -6.119 -11.886  18.005  0.00  0.00    -0.182 NA
ATOM     36  H   UNL     1      -5.275 -11.342  17.791  0.00  0.00    +0.148 HD
BRANCH   7   1
ATOM      1  S   UNL     1      -7.065 -11.517  19.365  0.00  0.00    +0.060 S 
ATOM      5  O   UNL     1      -6.317 -10.644  20.250  0.00  0.00    -0.153 OA
ATOM      6  O   UNL     1      -7.650 -12.742  19.874  0.00  0.00    -0.153 OA
BRANCH   1  21
ATOM     21  C   UNL     1      -8.379 -10.574  18.652  0.00  0.00    +0.123 A 
ATOM     22  C   UNL     1      -8.152  -9.710  17.590  0.00  0.00    +0.078 A 
ATOM     23  C   UNL     1      -9.648 -10.730  19.191  0.00  0.00    +0.030 A 
ATOM     25  C   UNL     1      -9.218  -8.986  17.056  0.00  0.00    +0.021 A 
ATOM     26  C   UNL     1     -10.714 -10.005  18.656  0.00  0.00    +0.002 A 
ATOM     27  C   UNL     1     -10.499  -9.133  17.589  0.00  0.00    +0.001 A 
BRANCH  22  29
ATOM     13  N   UNL     1      -5.798  -9.393  16.557  0.00  0.00    -0.191 NA
ATOM     29  C   UNL     1      -6.852  -9.534  17.019  0.00  0.00    +0.101 C 
ENDBRANCH  22  29
ENDBRANCH   1  21
ENDBRANCH   7   1
ENDBRANCH  16   7
TORSDOF 8
ENDMDL
