MODEL 1
REMARK VINA RESULT:      -7.6      0.000      0.000
REMARK  Name = 7134871
REMARK  11 active torsions:
REMARK  status: ('A' for Active; 'I' for Inactive)
REMARK    1  A    between atoms: O_3  and  C_15
REMARK    2  A    between atoms: O_4  and  C_20
REMARK    3  A    between atoms: N_8  and  C_26
REMARK    4  A    between atoms: C_10  and  C_18
REMARK    5  A    between atoms: C_12  and  C_20
REMARK    6  A    between atoms: C_12  and  C_21
REMARK    7  A    between atoms: C_13  and  C_23
REMARK    8  A    between atoms: C_23  and  C_24
REMARK    9  A    between atoms: C_26  and  C_28
REMARK   10  A    between atoms: C_26  and  C_29
REMARK   11  A    between atoms: C_27  and  C_30
REMARK                            x       y       z     vdW  Elec       q    Type
REMARK                         _______ _______ _______ _____ _____    ______ ____
ROOT
ATOM      1  S   UNL     1      20.825  -5.452   0.997  0.00  0.00    -0.057 S 
ATOM      6  O   UNL     1      17.994  -6.772  -2.455  0.00  0.00    -0.270 OA
ATOM      7  N   UNL     1      19.574  -7.459  -0.051  0.00  0.00    -0.229 NA
ATOM      9  N   UNL     1      19.307  -5.325  -1.138  0.00  0.00    -0.261 N 
ATOM     10  C   UNL     1      21.370  -9.738   2.489  0.00  0.00    -0.019 C 
ATOM     11  C   UNL     1      21.433  -8.590   3.592  0.00  0.00    +0.011 C 
ATOM     12  C   UNL     1      22.222  -8.916   4.919  0.00  0.00    +0.021 C 
ATOM     13  C   UNL     1      20.195  -9.375   1.468  0.00  0.00    +0.054 C 
ATOM     14  C   UNL     1      21.027 -11.088   3.169  0.00  0.00    +0.010 C 
ATOM     15  C   UNL     1      21.793 -10.318   5.439  0.00  0.00    +0.123 C 
ATOM     16  C   UNL     1      21.806  -7.217   2.962  0.00  0.00    +0.049 C 
ATOM     17  C   UNL     1      21.895 -11.408   4.378  0.00  0.00    +0.032 C 
ATOM     18  C   UNL     1      22.698  -9.897   1.710  0.00  0.00    +0.012 C 
ATOM     19  C   UNL     1      20.270  -7.930   1.046  0.00  0.00    +0.058 A 
ATOM     21  C   UNL     1      21.828  -7.879   6.009  0.00  0.00    +0.016 C 
ATOM     22  C   UNL     1      20.983  -6.975   1.742  0.00  0.00    +0.015 A 
ATOM     25  C   UNL     1      19.798  -6.170  -0.178  0.00  0.00    +0.165 A 
ATOM     27  C   UNL     1      18.452  -5.664  -2.199  0.00  0.00    +0.250 C 
ATOM     44  H   UNL     1      19.585  -4.357  -1.006  0.00  0.00    +0.157 HD
ENDROOT
BRANCH  27  30
ATOM      2  F   UNL     1      16.936  -1.394  -5.518  0.00  0.00    -0.205 F 
ATOM     30  C   UNL     1      18.049  -4.534  -3.078  0.00  0.00    +0.037 A 
ATOM     33  C   UNL     1      17.293  -3.482  -2.560  0.00  0.00    +0.016 A 
ATOM     34  C   UNL     1      18.430  -4.525  -4.419  0.00  0.00    +0.016 A 
ATOM     38  C   UNL     1      16.917  -2.422  -3.385  0.00  0.00    +0.039 A 
ATOM     39  C   UNL     1      18.054  -3.465  -5.244  0.00  0.00    +0.039 A 
ATOM     40  C   UNL     1      17.297  -2.413  -4.727  0.00  0.00    +0.123 A 
ENDBRANCH  27  30
BRANCH  15   3
ATOM      3  O   UNL     1      22.580 -10.698   6.566  0.00  0.00    -0.391 OA
ATOM     41  H   UNL     1      23.076 -11.498   6.321  0.00  0.00    +0.210 HD
ENDBRANCH  15   3
BRANCH  12  20
ATOM     20  C   UNL     1      23.758  -8.822   4.792  0.00  0.00    +0.165 C 
BRANCH  20   4
ATOM      4  O   UNL     1      24.266  -8.365   6.025  0.00  0.00    -0.394 OA
ATOM     42  H   UNL     1      25.201  -8.628   6.068  0.00  0.00    +0.209 HD
ENDBRANCH  20   4
ENDBRANCH  12  20
BRANCH  13  23
ATOM     23  C   UNL     1      20.095 -10.309   0.254  0.00  0.00    +0.106 C 
BRANCH  23  24
ATOM      5  O   UNL     1      18.117 -10.223  -1.138  0.00  0.00    -0.276 OA
ATOM      8  N   UNL     1      18.054 -11.386   0.874  0.00  0.00    -0.309 N 
ATOM     24  C   UNL     1      18.659 -10.615  -0.107  0.00  0.00    +0.214 C 
ATOM     43  H   UNL     1      18.590 -11.676   1.685  0.00  0.00    +0.149 HD
BRANCH   8  26
ATOM     26  C   UNL     1      16.679 -11.827   0.795  0.00  0.00    +0.100 C 
ATOM     28  C   UNL     1      16.549 -13.010  -0.161  0.00  0.00    +0.033 C 
BRANCH  26  29
ATOM     29  C   UNL     1      16.121 -12.128   2.169  0.00  0.00    -0.027 A 
ATOM     31  C   UNL     1      15.417 -13.312   2.391  0.00  0.00    +0.005 A 
ATOM     32  C   UNL     1      16.308 -11.223   3.214  0.00  0.00    +0.005 A 
ATOM     35  C   UNL     1      14.902 -13.590   3.657  0.00  0.00    +0.000 A 
ATOM     36  C   UNL     1      15.793 -11.501   4.480  0.00  0.00    +0.000 A 
ATOM     37  C   UNL     1      15.089 -12.685   4.701  0.00  0.00    +0.000 A 
ENDBRANCH  26  29
ENDBRANCH   8  26
ENDBRANCH  23  24
ENDBRANCH  13  23
TORSDOF 8
ENDMDL
MODEL 2
REMARK VINA RESULT:      -7.5     15.375     19.454
REMARK  Name = 7134871
REMARK  11 active torsions:
REMARK  status: ('A' for Active; 'I' for Inactive)
REMARK    1  A    between atoms: O_3  and  C_15
REMARK    2  A    between atoms: O_4  and  C_20
REMARK    3  A    between atoms: N_8  and  C_26
REMARK    4  A    between atoms: C_10  and  C_18
REMARK    5  A    between atoms: C_12  and  C_20
REMARK    6  A    between atoms: C_12  and  C_21
REMARK    7  A    between atoms: C_13  and  C_23
REMARK    8  A    between atoms: C_23  and  C_24
REMARK    9  A    between atoms: C_26  and  C_28
REMARK   10  A    between atoms: C_26  and  C_29
REMARK   11  A    between atoms: C_27  and  C_30
REMARK                            x       y       z     vdW  Elec       q    Type
REMARK                         _______ _______ _______ _____ _____    ______ ____
ROOT
ATOM      1  S   UNL     1      11.273   3.648   2.354  0.00  0.00    -0.057 S 
ATOM      6  O   UNL     1       9.140   7.041   4.723  0.00  0.00    -0.270 OA
ATOM      7  N   UNL     1      10.106   5.949   2.150  0.00  0.00    -0.229 NA
ATOM      9  N   UNL     1      10.262   5.000   4.361  0.00  0.00    -0.261 N 
ATOM     10  C   UNL     1      11.118   5.986  -1.570  0.00  0.00    -0.019 C 
ATOM     11  C   UNL     1      11.043   4.400  -1.687  0.00  0.00    +0.011 C 
ATOM     12  C   UNL     1      11.500   3.761  -3.056  0.00  0.00    +0.021 C 
ATOM     13  C   UNL     1      10.223   6.431  -0.323  0.00  0.00    +0.054 C 
ATOM     14  C   UNL     1      10.523   6.627  -2.851  0.00  0.00    +0.010 C 
ATOM     15  C   UNL     1      10.851   4.548  -4.230  0.00  0.00    +0.123 C 
ATOM     16  C   UNL     1      11.658   3.708  -0.436  0.00  0.00    +0.049 C 
ATOM     17  C   UNL     1      11.083   6.053  -4.145  0.00  0.00    +0.032 C 
ATOM     18  C   UNL     1      12.563   6.508  -1.379  0.00  0.00    +0.012 C 
ATOM     19  C   UNL     1      10.510   5.573   0.883  0.00  0.00    +0.058 A 
ATOM     21  C   UNL     1      10.974   2.300  -3.133  0.00  0.00    +0.016 C 
ATOM     22  C   UNL     1      11.138   4.346   0.807  0.00  0.00    +0.015 A 
ATOM     25  C   UNL     1      10.462   5.015   3.006  0.00  0.00    +0.165 A 
ATOM     27  C   UNL     1       9.626   5.990   5.128  0.00  0.00    +0.250 C 
ATOM     44  H   UNL     1      10.587   4.149   4.809  0.00  0.00    +0.157 HD
ENDROOT
BRANCH  27  30
ATOM      2  F   UNL     1       9.216   4.888  10.619  0.00  0.00    -0.205 F 
ATOM     30  C   UNL     1       9.519   5.698   6.582  0.00  0.00    +0.037 A 
ATOM     33  C   UNL     1       9.088   6.692   7.462  0.00  0.00    +0.016 A 
ATOM     34  C   UNL     1       9.847   4.432   7.065  0.00  0.00    +0.016 A 
ATOM     38  C   UNL     1       8.986   6.417   8.826  0.00  0.00    +0.039 A 
ATOM     39  C   UNL     1       9.745   4.158   8.429  0.00  0.00    +0.039 A 
ATOM     40  C   UNL     1       9.315   5.150   9.310  0.00  0.00    +0.123 A 
ENDBRANCH  27  30
BRANCH  15   3
ATOM      3  O   UNL     1      11.345   4.077  -5.484  0.00  0.00    -0.391 OA
ATOM     41  H   UNL     1      10.578   3.824  -6.025  0.00  0.00    +0.210 HD
ENDBRANCH  15   3
BRANCH  12  20
ATOM     20  C   UNL     1      13.030   3.662  -3.238  0.00  0.00    +0.165 C 
BRANCH  20   4
ATOM      4  O   UNL     1      13.294   2.562  -4.079  0.00  0.00    -0.394 OA
ATOM     42  H   UNL     1      14.151   2.189  -3.809  0.00  0.00    +0.209 HD
ENDBRANCH  20   4
ENDBRANCH  12  20
BRANCH  13  23
ATOM     23  C   UNL     1      10.303   7.925   0.019  0.00  0.00    +0.106 C 
BRANCH  23  24
ATOM      5  O   UNL     1       8.461   9.226   0.896  0.00  0.00    -0.276 OA
ATOM      8  N   UNL     1       8.345   8.387  -1.268  0.00  0.00    -0.309 N 
ATOM     24  C   UNL     1       8.948   8.591  -0.036  0.00  0.00    +0.214 C 
ATOM     43  H   UNL     1       8.835   7.862  -1.986  0.00  0.00    +0.149 HD
BRANCH   8  26
ATOM     26  C   UNL     1       7.040   8.909  -1.605  0.00  0.00    +0.100 C 
ATOM     28  C   UNL     1       7.158  10.314  -2.192  0.00  0.00    +0.033 C 
BRANCH  26  29
ATOM     29  C   UNL     1       6.288   7.963  -2.515  0.00  0.00    -0.027 A 
ATOM     31  C   UNL     1       6.968   6.931  -3.163  0.00  0.00    +0.005 A 
ATOM     32  C   UNL     1       4.915   8.120  -2.707  0.00  0.00    +0.005 A 
ATOM     35  C   UNL     1       6.275   6.059  -4.002  0.00  0.00    +0.000 A 
ATOM     36  C   UNL     1       4.222   7.248  -3.546  0.00  0.00    +0.000 A 
ATOM     37  C   UNL     1       4.903   6.217  -4.194  0.00  0.00    +0.000 A 
ENDBRANCH  26  29
ENDBRANCH   8  26
ENDBRANCH  23  24
ENDBRANCH  13  23
TORSDOF 8
ENDMDL
MODEL 3
REMARK VINA RESULT:      -7.4     15.488     19.714
REMARK  Name = 7134871
REMARK  11 active torsions:
REMARK  status: ('A' for Active; 'I' for Inactive)
REMARK    1  A    between atoms: O_3  and  C_15
REMARK    2  A    between atoms: O_4  and  C_20
REMARK    3  A    between atoms: N_8  and  C_26
REMARK    4  A    between atoms: C_10  and  C_18
REMARK    5  A    between atoms: C_12  and  C_20
REMARK    6  A    between atoms: C_12  and  C_21
REMARK    7  A    between atoms: C_13  and  C_23
REMARK    8  A    between atoms: C_23  and  C_24
REMARK    9  A    between atoms: C_26  and  C_28
REMARK   10  A    between atoms: C_26  and  C_29
REMARK   11  A    between atoms: C_27  and  C_30
REMARK                            x       y       z     vdW  Elec       q    Type
REMARK                         _______ _______ _______ _____ _____    ______ ____
ROOT
ATOM      1  S   UNL     1      11.200   3.675   2.344  0.00  0.00    -0.057 S 
ATOM      6  O   UNL     1       9.465   7.201   4.841  0.00  0.00    -0.270 OA
ATOM      7  N   UNL     1      10.336   6.112   2.233  0.00  0.00    -0.229 NA
ATOM      9  N   UNL     1      10.329   5.053   4.398  0.00  0.00    -0.261 N 
ATOM     10  C   UNL     1      11.415   6.188  -1.468  0.00  0.00    -0.019 C 
ATOM     11  C   UNL     1      11.144   4.630  -1.661  0.00  0.00    +0.011 C 
ATOM     12  C   UNL     1      11.543   4.001  -3.051  0.00  0.00    +0.021 C 
ATOM     13  C   UNL     1      10.560   6.686  -0.214  0.00  0.00    +0.054 C 
ATOM     14  C   UNL     1      10.931   6.955  -2.726  0.00  0.00    +0.010 C 
ATOM     15  C   UNL     1      11.021   4.916  -4.196  0.00  0.00    +0.123 C 
ATOM     16  C   UNL     1      11.643   3.811  -0.435  0.00  0.00    +0.049 C 
ATOM     17  C   UNL     1      11.439   6.374  -4.037  0.00  0.00    +0.032 C 
ATOM     18  C   UNL     1      12.911   6.513  -1.233  0.00  0.00    +0.012 C 
ATOM     19  C   UNL     1      10.713   5.745   0.954  0.00  0.00    +0.058 A 
ATOM     21  C   UNL     1      10.839   2.623  -3.204  0.00  0.00    +0.016 C 
ATOM     22  C   UNL     1      11.184   4.454   0.830  0.00  0.00    +0.015 A 
ATOM     25  C   UNL     1      10.555   5.103   3.048  0.00  0.00    +0.165 A 
ATOM     27  C   UNL     1       9.808   6.080   5.202  0.00  0.00    +0.250 C 
ATOM     44  H   UNL     1      10.536   4.149   4.810  0.00  0.00    +0.157 HD
ENDROOT
BRANCH  27  30
ATOM      2  F   UNL     1       9.157   4.793  10.630  0.00  0.00    -0.205 F 
ATOM     30  C   UNL     1       9.637   5.739   6.639  0.00  0.00    +0.037 A 
ATOM     33  C   UNL     1       9.216   6.716   7.542  0.00  0.00    +0.016 A 
ATOM     34  C   UNL     1       9.895   4.444   7.084  0.00  0.00    +0.016 A 
ATOM     38  C   UNL     1       9.054   6.396   8.890  0.00  0.00    +0.039 A 
ATOM     39  C   UNL     1       9.733   4.123   8.432  0.00  0.00    +0.039 A 
ATOM     40  C   UNL     1       9.313   5.100   9.335  0.00  0.00    +0.123 A 
ENDBRANCH  27  30
BRANCH  15   3
ATOM      3  O   UNL     1      11.476   4.443  -5.464  0.00  0.00    -0.391 OA
ATOM     41  H   UNL     1      12.433   4.285  -5.392  0.00  0.00    +0.210 HD
ENDBRANCH  15   3
BRANCH  12  20
ATOM     20  C   UNL     1      13.052   3.717  -3.218  0.00  0.00    +0.165 C 
BRANCH  20   4
ATOM      4  O   UNL     1      13.190   2.589  -4.051  0.00  0.00    -0.394 OA
ATOM     42  H   UNL     1      14.129   2.337  -4.046  0.00  0.00    +0.209 HD
ENDBRANCH  20   4
ENDBRANCH  12  20
BRANCH  13  23
ATOM     23  C   UNL     1      10.821   8.141   0.199  0.00  0.00    +0.106 C 
BRANCH  23  24
ATOM      5  O   UNL     1      10.219  10.165  -0.981  0.00  0.00    -0.276 OA
ATOM      8  N   UNL     1       8.571   8.615  -0.449  0.00  0.00    -0.309 N 
ATOM     24  C   UNL     1       9.870   9.100  -0.478  0.00  0.00    +0.214 C 
ATOM     43  H   UNL     1       8.382   7.713  -0.023  0.00  0.00    +0.149 HD
BRANCH   8  26
ATOM     26  C   UNL     1       7.450   9.325  -1.021  0.00  0.00    +0.100 C 
ATOM     28  C   UNL     1       6.964   8.629  -2.290  0.00  0.00    +0.033 C 
BRANCH  26  29
ATOM     29  C   UNL     1       6.344   9.514  -0.005  0.00  0.00    -0.027 A 
ATOM     31  C   UNL     1       5.010   9.391  -0.396  0.00  0.00    +0.005 A 
ATOM     32  C   UNL     1       6.656   9.810   1.322  0.00  0.00    +0.005 A 
ATOM     35  C   UNL     1       3.990   9.565   0.540  0.00  0.00    +0.000 A 
ATOM     36  C   UNL     1       5.637   9.984   2.257  0.00  0.00    +0.000 A 
ATOM     37  C   UNL     1       4.304   9.862   1.866  0.00  0.00    +0.000 A 
ENDBRANCH  26  29
ENDBRANCH   8  26
ENDBRANCH  23  24
ENDBRANCH  13  23
TORSDOF 8
ENDMDL
MODEL 4
REMARK VINA RESULT:      -7.3     14.823     19.186
REMARK  Name = 7134871
REMARK  11 active torsions:
REMARK  status: ('A' for Active; 'I' for Inactive)
REMARK    1  A    between atoms: O_3  and  C_15
REMARK    2  A    between atoms: O_4  and  C_20
REMARK    3  A    between atoms: N_8  and  C_26
REMARK    4  A    between atoms: C_10  and  C_18
REMARK    5  A    between atoms: C_12  and  C_20
REMARK    6  A    between atoms: C_12  and  C_21
REMARK    7  A    between atoms: C_13  and  C_23
REMARK    8  A    between atoms: C_23  and  C_24
REMARK    9  A    between atoms: C_26  and  C_28
REMARK   10  A    between atoms: C_26  and  C_29
REMARK   11  A    between atoms: C_27  and  C_30
REMARK                            x       y       z     vdW  Elec       q    Type
REMARK                         _______ _______ _______ _____ _____    ______ ____
ROOT
ATOM      1  S   UNL     1      10.030   8.532   0.403  0.00  0.00    -0.057 S 
ATOM      6  O   UNL     1       7.543   8.106   4.315  0.00  0.00    -0.270 OA
ATOM      7  N   UNL     1       9.799   7.219   2.620  0.00  0.00    -0.229 NA
ATOM      9  N   UNL     1       8.184   8.962   2.214  0.00  0.00    -0.261 N 
ATOM     10  C   UNL     1      12.618   4.895   1.388  0.00  0.00    -0.019 C 
ATOM     11  C   UNL     1      13.318   6.057   0.553  0.00  0.00    +0.011 C 
ATOM     12  C   UNL     1      14.559   5.654  -0.333  0.00  0.00    +0.021 C 
ATOM     13  C   UNL     1      11.709   5.575   2.512  0.00  0.00    +0.054 C 
ATOM     14  C   UNL     1      13.704   4.038   2.089  0.00  0.00    +0.010 C 
ATOM     15  C   UNL     1      15.520   4.764   0.505  0.00  0.00    +0.123 C 
ATOM     16  C   UNL     1      12.269   6.929  -0.197  0.00  0.00    +0.049 C 
ATOM     17  C   UNL     1      14.820   3.578   1.162  0.00  0.00    +0.032 C 
ATOM     18  C   UNL     1      11.743   3.968   0.510  0.00  0.00    +0.012 C 
ATOM     19  C   UNL     1      10.878   6.692   1.936  0.00  0.00    +0.058 A 
ATOM     21  C   UNL     1      15.342   6.939  -0.723  0.00  0.00    +0.016 C 
ATOM     22  C   UNL     1      11.158   7.298   0.727  0.00  0.00    +0.015 A 
ATOM     25  C   UNL     1       9.271   8.188   1.905  0.00  0.00    +0.165 A 
ATOM     27  C   UNL     1       7.398   8.881   3.376  0.00  0.00    +0.250 C 
ATOM     44  H   UNL     1       7.987   9.680   1.524  0.00  0.00    +0.157 HD
ENDROOT
BRANCH  27  30
ATOM      2  F   UNL     1       3.224  12.623   3.715  0.00  0.00    -0.205 F 
ATOM     30  C   UNL     1       6.292   9.871   3.466  0.00  0.00    +0.037 A 
ATOM     33  C   UNL     1       6.203  10.719   4.571  0.00  0.00    +0.016 A 
ATOM     34  C   UNL     1       5.345   9.953   2.446  0.00  0.00    +0.016 A 
ATOM     38  C   UNL     1       5.166  11.648   4.655  0.00  0.00    +0.039 A 
ATOM     39  C   UNL     1       4.308  10.883   2.530  0.00  0.00    +0.039 A 
ATOM     40  C   UNL     1       4.218  11.730   3.634  0.00  0.00    +0.123 A 
ENDBRANCH  27  30
BRANCH  15   3
ATOM      3  O   UNL     1      16.588   4.276  -0.304  0.00  0.00    -0.391 OA
ATOM     41  H   UNL     1      16.422   3.332  -0.473  0.00  0.00    +0.210 HD
ENDBRANCH  15   3
BRANCH  12  20
ATOM     20  C   UNL     1      14.198   4.967  -1.669  0.00  0.00    +0.165 C 
BRANCH  20   4
ATOM      4  O   UNL     1      15.261   5.185  -2.568  0.00  0.00    -0.394 OA
ATOM     42  H   UNL     1      14.887   5.593  -3.367  0.00  0.00    +0.209 HD
ENDBRANCH  20   4
ENDBRANCH  12  20
BRANCH  13  23
ATOM     23  C   UNL     1      10.847   4.592   3.316  0.00  0.00    +0.106 C 
BRANCH  23  24
ATOM      5  O   UNL     1       9.550   4.828   5.346  0.00  0.00    -0.276 OA
ATOM      8  N   UNL     1      11.610   5.890   5.172  0.00  0.00    -0.309 N 
ATOM     24  C   UNL     1      10.569   5.096   4.714  0.00  0.00    +0.214 C 
ATOM     43  H   UNL     1      12.422   6.041   4.581  0.00  0.00    +0.149 HD
BRANCH   8  26
ATOM     26  C   UNL     1      11.615   6.510   6.477  0.00  0.00    +0.100 C 
ATOM     28  C   UNL     1      13.047   6.726   6.964  0.00  0.00    +0.033 C 
BRANCH  26  29
ATOM     29  C   UNL     1      10.804   7.787   6.481  0.00  0.00    -0.027 A 
ATOM     31  C   UNL     1       9.791   7.968   7.423  0.00  0.00    +0.005 A 
ATOM     32  C   UNL     1      11.068   8.785   5.543  0.00  0.00    +0.005 A 
ATOM     35  C   UNL     1       9.043   9.145   7.426  0.00  0.00    +0.000 A 
ATOM     36  C   UNL     1      10.320   9.963   5.546  0.00  0.00    +0.000 A 
ATOM     37  C   UNL     1       9.307  10.142   6.487  0.00  0.00    +0.000 A 
ENDBRANCH  26  29
ENDBRANCH   8  26
ENDBRANCH  23  24
ENDBRANCH  13  23
TORSDOF 8
ENDMDL
MODEL 5
REMARK VINA RESULT:      -7.1     25.045     27.812
REMARK  Name = 7134871
REMARK  11 active torsions:
REMARK  status: ('A' for Active; 'I' for Inactive)
REMARK    1  A    between atoms: O_3  and  C_15
REMARK    2  A    between atoms: O_4  and  C_20
REMARK    3  A    between atoms: N_8  and  C_26
REMARK    4  A    between atoms: C_10  and  C_18
REMARK    5  A    between atoms: C_12  and  C_20
REMARK    6  A    between atoms: C_12  and  C_21
REMARK    7  A    between atoms: C_13  and  C_23
REMARK    8  A    between atoms: C_23  and  C_24
REMARK    9  A    between atoms: C_26  and  C_28
REMARK   10  A    between atoms: C_26  and  C_29
REMARK   11  A    between atoms: C_27  and  C_30
REMARK                            x       y       z     vdW  Elec       q    Type
REMARK                         _______ _______ _______ _____ _____    ______ ____
ROOT
ATOM      1  S   UNL     1      -7.133 -11.012  12.579  0.00  0.00    -0.057 S 
ATOM      6  O   UNL     1      -3.300 -12.318  10.280  0.00  0.00    -0.270 OA
ATOM      7  N   UNL     1      -4.709 -11.878  12.843  0.00  0.00    -0.229 NA
ATOM      9  N   UNL     1      -5.504 -11.541  10.593  0.00  0.00    -0.261 N 
ATOM     10  C   UNL     1      -5.094 -11.405  16.650  0.00  0.00    -0.019 C 
ATOM     11  C   UNL     1      -6.658 -11.707  16.609  0.00  0.00    +0.011 C 
ATOM     12  C   UNL     1      -7.455 -11.536  17.959  0.00  0.00    +0.021 C 
ATOM     13  C   UNL     1      -4.434 -12.047  15.345  0.00  0.00    +0.054 C 
ATOM     14  C   UNL     1      -4.471 -12.083  17.898  0.00  0.00    +0.010 C 
ATOM     15  C   UNL     1      -6.672 -12.233  19.108  0.00  0.00    +0.123 C 
ATOM     16  C   UNL     1      -7.337 -11.019  15.389  0.00  0.00    +0.049 C 
ATOM     17  C   UNL     1      -5.215 -11.793  19.194  0.00  0.00    +0.032 C 
ATOM     18  C   UNL     1      -4.775  -9.891  16.697  0.00  0.00    +0.012 C 
ATOM     19  C   UNL     1      -5.232 -11.711  14.112  0.00  0.00    +0.058 A 
ATOM     21  C   UNL     1      -8.827 -12.258  17.831  0.00  0.00    +0.016 C 
ATOM     22  C   UNL     1      -6.539 -11.269  14.153  0.00  0.00    +0.015 A 
ATOM     25  C   UNL     1      -5.618 -11.533  11.958  0.00  0.00    +0.165 A 
ATOM     27  C   UNL     1      -4.378 -11.924   9.846  0.00  0.00    +0.250 C 
ATOM     44  H   UNL     1      -6.357 -11.272  10.113  0.00  0.00    +0.157 HD
ENDROOT
BRANCH  27  30
ATOM      2  F   UNL     1      -4.996 -11.692   4.269  0.00  0.00    -0.205 F 
ATOM     30  C   UNL     1      -4.542 -11.864   8.369  0.00  0.00    +0.037 A 
ATOM     33  C   UNL     1      -5.145 -10.751   7.780  0.00  0.00    +0.016 A 
ATOM     34  C   UNL     1      -4.093 -12.917   7.574  0.00  0.00    +0.016 A 
ATOM     38  C   UNL     1      -5.298 -10.694   6.395  0.00  0.00    +0.039 A 
ATOM     39  C   UNL     1      -4.246 -12.859   6.188  0.00  0.00    +0.039 A 
ATOM     40  C   UNL     1      -4.849 -11.748   5.599  0.00  0.00    +0.123 A 
ENDBRANCH  27  30
BRANCH  15   3
ATOM      3  O   UNL     1      -7.301 -11.988  20.366  0.00  0.00    -0.391 OA
ATOM     41  H   UNL     1      -7.616 -11.068  20.363  0.00  0.00    +0.210 HD
ENDBRANCH  15   3
BRANCH  12  20
ATOM     20  C   UNL     1      -7.789 -10.074  18.328  0.00  0.00    +0.165 C 
BRANCH  20   4
ATOM      4  O   UNL     1      -9.052 -10.063  18.953  0.00  0.00    -0.394 OA
ATOM     42  H   UNL     1      -9.290 -10.987  19.141  0.00  0.00    +0.209 HD
ENDBRANCH  20   4
ENDBRANCH  12  20
BRANCH  13  23
ATOM     23  C   UNL     1      -2.946 -11.721  15.157  0.00  0.00    +0.106 C 
BRANCH  23  24
ATOM      5  O   UNL     1      -1.271 -12.580  13.636  0.00  0.00    -0.276 OA
ATOM      8  N   UNL     1      -2.783 -14.044  14.622  0.00  0.00    -0.309 N 
ATOM     24  C   UNL     1      -2.224 -12.798  14.380  0.00  0.00    +0.214 C 
ATOM     43  H   UNL     1      -3.562 -14.127  15.268  0.00  0.00    +0.149 HD
BRANCH   8  26
ATOM     26  C   UNL     1      -2.297 -15.260  14.010  0.00  0.00    +0.100 C 
ATOM     28  C   UNL     1      -2.467 -16.443  14.960  0.00  0.00    +0.033 C 
BRANCH  26  29
ATOM     29  C   UNL     1      -2.952 -15.497  12.666  0.00  0.00    -0.027 A 
ATOM     31  C   UNL     1      -2.185 -15.934  11.585  0.00  0.00    +0.005 A 
ATOM     32  C   UNL     1      -4.320 -15.281  12.508  0.00  0.00    +0.005 A 
ATOM     35  C   UNL     1      -2.788 -16.153  10.346  0.00  0.00    +0.000 A 
ATOM     36  C   UNL     1      -4.923 -15.500  11.269  0.00  0.00    +0.000 A 
ATOM     37  C   UNL     1      -4.157 -15.936  10.189  0.00  0.00    +0.000 A 
ENDBRANCH  26  29
ENDBRANCH   8  26
ENDBRANCH  23  24
ENDBRANCH  13  23
TORSDOF 8
ENDMDL
MODEL 6
REMARK VINA RESULT:      -7.0     25.080     28.124
REMARK  Name = 7134871
REMARK  11 active torsions:
REMARK  status: ('A' for Active; 'I' for Inactive)
REMARK    1  A    between atoms: O_3  and  C_15
REMARK    2  A    between atoms: O_4  and  C_20
REMARK    3  A    between atoms: N_8  and  C_26
REMARK    4  A    between atoms: C_10  and  C_18
REMARK    5  A    between atoms: C_12  and  C_20
REMARK    6  A    between atoms: C_12  and  C_21
REMARK    7  A    between atoms: C_13  and  C_23
REMARK    8  A    between atoms: C_23  and  C_24
REMARK    9  A    between atoms: C_26  and  C_28
REMARK   10  A    between atoms: C_26  and  C_29
REMARK   11  A    between atoms: C_27  and  C_30
REMARK                            x       y       z     vdW  Elec       q    Type
REMARK                         _______ _______ _______ _____ _____    ______ ____
ROOT
ATOM      1  S   UNL     1      -4.309  -9.572   9.456  0.00  0.00    -0.057 S 
ATOM      6  O   UNL     1      -8.838  -8.614   8.969  0.00  0.00    -0.270 OA
ATOM      7  N   UNL     1      -6.583  -9.461  10.684  0.00  0.00    -0.229 NA
ATOM      9  N   UNL     1      -6.580  -8.876   8.346  0.00  0.00    -0.261 N 
ATOM     10  C   UNL     1      -4.842 -10.979  13.771  0.00  0.00    -0.019 C 
ATOM     11  C   UNL     1      -3.446 -10.301  13.415  0.00  0.00    +0.011 C 
ATOM     12  C   UNL     1      -2.214 -10.677  14.326  0.00  0.00    +0.021 C 
ATOM     13  C   UNL     1      -5.994 -10.149  13.039  0.00  0.00    +0.054 C 
ATOM     14  C   UNL     1      -5.079 -10.898  15.302  0.00  0.00    +0.010 C 
ATOM     15  C   UNL     1      -2.636 -10.589  15.821  0.00  0.00    +0.123 C 
ATOM     16  C   UNL     1      -3.146 -10.385  11.890  0.00  0.00    +0.049 C 
ATOM     17  C   UNL     1      -3.900 -11.381  16.135  0.00  0.00    +0.032 C 
ATOM     18  C   UNL     1      -4.919 -12.463  13.335  0.00  0.00    +0.012 C 
ATOM     19  C   UNL     1      -5.635  -9.878  11.600  0.00  0.00    +0.058 A 
ATOM     21  C   UNL     1      -1.082  -9.635  14.104  0.00  0.00    +0.016 C 
ATOM     22  C   UNL     1      -4.348  -9.971  11.110  0.00  0.00    +0.015 A 
ATOM     25  C   UNL     1      -6.000  -9.278   9.520  0.00  0.00    +0.165 A 
ATOM     27  C   UNL     1      -7.936  -8.573   8.139  0.00  0.00    +0.250 C 
ATOM     44  H   UNL     1      -5.919  -8.762   7.585  0.00  0.00    +0.157 HD
ENDROOT
BRANCH  27  30
ATOM      2  F   UNL     1      -9.260  -6.896   2.946  0.00  0.00    -0.205 F 
ATOM     30  C   UNL     1      -8.287  -8.130   6.764  0.00  0.00    +0.037 A 
ATOM     33  C   UNL     1      -9.443  -7.379   6.547  0.00  0.00    +0.016 A 
ATOM     34  C   UNL     1      -7.460  -8.463   5.692  0.00  0.00    +0.016 A 
ATOM     38  C   UNL     1      -9.771  -6.963   5.256  0.00  0.00    +0.039 A 
ATOM     39  C   UNL     1      -7.789  -8.047   4.402  0.00  0.00    +0.039 A 
ATOM     40  C   UNL     1      -8.944  -7.297   4.184  0.00  0.00    +0.123 A 
ENDBRANCH  27  30
BRANCH  15   3
ATOM      3  O   UNL     1      -1.584 -11.047  16.668  0.00  0.00    -0.391 OA
ATOM     41  H   UNL     1      -1.989 -11.369  17.492  0.00  0.00    +0.210 HD
ENDBRANCH  15   3
BRANCH  12  20
ATOM     20  C   UNL     1      -1.580 -12.051  14.014  0.00  0.00    +0.165 C 
BRANCH  20   4
ATOM      4  O   UNL     1      -2.201 -13.010  14.839  0.00  0.00    -0.394 OA
ATOM     42  H   UNL     1      -2.680 -12.528  15.534  0.00  0.00    +0.209 HD
ENDBRANCH  20   4
ENDBRANCH  12  20
BRANCH  13  23
ATOM     23  C   UNL     1      -7.397 -10.760  13.161  0.00  0.00    +0.106 C 
BRANCH  23  24
ATOM      5  O   UNL     1      -8.331  -9.303  14.853  0.00  0.00    -0.276 OA
ATOM      8  N   UNL     1      -8.245 -11.595  15.233  0.00  0.00    -0.309 N 
ATOM     24  C   UNL     1      -8.038 -10.441  14.492  0.00  0.00    +0.214 C 
ATOM     43  H   UNL     1      -7.985 -12.495  14.842  0.00  0.00    +0.149 HD
BRANCH   8  26
ATOM     26  C   UNL     1      -8.842 -11.591  16.550  0.00  0.00    +0.100 C 
ATOM     28  C   UNL     1      -9.758 -12.800  16.727  0.00  0.00    +0.033 C 
BRANCH  26  29
ATOM     29  C   UNL     1      -7.786 -11.502  17.630  0.00  0.00    -0.027 A 
ATOM     31  C   UNL     1      -7.036 -12.629  17.968  0.00  0.00    +0.005 A 
ATOM     32  C   UNL     1      -7.562 -10.293  18.290  0.00  0.00    +0.005 A 
ATOM     35  C   UNL     1      -6.063 -12.547  18.964  0.00  0.00    +0.000 A 
ATOM     36  C   UNL     1      -6.589 -10.211  19.286  0.00  0.00    +0.000 A 
ATOM     37  C   UNL     1      -5.840 -11.338  19.623  0.00  0.00    +0.000 A 
ENDBRANCH  26  29
ENDBRANCH   8  26
ENDBRANCH  23  24
ENDBRANCH  13  23
TORSDOF 8
ENDMDL
MODEL 7
REMARK VINA RESULT:      -7.0     27.909     31.198
REMARK  Name = 7134871
REMARK  11 active torsions:
REMARK  status: ('A' for Active; 'I' for Inactive)
REMARK    1  A    between atoms: O_3  and  C_15
REMARK    2  A    between atoms: O_4  and  C_20
REMARK    3  A    between atoms: N_8  and  C_26
REMARK    4  A    between atoms: C_10  and  C_18
REMARK    5  A    between atoms: C_12  and  C_20
REMARK    6  A    between atoms: C_12  and  C_21
REMARK    7  A    between atoms: C_13  and  C_23
REMARK    8  A    between atoms: C_23  and  C_24
REMARK    9  A    between atoms: C_26  and  C_28
REMARK   10  A    between atoms: C_26  and  C_29
REMARK   11  A    between atoms: C_27  and  C_30
REMARK                            x       y       z     vdW  Elec       q    Type
REMARK                         _______ _______ _______ _____ _____    ______ ____
ROOT
ATOM      1  S   UNL     1      -6.219 -10.530  12.577  0.00  0.00    -0.057 S 
ATOM      6  O   UNL     1      -9.772  -8.559  10.304  0.00  0.00    -0.270 OA
ATOM      7  N   UNL     1      -8.645  -9.662  12.806  0.00  0.00    -0.229 NA
ATOM      9  N   UNL     1      -7.624  -9.473  10.631  0.00  0.00    -0.261 N 
ATOM     10  C   UNL     1      -8.668 -11.061  16.399  0.00  0.00    -0.019 C 
ATOM     11  C   UNL     1      -7.105 -10.818  16.587  0.00  0.00    +0.011 C 
ATOM     12  C   UNL     1      -6.456 -11.342  17.926  0.00  0.00    +0.021 C 
ATOM     13  C   UNL     1      -9.180 -10.096  15.233  0.00  0.00    +0.054 C 
ATOM     14  C   UNL     1      -9.410 -10.683  17.708  0.00  0.00    +0.010 C 
ATOM     15  C   UNL     1      -7.346 -10.916  19.128  0.00  0.00    +0.123 C 
ATOM     16  C   UNL     1      -6.311 -11.214  15.308  0.00  0.00    +0.049 C 
ATOM     17  C   UNL     1      -8.810 -11.308  18.959  0.00  0.00    +0.032 C 
ATOM     18  C   UNL     1      -9.010 -12.528  16.040  0.00  0.00    +0.012 C 
ATOM     19  C   UNL     1      -8.261 -10.153  14.040  0.00  0.00    +0.058 A 
ATOM     21  C   UNL     1      -5.069 -10.664  18.115  0.00  0.00    +0.016 C 
ATOM     22  C   UNL     1      -6.971 -10.641  14.100  0.00  0.00    +0.015 A 
ATOM     25  C   UNL     1      -7.653  -9.816  11.957  0.00  0.00    +0.165 A 
ATOM     27  C   UNL     1      -8.660  -8.876   9.894  0.00  0.00    +0.250 C 
ATOM     44  H   UNL     1      -6.728  -9.649  10.186  0.00  0.00    +0.157 HD
ENDROOT
BRANCH  27  30
ATOM      2  F   UNL     1      -7.464  -7.771   4.520  0.00  0.00    -0.205 F 
ATOM     30  C   UNL     1      -8.342  -8.583   8.472  0.00  0.00    +0.037 A 
ATOM     33  C   UNL     1      -7.623  -9.507   7.713  0.00  0.00    +0.016 A 
ATOM     34  C   UNL     1      -8.765  -7.386   7.895  0.00  0.00    +0.016 A 
ATOM     38  C   UNL     1      -7.326  -9.231   6.378  0.00  0.00    +0.039 A 
ATOM     39  C   UNL     1      -8.469  -7.111   6.560  0.00  0.00    +0.039 A 
ATOM     40  C   UNL     1      -7.748  -8.033   5.802  0.00  0.00    +0.123 A 
ENDBRANCH  27  30
BRANCH  15   3
ATOM      3  O   UNL     1      -6.856 -11.483  20.342  0.00  0.00    -0.391 OA
ATOM     41  H   UNL     1      -6.313 -12.256  20.108  0.00  0.00    +0.210 HD
ENDBRANCH  15   3
BRANCH  12  20
ATOM     20  C   UNL     1      -6.182 -12.862  17.955  0.00  0.00    +0.165 C 
BRANCH  20   4
ATOM      4  O   UNL     1      -4.978 -13.070  18.657  0.00  0.00    -0.394 OA
ATOM     42  H   UNL     1      -4.516 -13.811  18.228  0.00  0.00    +0.209 HD
ENDBRANCH  20   4
ENDBRANCH  12  20
BRANCH  13  23
ATOM     23  C   UNL     1     -10.644 -10.309  14.825  0.00  0.00    +0.106 C 
BRANCH  23  24
ATOM      5  O   UNL     1     -12.318  -9.239  16.206  0.00  0.00    -0.276 OA
ATOM      8  N   UNL     1     -11.321  -8.045  14.478  0.00  0.00    -0.309 N 
ATOM     24  C   UNL     1     -11.527  -9.166  15.268  0.00  0.00    +0.214 C 
ATOM     43  H   UNL     1     -10.631  -8.075  13.734  0.00  0.00    +0.149 HD
BRANCH   8  26
ATOM     26  C   UNL     1     -12.033  -6.802  14.672  0.00  0.00    +0.100 C 
ATOM     28  C   UNL     1     -11.339  -5.945  15.729  0.00  0.00    +0.033 C 
BRANCH  26  29
ATOM     29  C   UNL     1     -12.220  -6.067  13.362  0.00  0.00    -0.027 A 
ATOM     31  C   UNL     1     -12.170  -4.672  13.332  0.00  0.00    +0.005 A 
ATOM     32  C   UNL     1     -12.441  -6.781  12.185  0.00  0.00    +0.005 A 
ATOM     35  C   UNL     1     -12.342  -3.995  12.125  0.00  0.00    +0.000 A 
ATOM     36  C   UNL     1     -12.614  -6.104  10.978  0.00  0.00    +0.000 A 
ATOM     37  C   UNL     1     -12.564  -4.711  10.949  0.00  0.00    +0.000 A 
ENDBRANCH  26  29
ENDBRANCH   8  26
ENDBRANCH  23  24
ENDBRANCH  13  23
TORSDOF 8
ENDMDL
MODEL 8
REMARK VINA RESULT:      -7.0     40.642     43.497
REMARK  Name = 7134871
REMARK  11 active torsions:
REMARK  status: ('A' for Active; 'I' for Inactive)
REMARK    1  A    between atoms: O_3  and  C_15
REMARK    2  A    between atoms: O_4  and  C_20
REMARK    3  A    between atoms: N_8  and  C_26
REMARK    4  A    between atoms: C_10  and  C_18
REMARK    5  A    between atoms: C_12  and  C_20
REMARK    6  A    between atoms: C_12  and  C_21
REMARK    7  A    between atoms: C_13  and  C_23
REMARK    8  A    between atoms: C_23  and  C_24
REMARK    9  A    between atoms: C_26  and  C_28
REMARK   10  A    between atoms: C_26  and  C_29
REMARK   11  A    between atoms: C_27  and  C_30
REMARK                            x       y       z     vdW  Elec       q    Type
REMARK                         _______ _______ _______ _____ _____    ______ ____
ROOT
ATOM      1  S   UNL     1     -12.750   5.129  22.685  0.00  0.00    -0.057 S 
ATOM      6  O   UNL     1     -17.041   4.976  24.484  0.00  0.00    -0.270 OA
ATOM      7  N   UNL     1     -15.110   6.185  22.598  0.00  0.00    -0.229 NA
ATOM      9  N   UNL     1     -14.780   4.389  24.170  0.00  0.00    -0.261 N 
ATOM     10  C   UNL     1     -13.704   8.811  20.150  0.00  0.00    -0.019 C 
ATOM     11  C   UNL     1     -12.638   7.792  19.547  0.00  0.00    +0.011 C 
ATOM     12  C   UNL     1     -11.612   8.370  18.497  0.00  0.00    +0.021 C 
ATOM     13  C   UNL     1     -14.878   7.958  20.818  0.00  0.00    +0.054 C 
ATOM     14  C   UNL     1     -14.309   9.663  19.004  0.00  0.00    +0.010 C 
ATOM     15  C   UNL     1     -12.376   9.230  17.452  0.00  0.00    +0.123 C 
ATOM     16  C   UNL     1     -11.977   6.934  20.664  0.00  0.00    +0.049 C 
ATOM     17  C   UNL     1     -13.270  10.291  18.087  0.00  0.00    +0.032 C 
ATOM     18  C   UNL     1     -13.094   9.763  21.207  0.00  0.00    +0.012 C 
ATOM     19  C   UNL     1     -14.322   6.853  21.680  0.00  0.00    +0.058 A 
ATOM     21  C   UNL     1     -10.955   7.187  17.730  0.00  0.00    +0.016 C 
ATOM     22  C   UNL     1     -13.023   6.396  21.581  0.00  0.00    +0.015 A 
ATOM     25  C   UNL     1     -14.386   5.263  23.192  0.00  0.00    +0.165 A 
ATOM     27  C   UNL     1     -16.056   4.295  24.749  0.00  0.00    +0.250 C 
ATOM     44  H   UNL     1     -14.054   3.735  24.447  0.00  0.00    +0.157 HD
ENDROOT
BRANCH  27  30
ATOM      2  F   UNL     1     -16.657   0.269  28.619  0.00  0.00    -0.205 F 
ATOM     30  C   UNL     1     -16.214   3.228  25.773  0.00  0.00    +0.037 A 
ATOM     33  C   UNL     1     -16.033   3.527  27.125  0.00  0.00    +0.016 A 
ATOM     34  C   UNL     1     -16.545   1.931  25.384  0.00  0.00    +0.016 A 
ATOM     38  C   UNL     1     -16.183   2.526  28.085  0.00  0.00    +0.039 A 
ATOM     39  C   UNL     1     -16.694   0.931  26.345  0.00  0.00    +0.039 A 
ATOM     40  C   UNL     1     -16.513   1.228  27.695  0.00  0.00    +0.123 A 
ENDBRANCH  27  30
BRANCH  15   3
ATOM      3  O   UNL     1     -11.463   9.872  16.563  0.00  0.00    -0.391 OA
ATOM     41  H   UNL     1     -10.757   9.235  16.357  0.00  0.00    +0.210 HD
ENDBRANCH  15   3
BRANCH  12  20
ATOM     20  C   UNL     1     -10.440   9.165  19.115  0.00  0.00    +0.165 C 
BRANCH  20   4
ATOM      4  O   UNL     1      -9.400   9.208  18.166  0.00  0.00    -0.394 OA
ATOM     42  H   UNL     1      -8.576   8.975  18.627  0.00  0.00    +0.209 HD
ENDBRANCH  20   4
ENDBRANCH  12  20
BRANCH  13  23
ATOM     23  C   UNL     1     -15.919   8.791  21.577  0.00  0.00    +0.106 C 
BRANCH  23  24
ATOM      5  O   UNL     1     -18.286   9.230  21.325  0.00  0.00    -0.276 OA
ATOM      8  N   UNL     1     -17.382   7.276  20.449  0.00  0.00    -0.309 N 
ATOM     24  C   UNL     1     -17.328   8.488  21.120  0.00  0.00    +0.214 C 
ATOM     43  H   UNL     1     -16.531   6.739  20.314  0.00  0.00    +0.149 HD
BRANCH   8  26
ATOM     26  C   UNL     1     -18.604   6.730  19.902  0.00  0.00    +0.100 C 
ATOM     28  C   UNL     1     -18.717   7.055  18.414  0.00  0.00    +0.033 C 
BRANCH  26  29
ATOM     29  C   UNL     1     -18.716   5.247  20.181  0.00  0.00    -0.027 A 
ATOM     31  C   UNL     1     -19.353   4.411  19.263  0.00  0.00    +0.005 A 
ATOM     32  C   UNL     1     -18.183   4.714  21.354  0.00  0.00    +0.005 A 
ATOM     35  C   UNL     1     -19.456   3.044  19.520  0.00  0.00    +0.000 A 
ATOM     36  C   UNL     1     -18.286   3.347  21.611  0.00  0.00    +0.000 A 
ATOM     37  C   UNL     1     -18.924   2.513  20.694  0.00  0.00    +0.000 A 
ENDBRANCH  26  29
ENDBRANCH   8  26
ENDBRANCH  23  24
ENDBRANCH  13  23
TORSDOF 8
ENDMDL
MODEL 9
REMARK VINA RESULT:      -6.9     14.487     17.096
REMARK  Name = 7134871
REMARK  11 active torsions:
REMARK  status: ('A' for Active; 'I' for Inactive)
REMARK    1  A    between atoms: O_3  and  C_15
REMARK    2  A    between atoms: O_4  and  C_20
REMARK    3  A    between atoms: N_8  and  C_26
REMARK    4  A    between atoms: C_10  and  C_18
REMARK    5  A    between atoms: C_12  and  C_20
REMARK    6  A    between atoms: C_12  and  C_21
REMARK    7  A    between atoms: C_13  and  C_23
REMARK    8  A    between atoms: C_23  and  C_24
REMARK    9  A    between atoms: C_26  and  C_28
REMARK   10  A    between atoms: C_26  and  C_29
REMARK   11  A    between atoms: C_27  and  C_30
REMARK                            x       y       z     vdW  Elec       q    Type
REMARK                         _______ _______ _______ _____ _____    ______ ____
ROOT
ATOM      1  S   UNL     1      15.632   8.040   5.833  0.00  0.00    -0.057 S 
ATOM      6  O   UNL     1      12.634   6.805   2.492  0.00  0.00    -0.270 OA
ATOM      7  N   UNL     1      15.379   7.550   3.305  0.00  0.00    -0.229 NA
ATOM      9  N   UNL     1      13.393   7.347   4.656  0.00  0.00    -0.261 N 
ATOM     10  C   UNL     1      19.033   8.693   2.850  0.00  0.00    -0.019 C 
ATOM     11  C   UNL     1      19.452   8.196   4.304  0.00  0.00    +0.011 C 
ATOM     12  C   UNL     1      20.922   8.522   4.775  0.00  0.00    +0.021 C 
ATOM     13  C   UNL     1      17.715   7.899   2.419  0.00  0.00    +0.054 C 
ATOM     14  C   UNL     1      20.161   8.350   1.843  0.00  0.00    +0.010 C 
ATOM     15  C   UNL     1      21.917   8.162   3.635  0.00  0.00    +0.123 C 
ATOM     16  C   UNL     1      18.363   8.547   5.360  0.00  0.00    +0.049 C 
ATOM     17  C   UNL     1      21.546   8.789   2.295  0.00  0.00    +0.032 C 
ATOM     18  C   UNL     1      18.760  10.216   2.790  0.00  0.00    +0.012 C 
ATOM     19  C   UNL     1      16.699   7.891   3.532  0.00  0.00    +0.058 A 
ATOM     21  C   UNL     1      21.272   7.624   5.995  0.00  0.00    +0.016 C 
ATOM     22  C   UNL     1      17.015   8.166   4.848  0.00  0.00    +0.015 A 
ATOM     25  C   UNL     1      14.722   7.602   4.443  0.00  0.00    +0.165 A 
ATOM     27  C   UNL     1      12.444   6.971   3.692  0.00  0.00    +0.250 C 
ATOM     44  H   UNL     1      13.120   7.410   5.632  0.00  0.00    +0.157 HD
ENDROOT
BRANCH  27  30
ATOM      2  F   UNL     1       7.261   6.043   5.645  0.00  0.00    -0.205 F 
ATOM     30  C   UNL     1      11.072   6.726   4.210  0.00  0.00    +0.037 A 
ATOM     33  C   UNL     1       9.984   7.391   3.643  0.00  0.00    +0.016 A 
ATOM     34  C   UNL     1      10.873   5.831   5.260  0.00  0.00    +0.016 A 
ATOM     38  C   UNL     1       8.696   7.160   4.129  0.00  0.00    +0.039 A 
ATOM     39  C   UNL     1       9.585   5.600   5.745  0.00  0.00    +0.039 A 
ATOM     40  C   UNL     1       8.497   6.265   5.180  0.00  0.00    +0.123 A 
ENDBRANCH  27  30
BRANCH  15   3
ATOM      3  O   UNL     1      23.242   8.563   3.980  0.00  0.00    -0.391 OA
ATOM     41  H   UNL     1      23.231   9.526   4.117  0.00  0.00    +0.210 HD
ENDBRANCH  15   3
BRANCH  12  20
ATOM     20  C   UNL     1      21.135   9.975   5.254  0.00  0.00    +0.165 C 
BRANCH  20   4
ATOM      4  O   UNL     1      21.917   9.932   6.426  0.00  0.00    -0.394 OA
ATOM     42  H   UNL     1      22.815  10.219   6.186  0.00  0.00    +0.209 HD
ENDBRANCH  20   4
ENDBRANCH  12  20
BRANCH  13  23
ATOM     23  C   UNL     1      17.093   8.366   1.096  0.00  0.00    +0.106 C 
BRANCH  23  24
ATOM      5  O   UNL     1      17.634   7.082  -0.883  0.00  0.00    -0.276 OA
ATOM      8  N   UNL     1      15.893   6.390   0.493  0.00  0.00    -0.309 N 
ATOM     24  C   UNL     1      16.931   7.229   0.114  0.00  0.00    +0.214 C 
ATOM     43  H   UNL     1      15.378   6.584   1.346  0.00  0.00    +0.149 HD
BRANCH   8  26
ATOM     26  C   UNL     1      15.509   5.218  -0.262  0.00  0.00    +0.100 C 
ATOM     28  C   UNL     1      16.610   4.160  -0.207  0.00  0.00    +0.033 C 
BRANCH  26  29
ATOM     29  C   UNL     1      14.170   4.685   0.198  0.00  0.00    -0.027 A 
ATOM     31  C   UNL     1      13.004   5.056  -0.473  0.00  0.00    +0.005 A 
ATOM     32  C   UNL     1      14.099   3.821   1.291  0.00  0.00    +0.005 A 
ATOM     35  C   UNL     1      11.769   4.564  -0.050  0.00  0.00    +0.000 A 
ATOM     36  C   UNL     1      12.865   3.330   1.714  0.00  0.00    +0.000 A 
ATOM     37  C   UNL     1      11.700   3.702   1.044  0.00  0.00    +0.000 A 
ENDBRANCH  26  29
ENDBRANCH   8  26
ENDBRANCH  23  24
ENDBRANCH  13  23
TORSDOF 8
ENDMDL
MODEL 10
REMARK VINA RESULT:      -6.9     31.525     35.530
REMARK  Name = 7134871
REMARK  11 active torsions:
REMARK  status: ('A' for Active; 'I' for Inactive)
REMARK    1  A    between atoms: O_3  and  C_15
REMARK    2  A    between atoms: O_4  and  C_20
REMARK    3  A    between atoms: N_8  and  C_26
REMARK    4  A    between atoms: C_10  and  C_18
REMARK    5  A    between atoms: C_12  and  C_20
REMARK    6  A    between atoms: C_12  and  C_21
REMARK    7  A    between atoms: C_13  and  C_23
REMARK    8  A    between atoms: C_23  and  C_24
REMARK    9  A    between atoms: C_26  and  C_28
REMARK   10  A    between atoms: C_26  and  C_29
REMARK   11  A    between atoms: C_27  and  C_30
REMARK                            x       y       z     vdW  Elec       q    Type
REMARK                         _______ _______ _______ _____ _____    ______ ____
ROOT
ATOM      1  S   UNL     1       7.401  -9.265  31.008  0.00  0.00    -0.057 S 
ATOM      6  O   UNL     1       5.639 -13.465  31.970  0.00  0.00    -0.270 OA
ATOM      7  N   UNL     1       6.501 -10.791  32.894  0.00  0.00    -0.229 NA
ATOM      9  N   UNL     1       6.528 -11.714  30.667  0.00  0.00    -0.261 N 
ATOM     10  C   UNL     1       7.546  -8.070  35.417  0.00  0.00    -0.019 C 
ATOM     11  C   UNL     1       7.295  -6.894  34.373  0.00  0.00    +0.011 C 
ATOM     12  C   UNL     1       7.691  -5.437  34.828  0.00  0.00    +0.021 C 
ATOM     13  C   UNL     1       6.695  -9.338  34.946  0.00  0.00    +0.054 C 
ATOM     14  C   UNL     1       7.040  -7.634  36.817  0.00  0.00    +0.010 C 
ATOM     15  C   UNL     1       7.146  -5.182  36.262  0.00  0.00    +0.123 C 
ATOM     16  C   UNL     1       7.817  -7.272  32.956  0.00  0.00    +0.049 C 
ATOM     17  C   UNL     1       7.544  -6.267  37.257  0.00  0.00    +0.032 C 
ATOM     18  C   UNL     1       9.039  -8.465  35.531  0.00  0.00    +0.012 C 
ATOM     19  C   UNL     1       6.872  -9.592  33.471  0.00  0.00    +0.058 A 
ATOM     21  C   UNL     1       7.005  -4.408  33.884  0.00  0.00    +0.016 C 
ATOM     22  C   UNL     1       7.360  -8.644  32.593  0.00  0.00    +0.015 A 
ATOM     25  C   UNL     1       6.742 -10.736  31.602  0.00  0.00    +0.165 A 
ATOM     27  C   UNL     1       6.000 -12.995  30.897  0.00  0.00    +0.250 C 
ATOM     44  H   UNL     1       6.752 -11.425  29.720  0.00  0.00    +0.157 HD
ENDROOT
BRANCH  27  30
ATOM      2  F   UNL     1       5.418 -16.207  26.327  0.00  0.00    -0.205 F 
ATOM     30  C   UNL     1       5.847 -13.847  29.687  0.00  0.00    +0.037 A 
ATOM     33  C   UNL     1       4.646 -14.519  29.456  0.00  0.00    +0.016 A 
ATOM     34  C   UNL     1       6.901 -13.971  28.784  0.00  0.00    +0.016 A 
ATOM     38  C   UNL     1       4.502 -15.317  28.320  0.00  0.00    +0.039 A 
ATOM     39  C   UNL     1       6.757 -14.769  27.648  0.00  0.00    +0.039 A 
ATOM     40  C   UNL     1       5.557 -15.442  27.417  0.00  0.00    +0.123 A 
ENDBRANCH  27  30
BRANCH  15   3
ATOM      3  O   UNL     1       7.596  -3.920  36.754  0.00  0.00    -0.391 OA
ATOM     41  H   UNL     1       6.811  -3.367  36.908  0.00  0.00    +0.210 HD
ENDBRANCH  15   3
BRANCH  12  20
ATOM     20  C   UNL     1       9.202  -5.128  34.750  0.00  0.00    +0.165 C 
BRANCH  20   4
ATOM      4  O   UNL     1       9.359  -3.909  34.060  0.00  0.00    -0.394 OA
ATOM     42  H   UNL     1      10.313  -3.729  34.002  0.00  0.00    +0.209 HD
ENDBRANCH  20   4
ENDBRANCH  12  20
BRANCH  13  23
ATOM     23  C   UNL     1       6.939 -10.611  35.768  0.00  0.00    +0.106 C 
BRANCH  23  24
ATOM      5  O   UNL     1       5.641 -11.821  37.413  0.00  0.00    -0.276 OA
ATOM      8  N   UNL     1       4.555 -10.725  35.674  0.00  0.00    -0.309 N 
ATOM     24  C   UNL     1       5.667 -11.131  36.396  0.00  0.00    +0.214 C 
ATOM     43  H   UNL     1       4.676 -10.140  34.854  0.00  0.00    +0.149 HD
BRANCH   8  26
ATOM     26  C   UNL     1       3.203 -11.078  36.043  0.00  0.00    +0.100 C 
ATOM     28  C   UNL     1       2.245  -9.930  35.733  0.00  0.00    +0.033 C 
BRANCH  26  29
ATOM     29  C   UNL     1       2.778 -12.377  35.392  0.00  0.00    -0.027 A 
ATOM     31  C   UNL     1       2.936 -12.552  34.016  0.00  0.00    +0.005 A 
ATOM     32  C   UNL     1       2.229 -13.400  36.165  0.00  0.00    +0.005 A 
ATOM     35  C   UNL     1       2.544 -13.749  33.416  0.00  0.00    +0.000 A 
ATOM     36  C   UNL     1       1.837 -14.596  35.565  0.00  0.00    +0.000 A 
ATOM     37  C   UNL     1       1.995 -14.770  34.191  0.00  0.00    +0.000 A 
ENDBRANCH  26  29
ENDBRANCH   8  26
ENDBRANCH  23  24
ENDBRANCH  13  23
TORSDOF 8
ENDMDL
