MODEL 1
REMARK VINA RESULT:      -5.7      0.000      0.000
REMARK  Name = 56775621
REMARK  10 active torsions:
REMARK  status: ('A' for Active; 'I' for Inactive)
REMARK    1  A    between atoms: N_3  and  C_6
REMARK    2  A    between atoms: N_3  and  C_8
REMARK    3  A    between atoms: N_5  and  C_20
REMARK    4  A    between atoms: N_5  and  C_21
REMARK    5  A    between atoms: N_5  and  C_22
REMARK    6  A    between atoms: C_6  and  C_13
REMARK    7  A    between atoms: C_7  and  C_8
REMARK    8  A    between atoms: C_13  and  C_17
REMARK    9  A    between atoms: C_19  and  C_20
REMARK   10  A    between atoms: C_21  and  C_23
REMARK                            x       y       z     vdW  Elec       q    Type
REMARK                         _______ _______ _______ _____ _____    ______ ____
ROOT
ATOM      2  O   UNL     1      10.486   8.974  22.241  0.00  0.00    -0.358 OA
ATOM      4  N   UNL     1      10.545  10.154  22.973  0.00  0.00    -0.083 NA
ATOM     17  C   UNL     1      11.289  10.983  22.234  0.00  0.00    +0.086 A 
ATOM     18  C   UNL     1      11.722  10.387  21.038  0.00  0.00    +0.072 A 
ATOM     19  C   UNL     1      11.191   9.125  21.091  0.00  0.00    +0.151 A 
ENDROOT
BRANCH  17  13
ATOM     13  C   UNL     1      11.569  12.387  22.726  0.00  0.00    +0.085 C 
BRANCH  13   6
ATOM      1  O   UNL     1      12.629  13.718  25.538  0.00  0.00    -0.376 OA
ATOM      6  C   UNL     1      12.511  12.365  23.891  0.00  0.00    +0.072 C 
ATOM     11  C   UNL     1      13.277  13.634  24.247  0.00  0.00    +0.184 C 
ATOM     12  C   UNL     1      11.943  12.468  25.302  0.00  0.00    +0.184 C 
BRANCH   6   3
ATOM      3  N   UNL     1      13.455  11.242  23.842  0.00  0.00    -0.306 NA
ATOM     29  H   UNL     1      13.407  10.629  24.655  0.00  0.00    +0.123 HD
BRANCH   3   8
ATOM      8  C   UNL     1      14.810  11.752  23.698  0.00  0.00    +0.085 C 
BRANCH   8   7
ATOM      7  C   UNL     1      15.579  10.964  22.639  0.00  0.00    +0.003 C 
ATOM      9  C   UNL     1      17.083  11.260  22.730  0.00  0.00    +0.005 C 
ATOM     10  C   UNL     1      15.044  11.277  21.236  0.00  0.00    +0.005 C 
ATOM     14  C   UNL     1      17.867  10.525  21.647  0.00  0.00    +0.000 C 
ATOM     15  C   UNL     1      15.832  10.540  20.155  0.00  0.00    +0.000 C 
ATOM     16  C   UNL     1      17.327  10.830  20.253  0.00  0.00    +0.000 C 
ENDBRANCH   8   7
ENDBRANCH   3   8
ENDBRANCH   6   3
ENDBRANCH  13   6
ENDBRANCH  17  13
BRANCH  19  20
ATOM     20  C   UNL     1      11.233   7.965  20.192  0.00  0.00    +0.161 C 
BRANCH  20   5
ATOM      5  N   UNL     1      12.076   6.869  20.698  0.00  0.00    -0.294 NA
ATOM     22  C   UNL     1      11.265   5.920  21.452  0.00  0.00    +0.105 C 
BRANCH   5  21
ATOM     21  C   UNL     1      13.151   7.406  21.525  0.00  0.00    +0.119 C 
BRANCH  21  23
ATOM     23  C   UNL     1      14.505   7.161  20.913  0.00  0.00    -0.033 A 
ATOM     24  C   UNL     1      15.647   7.178  21.714  0.00  0.00    +0.005 A 
ATOM     25  C   UNL     1      14.617   6.916  19.545  0.00  0.00    +0.005 A 
ATOM     26  C   UNL     1      16.901   6.953  21.147  0.00  0.00    +0.000 A 
ATOM     27  C   UNL     1      15.872   6.689  18.977  0.00  0.00    +0.000 A 
ATOM     28  C   UNL     1      17.013   6.708  19.778  0.00  0.00    +0.000 A 
ENDBRANCH  21  23
ENDBRANCH   5  21
ENDBRANCH  20   5
ENDBRANCH  19  20
TORSDOF 9
ENDMDL
MODEL 2
REMARK VINA RESULT:      -5.3     26.325     29.307
REMARK  Name = 56775621
REMARK  10 active torsions:
REMARK  status: ('A' for Active; 'I' for Inactive)
REMARK    1  A    between atoms: N_3  and  C_6
REMARK    2  A    between atoms: N_3  and  C_8
REMARK    3  A    between atoms: N_5  and  C_20
REMARK    4  A    between atoms: N_5  and  C_21
REMARK    5  A    between atoms: N_5  and  C_22
REMARK    6  A    between atoms: C_6  and  C_13
REMARK    7  A    between atoms: C_7  and  C_8
REMARK    8  A    between atoms: C_13  and  C_17
REMARK    9  A    between atoms: C_19  and  C_20
REMARK   10  A    between atoms: C_21  and  C_23
REMARK                            x       y       z     vdW  Elec       q    Type
REMARK                         _______ _______ _______ _____ _____    ______ ____
ROOT
ATOM      2  O   UNL     1     -17.203   3.522  23.473  0.00  0.00    -0.358 OA
ATOM      4  N   UNL     1     -16.430   3.977  22.411  0.00  0.00    -0.083 NA
ATOM     17  C   UNL     1     -15.320   4.463  22.974  0.00  0.00    +0.086 A 
ATOM     18  C   UNL     1     -15.336   4.343  24.374  0.00  0.00    +0.072 A 
ATOM     19  C   UNL     1     -16.541   3.746  24.637  0.00  0.00    +0.151 A 
ENDROOT
BRANCH  17  13
ATOM     13  C   UNL     1     -14.229   5.051  22.105  0.00  0.00    +0.085 C 
BRANCH  13   6
ATOM      1  O   UNL     1     -16.491   7.282  21.263  0.00  0.00    -0.376 OA
ATOM      6  C   UNL     1     -14.573   6.451  21.694  0.00  0.00    +0.072 C 
ATOM     11  C   UNL     1     -15.452   6.666  20.467  0.00  0.00    +0.184 C 
ATOM     12  C   UNL     1     -15.669   7.194  22.449  0.00  0.00    +0.184 C 
BRANCH   6   3
ATOM      3  N   UNL     1     -13.396   7.322  21.591  0.00  0.00    -0.306 NA
ATOM     29  H   UNL     1     -13.564   8.180  21.066  0.00  0.00    +0.123 HD
BRANCH   3   8
ATOM      8  C   UNL     1     -12.299   6.587  20.980  0.00  0.00    +0.085 C 
BRANCH   8   7
ATOM      7  C   UNL     1     -11.386   7.526  20.195  0.00  0.00    +0.003 C 
ATOM      9  C   UNL     1     -11.747   8.992  20.473  0.00  0.00    +0.005 C 
ATOM     10  C   UNL     1     -11.458   7.221  18.692  0.00  0.00    +0.005 C 
ATOM     14  C   UNL     1     -10.883   9.950  19.658  0.00  0.00    +0.000 C 
ATOM     15  C   UNL     1     -10.593   8.182  17.881  0.00  0.00    +0.000 C 
ATOM     16  C   UNL     1     -10.949   9.638  18.166  0.00  0.00    +0.000 C 
ENDBRANCH   8   7
ENDBRANCH   3   8
ENDBRANCH   6   3
ENDBRANCH  13   6
ENDBRANCH  17  13
BRANCH  19  20
ATOM     20  C   UNL     1     -17.219   3.323  25.868  0.00  0.00    +0.161 C 
BRANCH  20   5
ATOM      5  N   UNL     1     -16.539   2.211  26.553  0.00  0.00    -0.294 NA
ATOM     22  C   UNL     1     -16.739   0.970  25.813  0.00  0.00    +0.105 C 
BRANCH   5  21
ATOM     21  C   UNL     1     -17.036   2.087  27.919  0.00  0.00    +0.119 C 
BRANCH  21  23
ATOM     23  C   UNL     1     -15.913   1.961  28.914  0.00  0.00    -0.033 A 
ATOM     24  C   UNL     1     -15.138   3.075  29.237  0.00  0.00    +0.005 A 
ATOM     25  C   UNL     1     -15.648   0.730  29.514  0.00  0.00    +0.005 A 
ATOM     26  C   UNL     1     -14.097   2.959  30.158  0.00  0.00    +0.000 A 
ATOM     27  C   UNL     1     -14.607   0.614  30.437  0.00  0.00    +0.000 A 
ATOM     28  C   UNL     1     -13.832   1.727  30.759  0.00  0.00    +0.000 A 
ENDBRANCH  21  23
ENDBRANCH   5  21
ENDBRANCH  20   5
ENDBRANCH  19  20
TORSDOF 9
ENDMDL
MODEL 3
REMARK VINA RESULT:      -5.3     13.259     16.255
REMARK  Name = 56775621
REMARK  10 active torsions:
REMARK  status: ('A' for Active; 'I' for Inactive)
REMARK    1  A    between atoms: N_3  and  C_6
REMARK    2  A    between atoms: N_3  and  C_8
REMARK    3  A    between atoms: N_5  and  C_20
REMARK    4  A    between atoms: N_5  and  C_21
REMARK    5  A    between atoms: N_5  and  C_22
REMARK    6  A    between atoms: C_6  and  C_13
REMARK    7  A    between atoms: C_7  and  C_8
REMARK    8  A    between atoms: C_13  and  C_17
REMARK    9  A    between atoms: C_19  and  C_20
REMARK   10  A    between atoms: C_21  and  C_23
REMARK                            x       y       z     vdW  Elec       q    Type
REMARK                         _______ _______ _______ _____ _____    ______ ____
ROOT
ATOM      2  O   UNL     1      20.001  -3.912  28.631  0.00  0.00    -0.358 OA
ATOM      4  N   UNL     1      19.152  -4.896  29.122  0.00  0.00    -0.083 NA
ATOM     17  C   UNL     1      17.921  -4.472  28.821  0.00  0.00    +0.086 A 
ATOM     18  C   UNL     1      17.931  -3.239  28.148  0.00  0.00    +0.072 A 
ATOM     19  C   UNL     1      19.262  -2.930  28.053  0.00  0.00    +0.151 A 
ENDROOT
BRANCH  17  13
ATOM     13  C   UNL     1      16.719  -5.309  29.208  0.00  0.00    +0.085 C 
BRANCH  13   6
ATOM      1  O   UNL     1      15.355  -8.232  28.579  0.00  0.00    -0.376 OA
ATOM      6  C   UNL     1      16.621  -6.529  28.344  0.00  0.00    +0.072 C 
ATOM     11  C   UNL     1      16.700  -7.905  28.996  0.00  0.00    +0.184 C 
ATOM     12  C   UNL     1      15.248  -6.982  27.860  0.00  0.00    +0.184 C 
BRANCH   6   3
ATOM      3  N   UNL     1      17.538  -6.495  27.199  0.00  0.00    -0.306 NA
ATOM     29  H   UNL     1      18.265  -5.783  27.275  0.00  0.00    +0.123 HD
BRANCH   3   8
ATOM      8  C   UNL     1      16.780  -6.285  25.975  0.00  0.00    +0.085 C 
BRANCH   8   7
ATOM      7  C   UNL     1      17.653  -5.646  24.897  0.00  0.00    +0.003 C 
ATOM      9  C   UNL     1      17.598  -6.466  23.600  0.00  0.00    +0.005 C 
ATOM     10  C   UNL     1      19.099  -5.497  25.389  0.00  0.00    +0.005 C 
ATOM     14  C   UNL     1      18.506  -5.878  22.523  0.00  0.00    +0.000 C 
ATOM     15  C   UNL     1      20.004  -4.909  24.308  0.00  0.00    +0.000 C 
ATOM     16  C   UNL     1      19.940  -5.722  23.018  0.00  0.00    +0.000 C 
ENDBRANCH   8   7
ENDBRANCH   3   8
ENDBRANCH   6   3
ENDBRANCH  13   6
ENDBRANCH  17  13
BRANCH  19  20
ATOM     20  C   UNL     1      20.006  -1.802  27.479  0.00  0.00    +0.161 C 
BRANCH  20   5
ATOM      5  N   UNL     1      20.103  -1.859  26.010  0.00  0.00    -0.294 NA
ATOM     22  C   UNL     1      21.474  -1.591  25.588  0.00  0.00    +0.105 C 
BRANCH   5  21
ATOM     21  C   UNL     1      19.179  -0.902  25.411  0.00  0.00    +0.119 C 
BRANCH  21  23
ATOM     23  C   UNL     1      18.137  -1.584  24.566  0.00  0.00    -0.033 A 
ATOM     24  C   UNL     1      18.399  -1.865  23.225  0.00  0.00    +0.005 A 
ATOM     25  C   UNL     1      16.908  -1.935  25.124  0.00  0.00    +0.005 A 
ATOM     26  C   UNL     1      17.433  -2.496  22.441  0.00  0.00    +0.000 A 
ATOM     27  C   UNL     1      15.941  -2.567  24.341  0.00  0.00    +0.000 A 
ATOM     28  C   UNL     1      16.203  -2.847  23.000  0.00  0.00    +0.000 A 
ENDBRANCH  21  23
ENDBRANCH   5  21
ENDBRANCH  20   5
ENDBRANCH  19  20
TORSDOF 9
ENDMDL
MODEL 4
REMARK VINA RESULT:      -5.3     15.854     18.537
REMARK  Name = 56775621
REMARK  10 active torsions:
REMARK  status: ('A' for Active; 'I' for Inactive)
REMARK    1  A    between atoms: N_3  and  C_6
REMARK    2  A    between atoms: N_3  and  C_8
REMARK    3  A    between atoms: N_5  and  C_20
REMARK    4  A    between atoms: N_5  and  C_21
REMARK    5  A    between atoms: N_5  and  C_22
REMARK    6  A    between atoms: C_6  and  C_13
REMARK    7  A    between atoms: C_7  and  C_8
REMARK    8  A    between atoms: C_13  and  C_17
REMARK    9  A    between atoms: C_19  and  C_20
REMARK   10  A    between atoms: C_21  and  C_23
REMARK                            x       y       z     vdW  Elec       q    Type
REMARK                         _______ _______ _______ _____ _____    ______ ____
ROOT
ATOM      2  O   UNL     1      12.310   8.957   5.551  0.00  0.00    -0.358 OA
ATOM      4  N   UNL     1      12.036   8.458   6.818  0.00  0.00    -0.083 NA
ATOM     17  C   UNL     1      12.005   7.130   6.669  0.00  0.00    +0.086 A 
ATOM     18  C   UNL     1      12.250   6.737   5.342  0.00  0.00    +0.072 A 
ATOM     19  C   UNL     1      12.435   7.923   4.680  0.00  0.00    +0.151 A 
ENDROOT
BRANCH  17  13
ATOM     13  C   UNL     1      11.730   6.242   7.864  0.00  0.00    +0.085 C 
BRANCH  13   6
ATOM      1  O   UNL     1       9.514   3.912   8.543  0.00  0.00    -0.376 OA
ATOM      6  C   UNL     1      10.307   5.774   7.863  0.00  0.00    +0.072 C 
ATOM     11  C   UNL     1       9.977   4.410   7.267  0.00  0.00    +0.184 C 
ATOM     12  C   UNL     1       9.715   5.209   9.150  0.00  0.00    +0.184 C 
BRANCH   6   3
ATOM      3  N   UNL     1       9.378   6.768   7.312  0.00  0.00    -0.306 NA
ATOM     29  H   UNL     1       8.728   7.149   8.000  0.00  0.00    +0.123 HD
BRANCH   3   8
ATOM      8  C   UNL     1       8.630   6.177   6.213  0.00  0.00    +0.085 C 
BRANCH   8   7
ATOM      7  C   UNL     1       8.299   7.227   5.154  0.00  0.00    +0.003 C 
ATOM      9  C   UNL     1       9.028   6.918   3.838  0.00  0.00    +0.005 C 
ATOM     10  C   UNL     1       8.651   8.634   5.656  0.00  0.00    +0.005 C 
ATOM     14  C   UNL     1       8.755   7.983   2.780  0.00  0.00    +0.000 C 
ATOM     15  C   UNL     1       8.377   9.696   4.594  0.00  0.00    +0.000 C 
ATOM     16  C   UNL     1       9.096   9.381   3.286  0.00  0.00    +0.000 C 
ENDBRANCH   8   7
ENDBRANCH   3   8
ENDBRANCH   6   3
ENDBRANCH  13   6
ENDBRANCH  17  13
BRANCH  19  20
ATOM     20  C   UNL     1      12.728   8.273   3.285  0.00  0.00    +0.161 C 
BRANCH  20   5
ATOM      5  N   UNL     1      13.782   7.438   2.685  0.00  0.00    -0.294 NA
ATOM     22  C   UNL     1      15.044   8.169   2.655  0.00  0.00    +0.105 C 
BRANCH   5  21
ATOM     21  C   UNL     1      13.389   7.024   1.342  0.00  0.00    +0.119 C 
BRANCH  21  23
ATOM     23  C   UNL     1      12.276   6.011   1.371  0.00  0.00    -0.033 A 
ATOM     24  C   UNL     1      11.137   6.203   0.588  0.00  0.00    +0.005 A 
ATOM     25  C   UNL     1      12.383   4.880   2.180  0.00  0.00    +0.005 A 
ATOM     26  C   UNL     1      10.105   5.265   0.615  0.00  0.00    +0.000 A 
ATOM     27  C   UNL     1      11.351   3.941   2.206  0.00  0.00    +0.000 A 
ATOM     28  C   UNL     1      10.213   4.134   1.424  0.00  0.00    +0.000 A 
ENDBRANCH  21  23
ENDBRANCH   5  21
ENDBRANCH  20   5
ENDBRANCH  19  20
TORSDOF 9
ENDMDL
MODEL 5
REMARK VINA RESULT:      -5.3     27.630     29.841
REMARK  Name = 56775621
REMARK  10 active torsions:
REMARK  status: ('A' for Active; 'I' for Inactive)
REMARK    1  A    between atoms: N_3  and  C_6
REMARK    2  A    between atoms: N_3  and  C_8
REMARK    3  A    between atoms: N_5  and  C_20
REMARK    4  A    between atoms: N_5  and  C_21
REMARK    5  A    between atoms: N_5  and  C_22
REMARK    6  A    between atoms: C_6  and  C_13
REMARK    7  A    between atoms: C_7  and  C_8
REMARK    8  A    between atoms: C_13  and  C_17
REMARK    9  A    between atoms: C_19  and  C_20
REMARK   10  A    between atoms: C_21  and  C_23
REMARK                            x       y       z     vdW  Elec       q    Type
REMARK                         _______ _______ _______ _____ _____    ______ ____
ROOT
ATOM      2  O   UNL     1      -5.082  -9.927  15.715  0.00  0.00    -0.358 OA
ATOM      4  N   UNL     1      -6.147  -9.803  16.599  0.00  0.00    -0.083 NA
ATOM     17  C   UNL     1      -5.758 -10.450  17.702  0.00  0.00    +0.086 A 
ATOM     18  C   UNL     1      -4.470 -10.997  17.573  0.00  0.00    +0.072 A 
ATOM     19  C   UNL     1      -4.090 -10.640  16.306  0.00  0.00    +0.151 A 
ENDROOT
BRANCH  17  13
ATOM     13  C   UNL     1      -6.681 -10.522  18.900  0.00  0.00    +0.085 C 
BRANCH  13   6
ATOM      1  O   UNL     1      -8.197 -13.426  19.170  0.00  0.00    -0.376 OA
ATOM      6  C   UNL     1      -7.865 -11.393  18.608  0.00  0.00    +0.072 C 
ATOM     11  C   UNL     1      -7.636 -12.775  18.006  0.00  0.00    +0.184 C 
ATOM     12  C   UNL     1      -8.528 -12.146  19.756  0.00  0.00    +0.184 C 
BRANCH   6   3
ATOM      3  N   UNL     1      -8.904 -10.705  17.832  0.00  0.00    -0.306 NA
ATOM     29  H   UNL     1      -8.573  -9.865  17.356  0.00  0.00    +0.123 HD
BRANCH   3   8
ATOM      8  C   UNL     1     -10.015 -10.361  18.706  0.00  0.00    +0.085 C 
BRANCH   8   7
ATOM      7  C   UNL     1     -10.792  -9.167  18.154  0.00  0.00    +0.003 C 
ATOM      9  C   UNL     1     -11.994  -9.639  17.324  0.00  0.00    +0.005 C 
ATOM     10  C   UNL     1      -9.874  -8.262  17.321  0.00  0.00    +0.005 C 
ATOM     14  C   UNL     1     -12.755  -8.464  16.717  0.00  0.00    +0.000 C 
ATOM     15  C   UNL     1     -10.640  -7.089  16.715  0.00  0.00    +0.000 C 
ATOM     16  C   UNL     1     -11.839  -7.561  15.897  0.00  0.00    +0.000 C 
ENDBRANCH   8   7
ENDBRANCH   3   8
ENDBRANCH   6   3
ENDBRANCH  13   6
ENDBRANCH  17  13
BRANCH  19  20
ATOM     20  C   UNL     1      -2.880 -10.866  15.506  0.00  0.00    +0.161 C 
BRANCH  20   5
ATOM      5  N   UNL     1      -3.150 -11.536  14.223  0.00  0.00    -0.294 NA
ATOM     22  C   UNL     1      -2.917 -12.971  14.348  0.00  0.00    +0.105 C 
BRANCH   5  21
ATOM     21  C   UNL     1      -2.312 -10.964  13.174  0.00  0.00    +0.119 C 
BRANCH  21  23
ATOM     23  C   UNL     1      -3.132 -10.289  12.108  0.00  0.00    -0.033 A 
ATOM     24  C   UNL     1      -2.512  -9.781  10.966  0.00  0.00    +0.005 A 
ATOM     25  C   UNL     1      -4.514 -10.172  12.260  0.00  0.00    +0.005 A 
ATOM     26  C   UNL     1      -3.272  -9.155   9.978  0.00  0.00    +0.000 A 
ATOM     27  C   UNL     1      -5.275  -9.546  11.272  0.00  0.00    +0.000 A 
ATOM     28  C   UNL     1      -4.654  -9.038  10.131  0.00  0.00    +0.000 A 
ENDBRANCH  21  23
ENDBRANCH   5  21
ENDBRANCH  20   5
ENDBRANCH  19  20
TORSDOF 9
ENDMDL
MODEL 6
REMARK VINA RESULT:      -5.2     27.918     29.743
REMARK  Name = 56775621
REMARK  10 active torsions:
REMARK  status: ('A' for Active; 'I' for Inactive)
REMARK    1  A    between atoms: N_3  and  C_6
REMARK    2  A    between atoms: N_3  and  C_8
REMARK    3  A    between atoms: N_5  and  C_20
REMARK    4  A    between atoms: N_5  and  C_21
REMARK    5  A    between atoms: N_5  and  C_22
REMARK    6  A    between atoms: C_6  and  C_13
REMARK    7  A    between atoms: C_7  and  C_8
REMARK    8  A    between atoms: C_13  and  C_17
REMARK    9  A    between atoms: C_19  and  C_20
REMARK   10  A    between atoms: C_21  and  C_23
REMARK                            x       y       z     vdW  Elec       q    Type
REMARK                         _______ _______ _______ _____ _____    ______ ____
ROOT
ATOM      2  O   UNL     1      -4.966 -12.067  14.413  0.00  0.00    -0.358 OA
ATOM      4  N   UNL     1      -5.760 -12.672  15.380  0.00  0.00    -0.083 NA
ATOM     17  C   UNL     1      -5.175 -12.375  16.544  0.00  0.00    +0.086 A 
ATOM     18  C   UNL     1      -4.019 -11.592  16.375  0.00  0.00    +0.072 A 
ATOM     19  C   UNL     1      -3.933 -11.427  15.018  0.00  0.00    +0.151 A 
ENDROOT
BRANCH  17  13
ATOM     13  C   UNL     1      -5.776 -12.874  17.841  0.00  0.00    +0.085 C 
BRANCH  13   6
ATOM      1  O   UNL     1      -6.562 -11.048  20.458  0.00  0.00    -0.376 OA
ATOM      6  C   UNL     1      -6.636 -11.820  18.469  0.00  0.00    +0.072 C 
ATOM     11  C   UNL     1      -7.301 -12.109  19.810  0.00  0.00    +0.184 C 
ATOM     12  C   UNL     1      -5.968 -10.660  19.198  0.00  0.00    +0.184 C 
BRANCH   6   3
ATOM      3  N   UNL     1      -7.645 -11.282  17.548  0.00  0.00    -0.306 NA
ATOM     29  H   UNL     1      -7.602 -11.682  16.611  0.00  0.00    +0.123 HD
BRANCH   3   8
ATOM      8  C   UNL     1      -7.504  -9.836  17.465  0.00  0.00    +0.085 C 
BRANCH   8   7
ATOM      7  C   UNL     1      -8.832  -9.141  17.758  0.00  0.00    +0.003 C 
ATOM      9  C   UNL     1      -9.908 -10.169  18.136  0.00  0.00    +0.005 C 
ATOM     10  C   UNL     1      -9.279  -8.298  16.556  0.00  0.00    +0.005 C 
ATOM     14  C   UNL     1     -11.260  -9.504  18.381  0.00  0.00    +0.000 C 
ATOM     15  C   UNL     1     -10.632  -7.636  16.806  0.00  0.00    +0.000 C 
ATOM     16  C   UNL     1     -11.697  -8.659  17.189  0.00  0.00    +0.000 C 
ENDBRANCH   8   7
ENDBRANCH   3   8
ENDBRANCH   6   3
ENDBRANCH  13   6
ENDBRANCH  17  13
BRANCH  19  20
ATOM     20  C   UNL     1      -2.989 -10.729  14.137  0.00  0.00    +0.161 C 
BRANCH  20   5
ATOM      5  N   UNL     1      -2.541 -11.550  12.999  0.00  0.00    -0.294 NA
ATOM     22  C   UNL     1      -1.576 -12.546  13.449  0.00  0.00    +0.105 C 
BRANCH   5  21
ATOM     21  C   UNL     1      -1.964 -10.698  11.964  0.00  0.00    +0.119 C 
BRANCH  21  23
ATOM     23  C   UNL     1      -2.930 -10.454  10.836  0.00  0.00    -0.033 A 
ATOM     24  C   UNL     1      -3.683 -11.509  10.321  0.00  0.00    +0.005 A 
ATOM     25  C   UNL     1      -3.073  -9.172  10.305  0.00  0.00    +0.005 A 
ATOM     26  C   UNL     1      -4.578 -11.284   9.275  0.00  0.00    +0.000 A 
ATOM     27  C   UNL     1      -3.969  -8.946   9.260  0.00  0.00    +0.000 A 
ATOM     28  C   UNL     1      -4.721 -10.001   8.744  0.00  0.00    +0.000 A 
ENDBRANCH  21  23
ENDBRANCH   5  21
ENDBRANCH  20   5
ENDBRANCH  19  20
TORSDOF 9
ENDMDL
MODEL 7
REMARK VINA RESULT:      -5.2     26.116     29.761
REMARK  Name = 56775621
REMARK  10 active torsions:
REMARK  status: ('A' for Active; 'I' for Inactive)
REMARK    1  A    between atoms: N_3  and  C_6
REMARK    2  A    between atoms: N_3  and  C_8
REMARK    3  A    between atoms: N_5  and  C_20
REMARK    4  A    between atoms: N_5  and  C_21
REMARK    5  A    between atoms: N_5  and  C_22
REMARK    6  A    between atoms: C_6  and  C_13
REMARK    7  A    between atoms: C_7  and  C_8
REMARK    8  A    between atoms: C_13  and  C_17
REMARK    9  A    between atoms: C_19  and  C_20
REMARK   10  A    between atoms: C_21  and  C_23
REMARK                            x       y       z     vdW  Elec       q    Type
REMARK                         _______ _______ _______ _____ _____    ______ ____
ROOT
ATOM      2  O   UNL     1      -2.657 -12.686  12.335  0.00  0.00    -0.358 OA
ATOM      4  N   UNL     1      -3.169 -12.291  11.105  0.00  0.00    -0.083 NA
ATOM     17  C   UNL     1      -3.181 -10.956  11.148  0.00  0.00    +0.086 A 
ATOM     18  C   UNL     1      -2.693 -10.457  12.368  0.00  0.00    +0.072 A 
ATOM     19  C   UNL     1      -2.377 -11.585  13.078  0.00  0.00    +0.151 A 
ENDROOT
BRANCH  17  13
ATOM     13  C   UNL     1      -3.683 -10.167   9.957  0.00  0.00    +0.085 C 
BRANCH  13   6
ATOM      1  O   UNL     1      -6.267  -8.207   9.427  0.00  0.00    -0.376 OA
ATOM      6  C   UNL     1      -5.155  -9.911  10.071  0.00  0.00    +0.072 C 
ATOM     11  C   UNL     1      -5.633  -8.593  10.668  0.00  0.00    +0.184 C 
ATOM     12  C   UNL     1      -5.927  -9.479   8.829  0.00  0.00    +0.184 C 
BRANCH   6   3
ATOM      3  N   UNL     1      -5.878 -11.013  10.717  0.00  0.00    -0.306 NA
ATOM     29  H   UNL     1      -6.502 -11.520  10.088  0.00  0.00    +0.123 HD
BRANCH   3   8
ATOM      8  C   UNL     1      -6.640 -10.499  11.845  0.00  0.00    +0.085 C 
BRANCH   8   7
ATOM      7  C   UNL     1      -7.135 -11.639  12.732  0.00  0.00    +0.003 C 
ATOM      9  C   UNL     1      -8.186 -11.132  13.730  0.00  0.00    +0.005 C 
ATOM     10  C   UNL     1      -5.962 -12.304  13.464  0.00  0.00    +0.005 C 
ATOM     14  C   UNL     1      -8.657 -12.242  14.665  0.00  0.00    +0.000 C 
ATOM     15  C   UNL     1      -6.439 -13.414  14.399  0.00  0.00    +0.000 C 
ATOM     16  C   UNL     1      -7.488 -12.908  15.384  0.00  0.00    +0.000 C 
ENDBRANCH   8   7
ENDBRANCH   3   8
ENDBRANCH   6   3
ENDBRANCH  13   6
ENDBRANCH  17  13
BRANCH  19  20
ATOM     20  C   UNL     1      -1.824 -11.822  14.417  0.00  0.00    +0.161 C 
BRANCH  20   5
ATOM      5  N   UNL     1      -2.161 -10.761  15.381  0.00  0.00    -0.294 NA
ATOM     22  C   UNL     1      -0.973  -9.976  15.698  0.00  0.00    +0.105 C 
BRANCH   5  21
ATOM     21  C   UNL     1      -2.733 -11.346  16.589  0.00  0.00    +0.119 C 
BRANCH  21  23
ATOM     23  C   UNL     1      -4.125 -10.836  16.853  0.00  0.00    -0.033 A 
ATOM     24  C   UNL     1      -4.767 -10.037  15.906  0.00  0.00    +0.005 A 
ATOM     25  C   UNL     1      -4.773 -11.162  18.043  0.00  0.00    +0.005 A 
ATOM     26  C   UNL     1      -6.056  -9.564  16.151  0.00  0.00    +0.000 A 
ATOM     27  C   UNL     1      -6.064 -10.690  18.288  0.00  0.00    +0.000 A 
ATOM     28  C   UNL     1      -6.705  -9.891  17.342  0.00  0.00    +0.000 A 
ENDBRANCH  21  23
ENDBRANCH   5  21
ENDBRANCH  20   5
ENDBRANCH  19  20
TORSDOF 9
ENDMDL
MODEL 8
REMARK VINA RESULT:      -5.1     27.610     29.710
REMARK  Name = 56775621
REMARK  10 active torsions:
REMARK  status: ('A' for Active; 'I' for Inactive)
REMARK    1  A    between atoms: N_3  and  C_6
REMARK    2  A    between atoms: N_3  and  C_8
REMARK    3  A    between atoms: N_5  and  C_20
REMARK    4  A    between atoms: N_5  and  C_21
REMARK    5  A    between atoms: N_5  and  C_22
REMARK    6  A    between atoms: C_6  and  C_13
REMARK    7  A    between atoms: C_7  and  C_8
REMARK    8  A    between atoms: C_13  and  C_17
REMARK    9  A    between atoms: C_19  and  C_20
REMARK   10  A    between atoms: C_21  and  C_23
REMARK                            x       y       z     vdW  Elec       q    Type
REMARK                         _______ _______ _______ _____ _____    ______ ____
ROOT
ATOM      2  O   UNL     1      -4.684 -10.813  14.369  0.00  0.00    -0.358 OA
ATOM      4  N   UNL     1      -5.909 -10.493  14.940  0.00  0.00    -0.083 NA
ATOM     17  C   UNL     1      -5.629 -10.185  16.210  0.00  0.00    +0.086 A 
ATOM     18  C   UNL     1      -4.257 -10.292  16.494  0.00  0.00    +0.072 A 
ATOM     19  C   UNL     1      -3.707 -10.690  15.304  0.00  0.00    +0.151 A 
ENDROOT
BRANCH  17  13
ATOM     13  C   UNL     1      -6.743  -9.777  17.151  0.00  0.00    +0.085 C 
BRANCH  13   6
ATOM      1  O   UNL     1      -7.583 -11.210  19.986  0.00  0.00    -0.376 OA
ATOM      6  C   UNL     1      -7.280 -10.966  17.888  0.00  0.00    +0.072 C 
ATOM     11  C   UNL     1      -6.500 -11.513  19.078  0.00  0.00    +0.184 C 
ATOM     12  C   UNL     1      -8.412 -10.765  18.888  0.00  0.00    +0.184 C 
BRANCH   6   3
ATOM      3  N   UNL     1      -7.628 -12.080  16.998  0.00  0.00    -0.306 NA
ATOM     29  H   UNL     1      -8.632 -12.218  16.885  0.00  0.00    +0.123 HD
BRANCH   3   8
ATOM      8  C   UNL     1      -7.022 -13.306  17.495  0.00  0.00    +0.085 C 
BRANCH   8   7
ATOM      7  C   UNL     1      -6.418 -14.118  16.351  0.00  0.00    +0.003 C 
ATOM      9  C   UNL     1      -4.894 -13.938  16.305  0.00  0.00    +0.005 C 
ATOM     10  C   UNL     1      -7.055 -13.724  15.011  0.00  0.00    +0.005 C 
ATOM     14  C   UNL     1      -4.272 -14.697  15.136  0.00  0.00    +0.000 C 
ATOM     15  C   UNL     1      -6.429 -14.485  13.845  0.00  0.00    +0.000 C 
ATOM     16  C   UNL     1      -4.914 -14.310  13.807  0.00  0.00    +0.000 C 
ENDBRANCH   8   7
ENDBRANCH   3   8
ENDBRANCH   6   3
ENDBRANCH  13   6
ENDBRANCH  17  13
BRANCH  19  20
ATOM     20  C   UNL     1      -2.339 -10.992  14.866  0.00  0.00    +0.161 C 
BRANCH  20   5
ATOM      5  N   UNL     1      -2.283 -11.664  13.557  0.00  0.00    -0.294 NA
ATOM     22  C   UNL     1      -1.468 -12.870  13.647  0.00  0.00    +0.105 C 
BRANCH   5  21
ATOM     21  C   UNL     1      -1.752 -10.752  12.549  0.00  0.00    +0.119 C 
BRANCH  21  23
ATOM     23  C   UNL     1      -2.684 -10.610  11.376  0.00  0.00    -0.033 A 
ATOM     24  C   UNL     1      -3.467 -11.691  10.970  0.00  0.00    +0.005 A 
ATOM     25  C   UNL     1      -2.766  -9.396  10.694  0.00  0.00    +0.005 A 
ATOM     26  C   UNL     1      -4.330 -11.560   9.882  0.00  0.00    +0.000 A 
ATOM     27  C   UNL     1      -3.631  -9.264   9.606  0.00  0.00    +0.000 A 
ATOM     28  C   UNL     1      -4.412 -10.345   9.200  0.00  0.00    +0.000 A 
ENDBRANCH  21  23
ENDBRANCH   5  21
ENDBRANCH  20   5
ENDBRANCH  19  20
TORSDOF 9
ENDMDL
MODEL 9
REMARK VINA RESULT:      -5.1     26.497     29.537
REMARK  Name = 56775621
REMARK  10 active torsions:
REMARK  status: ('A' for Active; 'I' for Inactive)
REMARK    1  A    between atoms: N_3  and  C_6
REMARK    2  A    between atoms: N_3  and  C_8
REMARK    3  A    between atoms: N_5  and  C_20
REMARK    4  A    between atoms: N_5  and  C_21
REMARK    5  A    between atoms: N_5  and  C_22
REMARK    6  A    between atoms: C_6  and  C_13
REMARK    7  A    between atoms: C_7  and  C_8
REMARK    8  A    between atoms: C_13  and  C_17
REMARK    9  A    between atoms: C_19  and  C_20
REMARK   10  A    between atoms: C_21  and  C_23
REMARK                            x       y       z     vdW  Elec       q    Type
REMARK                         _______ _______ _______ _____ _____    ______ ____
ROOT
ATOM      2  O   UNL     1      -4.277 -11.156  10.047  0.00  0.00    -0.358 OA
ATOM      4  N   UNL     1      -3.428 -11.418  11.116  0.00  0.00    -0.083 NA
ATOM     17  C   UNL     1      -2.675 -10.321  11.237  0.00  0.00    +0.086 A 
ATOM     18  C   UNL     1      -3.000  -9.343  10.283  0.00  0.00    +0.072 A 
ATOM     19  C   UNL     1      -4.013  -9.917   9.559  0.00  0.00    +0.151 A 
ENDROOT
BRANCH  17  13
ATOM     13  C   UNL     1      -1.620 -10.246  12.321  0.00  0.00    +0.085 C 
BRANCH  13   6
ATOM      1  O   UNL     1      -1.257 -11.481  15.345  0.00  0.00    -0.376 OA
ATOM      6  C   UNL     1      -2.207 -10.581  13.658  0.00  0.00    +0.072 C 
ATOM     11  C   UNL     1      -2.014 -11.985  14.221  0.00  0.00    +0.184 C 
ATOM     12  C   UNL     1      -1.484 -10.118  14.918  0.00  0.00    +0.184 C 
BRANCH   6   3
ATOM      3  N   UNL     1      -3.625 -10.219  13.767  0.00  0.00    -0.306 NA
ATOM     29  H   UNL     1      -3.783  -9.276  14.124  0.00  0.00    +0.123 HD
BRANCH   3   8
ATOM      8  C   UNL     1      -4.308 -11.181  14.619  0.00  0.00    +0.085 C 
BRANCH   8   7
ATOM      7  C   UNL     1      -4.832 -10.509  15.888  0.00  0.00    +0.003 C 
ATOM      9  C   UNL     1      -4.438 -11.319  17.131  0.00  0.00    +0.005 C 
ATOM     10  C   UNL     1      -6.353 -10.325  15.815  0.00  0.00    +0.005 C 
ATOM     14  C   UNL     1      -4.995 -10.697  18.408  0.00  0.00    +0.000 C 
ATOM     15  C   UNL     1      -6.907  -9.703  17.095  0.00  0.00    +0.000 C 
ATOM     16  C   UNL     1      -6.507 -10.506  18.329  0.00  0.00    +0.000 C 
ENDBRANCH   8   7
ENDBRANCH   3   8
ENDBRANCH   6   3
ENDBRANCH  13   6
ENDBRANCH  17  13
BRANCH  19  20
ATOM     20  C   UNL     1      -4.824  -9.475   8.419  0.00  0.00    +0.161 C 
BRANCH  20   5
ATOM      5  N   UNL     1      -6.263  -9.738   8.593  0.00  0.00    -0.294 NA
ATOM     22  C   UNL     1      -6.890  -9.973   7.297  0.00  0.00    +0.105 C 
BRANCH   5  21
ATOM     21  C   UNL     1      -6.896  -8.617   9.280  0.00  0.00    +0.119 C 
BRANCH  21  23
ATOM     23  C   UNL     1      -7.633  -9.062  10.515  0.00  0.00    -0.033 A 
ATOM     24  C   UNL     1      -6.952  -9.192  11.726  0.00  0.00    +0.005 A 
ATOM     25  C   UNL     1      -8.998  -9.344  10.450  0.00  0.00    +0.005 A 
ATOM     26  C   UNL     1      -7.635  -9.605  12.870  0.00  0.00    +0.000 A 
ATOM     27  C   UNL     1      -9.681  -9.755  11.595  0.00  0.00    +0.000 A 
ATOM     28  C   UNL     1      -9.000  -9.886  12.804  0.00  0.00    +0.000 A 
ENDBRANCH  21  23
ENDBRANCH   5  21
ENDBRANCH  20   5
ENDBRANCH  19  20
TORSDOF 9
ENDMDL
MODEL 10
REMARK VINA RESULT:      -5.1     25.407     27.621
REMARK  Name = 56775621
REMARK  10 active torsions:
REMARK  status: ('A' for Active; 'I' for Inactive)
REMARK    1  A    between atoms: N_3  and  C_6
REMARK    2  A    between atoms: N_3  and  C_8
REMARK    3  A    between atoms: N_5  and  C_20
REMARK    4  A    between atoms: N_5  and  C_21
REMARK    5  A    between atoms: N_5  and  C_22
REMARK    6  A    between atoms: C_6  and  C_13
REMARK    7  A    between atoms: C_7  and  C_8
REMARK    8  A    between atoms: C_13  and  C_17
REMARK    9  A    between atoms: C_19  and  C_20
REMARK   10  A    between atoms: C_21  and  C_23
REMARK                            x       y       z     vdW  Elec       q    Type
REMARK                         _______ _______ _______ _____ _____    ______ ____
ROOT
ATOM      2  O   UNL     1     -15.105  10.888  22.094  0.00  0.00    -0.358 OA
ATOM      4  N   UNL     1     -15.556   9.581  21.956  0.00  0.00    -0.083 NA
ATOM     17  C   UNL     1     -14.938   8.898  22.924  0.00  0.00    +0.086 A 
ATOM     18  C   UNL     1     -14.094   9.713  23.697  0.00  0.00    +0.072 A 
ATOM     19  C   UNL     1     -14.236  10.954  23.134  0.00  0.00    +0.151 A 
ENDROOT
BRANCH  17  13
ATOM     13  C   UNL     1     -15.195   7.414  23.082  0.00  0.00    +0.085 C 
BRANCH  13   6
ATOM      1  O   UNL     1     -15.294   4.701  21.229  0.00  0.00    -0.376 OA
ATOM      6  C   UNL     1     -14.745   6.663  21.866  0.00  0.00    +0.072 C 
ATOM     11  C   UNL     1     -14.216   5.242  22.026  0.00  0.00    +0.184 C 
ATOM     12  C   UNL     1     -15.794   6.031  20.959  0.00  0.00    +0.184 C 
BRANCH   6   3
ATOM      3  N   UNL     1     -13.804   7.427  21.038  0.00  0.00    -0.306 NA
ATOM     29  H   UNL     1     -14.115   7.558  20.075  0.00  0.00    +0.123 HD
BRANCH   3   8
ATOM      8  C   UNL     1     -12.507   6.769  21.043  0.00  0.00    +0.085 C 
BRANCH   8   7
ATOM      7  C   UNL     1     -11.484   7.573  20.242  0.00  0.00    +0.003 C 
ATOM      9  C   UNL     1     -11.687   9.078  20.463  0.00  0.00    +0.005 C 
ATOM     10  C   UNL     1     -11.570   7.223  18.750  0.00  0.00    +0.005 C 
ATOM     14  C   UNL     1     -10.711   9.906  19.630  0.00  0.00    +0.000 C 
ATOM     15  C   UNL     1     -10.593   8.053  17.921  0.00  0.00    +0.000 C 
ATOM     16  C   UNL     1     -10.791   9.549  18.149  0.00  0.00    +0.000 C 
ENDBRANCH   8   7
ENDBRANCH   3   8
ENDBRANCH   6   3
ENDBRANCH  13   6
ENDBRANCH  17  13
BRANCH  19  20
ATOM     20  C   UNL     1     -13.659  12.273  23.423  0.00  0.00    +0.161 C 
BRANCH  20   5
ATOM      5  N   UNL     1     -13.803  12.674  24.832  0.00  0.00    -0.294 NA
ATOM     22  C   UNL     1     -14.701  13.819  24.938  0.00  0.00    +0.105 C 
BRANCH   5  21
ATOM     21  C   UNL     1     -12.496  12.986  25.400  0.00  0.00    +0.119 C 
BRANCH  21  23
ATOM     23  C   UNL     1     -12.058  11.950  26.401  0.00  0.00    -0.033 A 
ATOM     24  C   UNL     1     -11.343  10.830  25.978  0.00  0.00    +0.005 A 
ATOM     25  C   UNL     1     -12.366  12.112  27.751  0.00  0.00    +0.005 A 
ATOM     26  C   UNL     1     -10.938   9.869  26.905  0.00  0.00    +0.000 A 
ATOM     27  C   UNL     1     -11.960  11.152  28.679  0.00  0.00    +0.000 A 
ATOM     28  C   UNL     1     -11.247  10.031  28.256  0.00  0.00    +0.000 A 
ENDBRANCH  21  23
ENDBRANCH   5  21
ENDBRANCH  20   5
ENDBRANCH  19  20
TORSDOF 9
ENDMDL
