MODEL 1
REMARK VINA RESULT:      -6.9      0.000      0.000
REMARK  Name = 75536515
REMARK  11 active torsions:
REMARK  status: ('A' for Active; 'I' for Inactive)
REMARK    1  A    between atoms: O_2  and  C_10
REMARK    2  A    between atoms: N_5  and  C_8
REMARK    3  A    between atoms: N_5  and  C_9
REMARK    4  A    between atoms: N_7  and  C_17
REMARK    5  A    between atoms: C_11  and  C_17
REMARK    6  A    between atoms: C_18  and  C_22
REMARK    7  A    between atoms: C_19  and  C_20
REMARK    8  A    between atoms: C_19  and  C_23
REMARK    9  A    between atoms: C_19  and  C_24
REMARK   10  A    between atoms: C_19  and  C_25
REMARK   11  A    between atoms: C_20  and  C_21
REMARK                            x       y       z     vdW  Elec       q    Type
REMARK                         _______ _______ _______ _____ _____    ______ ____
ROOT
ATOM      1  O   UNL     1      10.622   8.653  20.044  0.00  0.00    -0.371 OA
ATOM      8  C   UNL     1      12.416   7.244  19.385  0.00  0.00    +0.111 C 
ATOM     10  C   UNL     1      12.217   7.123  20.885  0.00  0.00    +0.164 C 
ATOM     11  C   UNL     1      10.787   7.622  21.032  0.00  0.00    +0.165 C 
ATOM     12  C   UNL     1      11.693   8.547  19.090  0.00  0.00    +0.181 C 
ENDROOT
BRANCH  10   2
ATOM      2  O   UNL     1      12.364   5.796  21.351  0.00  0.00    -0.388 OA
ATOM     27  H   UNL     1      11.584   5.286  21.072  0.00  0.00    +0.210 HD
ENDBRANCH  10   2
BRANCH   8   5
ATOM      5  N   UNL     1      13.813   7.268  18.982  0.00  0.00    -0.306 NA
ATOM     26  H   UNL     1      13.970   8.009  18.300  0.00  0.00    +0.123 HD
BRANCH   5   9
ATOM      3  O   UNL     1      19.128   9.398  21.224  0.00  0.00    -0.276 OA
ATOM      6  N   UNL     1      17.308   7.953  21.257  0.00  0.00    -0.302 N 
ATOM      9  C   UNL     1      14.683   7.463  20.139  0.00  0.00    +0.057 C 
ATOM     13  C   UNL     1      15.336   8.849  20.080  0.00  0.00    +0.037 C 
ATOM     14  C   UNL     1      15.756   6.366  20.183  0.00  0.00    +0.037 C 
ATOM     15  C   UNL     1      16.325   9.037  21.229  0.00  0.00    +0.109 C 
ATOM     16  C   UNL     1      16.736   6.604  21.331  0.00  0.00    +0.109 C 
ATOM     18  C   UNL     1      18.671   8.253  21.251  0.00  0.00    +0.212 C 
ATOM     22  C   UNL     1      19.620   7.081  21.276  0.00  0.00    +0.109 C 
ENDBRANCH   5   9
ENDBRANCH   8   5
BRANCH  11  17
ATOM     17  C   UNL     1      10.484   8.179  22.412  0.00  0.00    +0.138 C 
BRANCH  17   7
ATOM      4  O   UNL     1      12.594  10.147  22.672  0.00  0.00    -0.276 OA
ATOM      7  N   UNL     1      10.351   9.608  22.380  0.00  0.00    -0.313 N 
ATOM     21  C   UNL     1      11.421  10.483  22.514  0.00  0.00    +0.214 C 
ATOM     28  H   UNL     1       9.419   9.987  22.243  0.00  0.00    +0.149 HD
BRANCH  21  20
ATOM     20  C   UNL     1      11.016  11.947  22.454  0.00  0.00    +0.102 C 
BRANCH  20  19
ATOM     19  C   UNL     1      11.170  12.716  23.789  0.00  0.00    -0.029 C 
ATOM     23  C   UNL     1      10.061  13.784  23.854  0.00  0.00    +0.011 C 
ATOM     24  C   UNL     1      11.016  11.781  24.998  0.00  0.00    +0.011 C 
ATOM     25  C   UNL     1      12.532  13.425  23.865  0.00  0.00    +0.011 C 
ENDBRANCH  20  19
ENDBRANCH  21  20
ENDBRANCH  17   7
ENDBRANCH  11  17
TORSDOF 7
ENDMDL
MODEL 2
REMARK VINA RESULT:      -6.4      2.860      3.958
REMARK  Name = 75536515
REMARK  11 active torsions:
REMARK  status: ('A' for Active; 'I' for Inactive)
REMARK    1  A    between atoms: O_2  and  C_10
REMARK    2  A    between atoms: N_5  and  C_8
REMARK    3  A    between atoms: N_5  and  C_9
REMARK    4  A    between atoms: N_7  and  C_17
REMARK    5  A    between atoms: C_11  and  C_17
REMARK    6  A    between atoms: C_18  and  C_22
REMARK    7  A    between atoms: C_19  and  C_20
REMARK    8  A    between atoms: C_19  and  C_23
REMARK    9  A    between atoms: C_19  and  C_24
REMARK   10  A    between atoms: C_19  and  C_25
REMARK   11  A    between atoms: C_20  and  C_21
REMARK                            x       y       z     vdW  Elec       q    Type
REMARK                         _______ _______ _______ _____ _____    ______ ____
ROOT
ATOM      1  O   UNL     1      11.126   7.016  20.834  0.00  0.00    -0.371 OA
ATOM      8  C   UNL     1      13.466   6.918  20.444  0.00  0.00    +0.111 C 
ATOM     10  C   UNL     1      13.171   8.057  21.403  0.00  0.00    +0.164 C 
ATOM     11  C   UNL     1      11.804   7.648  21.932  0.00  0.00    +0.165 C 
ATOM     12  C   UNL     1      12.097   6.683  19.828  0.00  0.00    +0.181 C 
ENDROOT
BRANCH  10   2
ATOM      2  O   UNL     1      14.129   8.159  22.439  0.00  0.00    -0.388 OA
ATOM     27  H   UNL     1      13.714   7.869  23.269  0.00  0.00    +0.210 HD
ENDBRANCH  10   2
BRANCH   8   5
ATOM      5  N   UNL     1      14.485   7.237  19.456  0.00  0.00    -0.306 NA
ATOM     26  H   UNL     1      14.764   6.394  18.955  0.00  0.00    +0.123 HD
BRANCH   5   9
ATOM      3  O   UNL     1      15.249  10.208  14.128  0.00  0.00    -0.276 OA
ATOM      6  N   UNL     1      14.465  10.058  16.310  0.00  0.00    -0.302 N 
ATOM      9  C   UNL     1      13.996   8.240  18.513  0.00  0.00    +0.057 C 
ATOM     13  C   UNL     1      14.162   7.734  17.074  0.00  0.00    +0.037 C 
ATOM     14  C   UNL     1      14.754   9.559  18.708  0.00  0.00    +0.037 C 
ATOM     15  C   UNL     1      13.747   8.806  16.068  0.00  0.00    +0.109 C 
ATOM     16  C   UNL     1      14.326  10.595  17.669  0.00  0.00    +0.109 C 
ATOM     18  C   UNL     1      15.176  10.661  15.272  0.00  0.00    +0.212 C 
ATOM     22  C   UNL     1      15.893  11.946  15.603  0.00  0.00    +0.109 C 
ENDBRANCH   5   9
ENDBRANCH   8   5
BRANCH  11  17
ATOM     17  C   UNL     1      10.982   8.819  22.440  0.00  0.00    +0.138 C 
BRANCH  17   7
ATOM      4  O   UNL     1      11.120  11.682  22.018  0.00  0.00    -0.276 OA
ATOM      7  N   UNL     1      11.800   9.764  23.145  0.00  0.00    -0.313 N 
ATOM     21  C   UNL     1      11.804  11.128  22.876  0.00  0.00    +0.214 C 
ATOM     28  H   UNL     1      12.396   9.406  23.884  0.00  0.00    +0.149 HD
BRANCH  21  20
ATOM     20  C   UNL     1      12.764  11.913  23.755  0.00  0.00    +0.102 C 
BRANCH  20  19
ATOM     19  C   UNL     1      12.082  12.830  24.800  0.00  0.00    -0.029 C 
ATOM     23  C   UNL     1      13.077  13.058  25.955  0.00  0.00    +0.011 C 
ATOM     24  C   UNL     1      11.717  14.196  24.197  0.00  0.00    +0.011 C 
ATOM     25  C   UNL     1      10.816  12.171  25.372  0.00  0.00    +0.011 C 
ENDBRANCH  20  19
ENDBRANCH  21  20
ENDBRANCH  17   7
ENDBRANCH  11  17
TORSDOF 7
ENDMDL
MODEL 3
REMARK VINA RESULT:      -6.3      3.766     10.113
REMARK  Name = 75536515
REMARK  11 active torsions:
REMARK  status: ('A' for Active; 'I' for Inactive)
REMARK    1  A    between atoms: O_2  and  C_10
REMARK    2  A    between atoms: N_5  and  C_8
REMARK    3  A    between atoms: N_5  and  C_9
REMARK    4  A    between atoms: N_7  and  C_17
REMARK    5  A    between atoms: C_11  and  C_17
REMARK    6  A    between atoms: C_18  and  C_22
REMARK    7  A    between atoms: C_19  and  C_20
REMARK    8  A    between atoms: C_19  and  C_23
REMARK    9  A    between atoms: C_19  and  C_24
REMARK   10  A    between atoms: C_19  and  C_25
REMARK   11  A    between atoms: C_20  and  C_21
REMARK                            x       y       z     vdW  Elec       q    Type
REMARK                         _______ _______ _______ _____ _____    ______ ____
ROOT
ATOM      1  O   UNL     1      19.366   7.153  21.991  0.00  0.00    -0.371 OA
ATOM      8  C   UNL     1      17.443   6.788  20.646  0.00  0.00    +0.111 C 
ATOM     10  C   UNL     1      18.653   6.191  19.951  0.00  0.00    +0.164 C 
ATOM     11  C   UNL     1      19.615   6.037  21.121  0.00  0.00    +0.165 C 
ATOM     12  C   UNL     1      18.101   7.737  21.634  0.00  0.00    +0.181 C 
ENDROOT
BRANCH  10   2
ATOM      2  O   UNL     1      18.371   4.951  19.333  0.00  0.00    -0.388 OA
ATOM     27  H   UNL     1      19.203   4.455  19.248  0.00  0.00    +0.210 HD
ENDBRANCH  10   2
BRANCH   8   5
ATOM      5  N   UNL     1      16.524   7.461  19.741  0.00  0.00    -0.306 NA
ATOM     26  H   UNL     1      16.811   7.313  18.774  0.00  0.00    +0.123 HD
BRANCH   5   9
ATOM      3  O   UNL     1      10.487   8.535  19.283  0.00  0.00    -0.276 OA
ATOM      6  N   UNL     1      12.329   7.500  20.250  0.00  0.00    -0.302 N 
ATOM      9  C   UNL     1      15.159   6.978  19.936  0.00  0.00    +0.057 C 
ATOM     13  C   UNL     1      14.281   7.391  18.748  0.00  0.00    +0.037 C 
ATOM     14  C   UNL     1      14.585   7.535  21.245  0.00  0.00    +0.037 C 
ATOM     15  C   UNL     1      12.827   6.980  18.976  0.00  0.00    +0.109 C 
ATOM     16  C   UNL     1      13.125   7.120  21.424  0.00  0.00    +0.109 C 
ATOM     18  C   UNL     1      11.159   8.259  20.280  0.00  0.00    +0.212 C 
ATOM     22  C   UNL     1      10.715   8.762  21.630  0.00  0.00    +0.109 C 
ENDBRANCH   5   9
ENDBRANCH   8   5
BRANCH  11  17
ATOM     17  C   UNL     1      21.075   6.029  20.700  0.00  0.00    +0.138 C 
BRANCH  17   7
ATOM      4  O   UNL     1      21.297   3.142  20.788  0.00  0.00    -0.276 OA
ATOM      7  N   UNL     1      21.872   5.244  21.599  0.00  0.00    -0.313 N 
ATOM     21  C   UNL     1      21.920   3.856  21.572  0.00  0.00    +0.214 C 
ATOM     28  H   UNL     1      22.435   5.743  22.281  0.00  0.00    +0.149 HD
BRANCH  21  20
ATOM     20  C   UNL     1      22.833   3.262  22.631  0.00  0.00    +0.102 C 
BRANCH  20  19
ATOM     19  C   UNL     1      24.199   2.761  22.103  0.00  0.00    -0.029 C 
ATOM     23  C   UNL     1      25.168   2.670  23.297  0.00  0.00    +0.011 C 
ATOM     24  C   UNL     1      24.080   1.367  21.467  0.00  0.00    +0.011 C 
ATOM     25  C   UNL     1      24.787   3.741  21.074  0.00  0.00    +0.011 C 
ENDBRANCH  20  19
ENDBRANCH  21  20
ENDBRANCH  17   7
ENDBRANCH  11  17
TORSDOF 7
ENDMDL
MODEL 4
REMARK VINA RESULT:      -6.3      4.115      7.145
REMARK  Name = 75536515
REMARK  11 active torsions:
REMARK  status: ('A' for Active; 'I' for Inactive)
REMARK    1  A    between atoms: O_2  and  C_10
REMARK    2  A    between atoms: N_5  and  C_8
REMARK    3  A    between atoms: N_5  and  C_9
REMARK    4  A    between atoms: N_7  and  C_17
REMARK    5  A    between atoms: C_11  and  C_17
REMARK    6  A    between atoms: C_18  and  C_22
REMARK    7  A    between atoms: C_19  and  C_20
REMARK    8  A    between atoms: C_19  and  C_23
REMARK    9  A    between atoms: C_19  and  C_24
REMARK   10  A    between atoms: C_19  and  C_25
REMARK   11  A    between atoms: C_20  and  C_21
REMARK                            x       y       z     vdW  Elec       q    Type
REMARK                         _______ _______ _______ _____ _____    ______ ____
ROOT
ATOM      1  O   UNL     1      18.366   7.160  21.712  0.00  0.00    -0.371 OA
ATOM      8  C   UNL     1      19.594   5.946  20.082  0.00  0.00    +0.111 C 
ATOM     10  C   UNL     1      18.114   5.657  19.905  0.00  0.00    +0.164 C 
ATOM     11  C   UNL     1      17.495   6.854  20.611  0.00  0.00    +0.165 C 
ATOM     12  C   UNL     1      19.624   6.498  21.497  0.00  0.00    +0.181 C 
ENDROOT
BRANCH  10   2
ATOM      2  O   UNL     1      17.730   5.589  18.545  0.00  0.00    -0.388 OA
ATOM     27  H   UNL     1      18.065   4.755  18.174  0.00  0.00    +0.210 HD
ENDBRANCH  10   2
BRANCH   8   5
ATOM      5  N   UNL     1      20.441   4.777  19.912  0.00  0.00    -0.306 NA
ATOM     26  H   UNL     1      20.882   4.792  18.992  0.00  0.00    +0.123 HD
BRANCH   5   9
ATOM      3  O   UNL     1      26.293   3.659  21.435  0.00  0.00    -0.276 OA
ATOM      6  N   UNL     1      24.022   3.770  21.917  0.00  0.00    -0.302 N 
ATOM      9  C   UNL     1      21.464   4.723  20.953  0.00  0.00    +0.057 C 
ATOM     13  C   UNL     1      22.786   5.292  20.423  0.00  0.00    +0.037 C 
ATOM     14  C   UNL     1      21.656   3.276  21.428  0.00  0.00    +0.037 C 
ATOM     15  C   UNL     1      23.896   5.157  21.465  0.00  0.00    +0.109 C 
ATOM     16  C   UNL     1      22.788   3.181  22.450  0.00  0.00    +0.109 C 
ATOM     18  C   UNL     1      25.261   3.131  21.855  0.00  0.00    +0.212 C 
ATOM     22  C   UNL     1      25.308   1.702  22.336  0.00  0.00    +0.109 C 
ENDBRANCH   5   9
ENDBRANCH   8   5
BRANCH  11  17
ATOM     17  C   UNL     1      16.091   6.587  21.125  0.00  0.00    +0.138 C 
BRANCH  17   7
ATOM      4  O   UNL     1      13.248   7.052  21.433  0.00  0.00    -0.276 OA
ATOM      7  N   UNL     1      15.116   6.738  20.083  0.00  0.00    -0.313 N 
ATOM     21  C   UNL     1      13.765   6.960  20.321  0.00  0.00    +0.214 C 
ATOM     28  H   UNL     1      15.445   6.688  19.124  0.00  0.00    +0.149 HD
BRANCH  21  20
ATOM     20  C   UNL     1      12.939   7.077  19.050  0.00  0.00    +0.102 C 
BRANCH  20  19
ATOM     19  C   UNL     1      12.278   8.460  18.833  0.00  0.00    -0.029 C 
ATOM     23  C   UNL     1      11.059   8.557  19.771  0.00  0.00    +0.011 C 
ATOM     24  C   UNL     1      13.244   9.606  19.172  0.00  0.00    +0.011 C 
ATOM     25  C   UNL     1      11.789   8.618  17.384  0.00  0.00    +0.011 C 
ENDBRANCH  20  19
ENDBRANCH  21  20
ENDBRANCH  17   7
ENDBRANCH  11  17
TORSDOF 7
ENDMDL
MODEL 5
REMARK VINA RESULT:      -6.1     27.974     29.916
REMARK  Name = 75536515
REMARK  11 active torsions:
REMARK  status: ('A' for Active; 'I' for Inactive)
REMARK    1  A    between atoms: O_2  and  C_10
REMARK    2  A    between atoms: N_5  and  C_8
REMARK    3  A    between atoms: N_5  and  C_9
REMARK    4  A    between atoms: N_7  and  C_17
REMARK    5  A    between atoms: C_11  and  C_17
REMARK    6  A    between atoms: C_18  and  C_22
REMARK    7  A    between atoms: C_19  and  C_20
REMARK    8  A    between atoms: C_19  and  C_23
REMARK    9  A    between atoms: C_19  and  C_24
REMARK   10  A    between atoms: C_19  and  C_25
REMARK   11  A    between atoms: C_20  and  C_21
REMARK                            x       y       z     vdW  Elec       q    Type
REMARK                         _______ _______ _______ _____ _____    ______ ____
ROOT
ATOM      1  O   UNL     1     -12.273  -7.635  14.001  0.00  0.00    -0.371 OA
ATOM      8  C   UNL     1     -10.416  -8.233  15.354  0.00  0.00    +0.111 C 
ATOM     10  C   UNL     1     -10.846  -6.819  15.700  0.00  0.00    +0.164 C 
ATOM     11  C   UNL     1     -12.276  -6.811  15.178  0.00  0.00    +0.165 C 
ATOM     12  C   UNL     1     -11.069  -8.422  13.996  0.00  0.00    +0.181 C 
ENDROOT
BRANCH  10   2
ATOM      2  O   UNL     1     -10.790  -6.555  17.088  0.00  0.00    -0.388 OA
ATOM     27  H   UNL     1     -10.835  -7.402  17.563  0.00  0.00    +0.210 HD
ENDBRANCH  10   2
BRANCH   8   5
ATOM      5  N   UNL     1      -8.973  -8.411  15.319  0.00  0.00    -0.306 NA
ATOM     26  H   UNL     1      -8.508  -7.599  15.721  0.00  0.00    +0.123 HD
BRANCH   5   9
ATOM      3  O   UNL     1      -6.332 -10.906  20.280  0.00  0.00    -0.276 OA
ATOM      6  N   UNL     1      -6.955 -10.936  18.041  0.00  0.00    -0.302 N 
ATOM      9  C   UNL     1      -8.582  -9.619  16.042  0.00  0.00    +0.057 C 
ATOM     13  C   UNL     1      -8.853  -9.445  17.542  0.00  0.00    +0.037 C 
ATOM     14  C   UNL     1      -7.099  -9.923  15.797  0.00  0.00    +0.037 C 
ATOM     15  C   UNL     1      -8.363 -10.659  18.329  0.00  0.00    +0.109 C 
ATOM     16  C   UNL     1      -6.643 -11.128  16.620  0.00  0.00    +0.109 C 
ATOM     18  C   UNL     1      -6.039 -11.036  19.089  0.00  0.00    +0.212 C 
ATOM     22  C   UNL     1      -4.608 -11.320  18.709  0.00  0.00    +0.109 C 
ENDBRANCH   5   9
ENDBRANCH   8   5
BRANCH  11  17
ATOM     17  C   UNL     1     -12.782  -5.422  14.832  0.00  0.00    +0.138 C 
BRANCH  17   7
ATOM      4  O   UNL     1     -13.792  -3.448  12.968  0.00  0.00    -0.276 OA
ATOM      7  N   UNL     1     -12.116  -4.897  13.675  0.00  0.00    -0.313 N 
ATOM     21  C   UNL     1     -12.677  -3.947  12.830  0.00  0.00    +0.214 C 
ATOM     28  H   UNL     1     -11.181  -5.240  13.478  0.00  0.00    +0.149 HD
BRANCH  21  20
ATOM     20  C   UNL     1     -11.773  -3.562  11.670  0.00  0.00    +0.102 C 
BRANCH  20  19
ATOM     19  C   UNL     1     -12.169  -4.180  10.307  0.00  0.00    -0.029 C 
ATOM     23  C   UNL     1     -11.032  -3.897   9.307  0.00  0.00    +0.011 C 
ATOM     24  C   UNL     1     -12.356  -5.702  10.413  0.00  0.00    +0.011 C 
ATOM     25  C   UNL     1     -13.461  -3.546   9.766  0.00  0.00    +0.011 C 
ENDBRANCH  20  19
ENDBRANCH  21  20
ENDBRANCH  17   7
ENDBRANCH  11  17
TORSDOF 7
ENDMDL
MODEL 6
REMARK VINA RESULT:      -5.9     24.977     28.039
REMARK  Name = 75536515
REMARK  11 active torsions:
REMARK  status: ('A' for Active; 'I' for Inactive)
REMARK    1  A    between atoms: O_2  and  C_10
REMARK    2  A    between atoms: N_5  and  C_8
REMARK    3  A    between atoms: N_5  and  C_9
REMARK    4  A    between atoms: N_7  and  C_17
REMARK    5  A    between atoms: C_11  and  C_17
REMARK    6  A    between atoms: C_18  and  C_22
REMARK    7  A    between atoms: C_19  and  C_20
REMARK    8  A    between atoms: C_19  and  C_23
REMARK    9  A    between atoms: C_19  and  C_24
REMARK   10  A    between atoms: C_19  and  C_25
REMARK   11  A    between atoms: C_20  and  C_21
REMARK                            x       y       z     vdW  Elec       q    Type
REMARK                         _______ _______ _______ _____ _____    ______ ____
ROOT
ATOM      1  O   UNL     1     -16.123   6.870  20.291  0.00  0.00    -0.371 OA
ATOM      8  C   UNL     1     -13.778   6.923  20.663  0.00  0.00    +0.111 C 
ATOM     10  C   UNL     1     -14.402   5.887  21.580  0.00  0.00    +0.164 C 
ATOM     11  C   UNL     1     -15.718   5.617  20.864  0.00  0.00    +0.165 C 
ATOM     12  C   UNL     1     -14.991   7.757  20.284  0.00  0.00    +0.181 C 
ENDROOT
BRANCH  10   2
ATOM      2  O   UNL     1     -13.615   4.717  21.697  0.00  0.00    -0.388 OA
ATOM     27  H   UNL     1     -13.321   4.456  20.808  0.00  0.00    +0.210 HD
ENDBRANCH  10   2
BRANCH   8   5
ATOM      5  N   UNL     1     -12.729   7.706  21.296  0.00  0.00    -0.306 NA
ATOM     26  H   UNL     1     -12.433   7.261  22.165  0.00  0.00    +0.123 HD
BRANCH   5   9
ATOM      3  O   UNL     1     -10.201  10.606  16.501  0.00  0.00    -0.276 OA
ATOM      6  N   UNL     1     -10.461   8.763  17.891  0.00  0.00    -0.302 N 
ATOM      9  C   UNL     1     -11.585   7.859  20.401  0.00  0.00    +0.057 C 
ATOM     13  C   UNL     1     -11.330   9.346  20.123  0.00  0.00    +0.037 C 
ATOM     14  C   UNL     1     -11.838   7.105  19.089  0.00  0.00    +0.037 C 
ATOM     15  C   UNL     1     -10.198   9.526  19.112  0.00  0.00    +0.109 C 
ATOM     16  C   UNL     1     -10.695   7.329  18.099  0.00  0.00    +0.109 C 
ATOM     18  C   UNL     1     -10.435   9.406  16.653  0.00  0.00    +0.212 C 
ATOM     22  C   UNL     1     -10.720   8.551  15.443  0.00  0.00    +0.109 C 
ENDBRANCH   5   9
ENDBRANCH   8   5
BRANCH  11  17
ATOM     17  C   UNL     1     -16.807   5.097  21.787  0.00  0.00    +0.138 C 
BRANCH  17   7
ATOM      4  O   UNL     1     -16.607   2.412  22.854  0.00  0.00    -0.276 OA
ATOM      7  N   UNL     1     -16.271   4.704  23.058  0.00  0.00    -0.313 N 
ATOM     21  C   UNL     1     -16.213   3.386  23.493  0.00  0.00    +0.214 C 
ATOM     28  H   UNL     1     -15.908   5.437  23.659  0.00  0.00    +0.149 HD
BRANCH  21  20
ATOM     20  C   UNL     1     -15.608   3.233  24.879  0.00  0.00    +0.102 C 
BRANCH  20  19
ATOM     19  C   UNL     1     -16.590   2.726  25.962  0.00  0.00    -0.029 C 
ATOM     23  C   UNL     1     -17.967   3.364  25.692  0.00  0.00    +0.011 C 
ATOM     24  C   UNL     1     -16.745   1.198  25.912  0.00  0.00    +0.011 C 
ATOM     25  C   UNL     1     -16.129   3.145  27.368  0.00  0.00    +0.011 C 
ENDBRANCH  20  19
ENDBRANCH  21  20
ENDBRANCH  17   7
ENDBRANCH  11  17
TORSDOF 7
ENDMDL
MODEL 7
REMARK VINA RESULT:      -5.9     26.640     29.442
REMARK  Name = 75536515
REMARK  11 active torsions:
REMARK  status: ('A' for Active; 'I' for Inactive)
REMARK    1  A    between atoms: O_2  and  C_10
REMARK    2  A    between atoms: N_5  and  C_8
REMARK    3  A    between atoms: N_5  and  C_9
REMARK    4  A    between atoms: N_7  and  C_17
REMARK    5  A    between atoms: C_11  and  C_17
REMARK    6  A    between atoms: C_18  and  C_22
REMARK    7  A    between atoms: C_19  and  C_20
REMARK    8  A    between atoms: C_19  and  C_23
REMARK    9  A    between atoms: C_19  and  C_24
REMARK   10  A    between atoms: C_19  and  C_25
REMARK   11  A    between atoms: C_20  and  C_21
REMARK                            x       y       z     vdW  Elec       q    Type
REMARK                         _______ _______ _______ _____ _____    ______ ____
ROOT
ATOM      1  O   UNL     1      -5.611 -11.581  17.873  0.00  0.00    -0.371 OA
ATOM      8  C   UNL     1      -7.294 -10.095  17.100  0.00  0.00    +0.111 C 
ATOM     10  C   UNL     1      -5.983  -9.758  16.415  0.00  0.00    +0.164 C 
ATOM     11  C   UNL     1      -5.215 -11.059  16.595  0.00  0.00    +0.165 C 
ATOM     12  C   UNL     1      -6.811 -10.907  18.290  0.00  0.00    +0.181 C 
ENDROOT
BRANCH  10   2
ATOM      2  O   UNL     1      -6.149  -9.427  15.050  0.00  0.00    -0.388 OA
ATOM     27  H   UNL     1      -6.978  -8.926  14.955  0.00  0.00    +0.210 HD
ENDBRANCH  10   2
BRANCH   8   5
ATOM      5  N   UNL     1      -8.067  -8.926  17.488  0.00  0.00    -0.306 NA
ATOM     26  H   UNL     1      -7.618  -8.077  17.148  0.00  0.00    +0.123 HD
BRANCH   5   9
ATOM      3  O   UNL     1     -12.099  -7.373  13.114  0.00  0.00    -0.276 OA
ATOM      6  N   UNL     1     -11.549  -7.980  15.288  0.00  0.00    -0.302 N 
ATOM      9  C   UNL     1      -9.431  -9.011  16.970  0.00  0.00    +0.057 C 
ATOM     13  C   UNL     1      -9.404  -9.184  15.447  0.00  0.00    +0.037 C 
ATOM     14  C   UNL     1     -10.219  -7.752  17.353  0.00  0.00    +0.037 C 
ATOM     15  C   UNL     1     -10.820  -9.179  14.872  0.00  0.00    +0.109 C 
ATOM     16  C   UNL     1     -11.619  -7.774  16.740  0.00  0.00    +0.109 C 
ATOM     18  C   UNL     1     -12.142  -7.160  14.328  0.00  0.00    +0.212 C 
ATOM     22  C   UNL     1     -12.871  -5.942  14.837  0.00  0.00    +0.109 C 
ENDBRANCH   5   9
ENDBRANCH   8   5
BRANCH  11  17
ATOM     17  C   UNL     1      -3.707 -10.876  16.559  0.00  0.00    +0.138 C 
BRANCH  17   7
ATOM      4  O   UNL     1      -1.894 -12.126  14.677  0.00  0.00    -0.276 OA
ATOM      7  N   UNL     1      -3.275 -10.359  15.292  0.00  0.00    -0.313 N 
ATOM     21  C   UNL     1      -2.397 -11.028  14.447  0.00  0.00    +0.214 C 
ATOM     28  H   UNL     1      -3.644  -9.458  15.004  0.00  0.00    +0.149 HD
BRANCH  21  20
ATOM     20  C   UNL     1      -2.089 -10.266  13.169  0.00  0.00    +0.102 C 
BRANCH  20  19
ATOM     19  C   UNL     1      -3.023 -10.593  11.979  0.00  0.00    -0.029 C 
ATOM     23  C   UNL     1      -2.580  -9.737  10.777  0.00  0.00    +0.011 C 
ATOM     24  C   UNL     1      -2.930 -12.075  11.581  0.00  0.00    +0.011 C 
ATOM     25  C   UNL     1      -4.484 -10.247  12.311  0.00  0.00    +0.011 C 
ENDBRANCH  20  19
ENDBRANCH  21  20
ENDBRANCH  17   7
ENDBRANCH  11  17
TORSDOF 7
ENDMDL
MODEL 8
REMARK VINA RESULT:      -5.8      3.747     10.323
REMARK  Name = 75536515
REMARK  11 active torsions:
REMARK  status: ('A' for Active; 'I' for Inactive)
REMARK    1  A    between atoms: O_2  and  C_10
REMARK    2  A    between atoms: N_5  and  C_8
REMARK    3  A    between atoms: N_5  and  C_9
REMARK    4  A    between atoms: N_7  and  C_17
REMARK    5  A    between atoms: C_11  and  C_17
REMARK    6  A    between atoms: C_18  and  C_22
REMARK    7  A    between atoms: C_19  and  C_20
REMARK    8  A    between atoms: C_19  and  C_23
REMARK    9  A    between atoms: C_19  and  C_24
REMARK   10  A    between atoms: C_19  and  C_25
REMARK   11  A    between atoms: C_20  and  C_21
REMARK                            x       y       z     vdW  Elec       q    Type
REMARK                         _______ _______ _______ _____ _____    ______ ____
ROOT
ATOM      1  O   UNL     1      19.884   5.886  20.308  0.00  0.00    -0.371 OA
ATOM      8  C   UNL     1      17.899   6.968  21.036  0.00  0.00    +0.111 C 
ATOM     10  C   UNL     1      18.956   7.092  22.118  0.00  0.00    +0.164 C 
ATOM     11  C   UNL     1      20.227   6.852  21.315  0.00  0.00    +0.165 C 
ATOM     12  C   UNL     1      18.451   5.820  20.208  0.00  0.00    +0.181 C 
ENDROOT
BRANCH  10   2
ATOM      2  O   UNL     1      18.957   8.364  22.738  0.00  0.00    -0.388 OA
ATOM     27  H   UNL     1      18.885   8.235  23.699  0.00  0.00    +0.210 HD
ENDBRANCH  10   2
BRANCH   8   5
ATOM      5  N   UNL     1      16.565   6.705  21.551  0.00  0.00    -0.306 NA
ATOM     26  H   UNL     1      16.587   6.640  22.568  0.00  0.00    +0.123 HD
BRANCH   5   9
ATOM      3  O   UNL     1      10.851   8.266  19.904  0.00  0.00    -0.276 OA
ATOM      6  N   UNL     1      13.155   8.561  19.883  0.00  0.00    -0.302 N 
ATOM      9  C   UNL     1      15.634   7.753  21.139  0.00  0.00    +0.057 C 
ATOM     13  C   UNL     1      14.281   7.557  21.832  0.00  0.00    +0.037 C 
ATOM     14  C   UNL     1      15.464   7.736  19.615  0.00  0.00    +0.037 C 
ATOM     15  C   UNL     1      13.262   8.585  21.343  0.00  0.00    +0.109 C 
ATOM     16  C   UNL     1      14.422   8.762  19.169  0.00  0.00    +0.109 C 
ATOM     18  C   UNL     1      11.907   8.396  19.282  0.00  0.00    +0.212 C 
ATOM     22  C   UNL     1      11.881   8.379  17.774  0.00  0.00    +0.109 C 
ENDBRANCH   5   9
ENDBRANCH   8   5
BRANCH  11  17
ATOM     17  C   UNL     1      21.379   6.330  22.156  0.00  0.00    +0.138 C 
BRANCH  17   7
ATOM      4  O   UNL     1      23.902   5.795  20.837  0.00  0.00    -0.276 OA
ATOM      7  N   UNL     1      21.854   5.068  21.665  0.00  0.00    -0.313 N 
ATOM     21  C   UNL     1      23.084   4.900  21.041  0.00  0.00    +0.214 C 
ATOM     28  H   UNL     1      21.253   4.260  21.795  0.00  0.00    +0.149 HD
BRANCH  21  20
ATOM     20  C   UNL     1      23.350   3.468  20.605  0.00  0.00    +0.102 C 
BRANCH  20  19
ATOM     19  C   UNL     1      24.477   2.752  21.388  0.00  0.00    -0.029 C 
ATOM     23  C   UNL     1      25.814   3.064  20.689  0.00  0.00    +0.011 C 
ATOM     24  C   UNL     1      24.559   3.251  22.839  0.00  0.00    +0.011 C 
ATOM     25  C   UNL     1      24.271   1.228  21.384  0.00  0.00    +0.011 C 
ENDBRANCH  20  19
ENDBRANCH  21  20
ENDBRANCH  17   7
ENDBRANCH  11  17
TORSDOF 7
ENDMDL
MODEL 9
REMARK VINA RESULT:      -5.8     21.586     25.452
REMARK  Name = 75536515
REMARK  11 active torsions:
REMARK  status: ('A' for Active; 'I' for Inactive)
REMARK    1  A    between atoms: O_2  and  C_10
REMARK    2  A    between atoms: N_5  and  C_8
REMARK    3  A    between atoms: N_5  and  C_9
REMARK    4  A    between atoms: N_7  and  C_17
REMARK    5  A    between atoms: C_11  and  C_17
REMARK    6  A    between atoms: C_18  and  C_22
REMARK    7  A    between atoms: C_19  and  C_20
REMARK    8  A    between atoms: C_19  and  C_23
REMARK    9  A    between atoms: C_19  and  C_24
REMARK   10  A    between atoms: C_19  and  C_25
REMARK   11  A    between atoms: C_20  and  C_21
REMARK                            x       y       z     vdW  Elec       q    Type
REMARK                         _______ _______ _______ _____ _____    ______ ____
ROOT
ATOM      1  O   UNL     1      -2.750  11.409  36.114  0.00  0.00    -0.371 OA
ATOM      8  C   UNL     1      -4.840  10.284  36.175  0.00  0.00    +0.111 C 
ATOM     10  C   UNL     1      -3.726   9.267  36.334  0.00  0.00    +0.164 C 
ATOM     11  C   UNL     1      -2.580  10.157  36.797  0.00  0.00    +0.165 C 
ATOM     12  C   UNL     1      -4.087  11.466  35.587  0.00  0.00    +0.181 C 
ENDROOT
BRANCH  10   2
ATOM      2  O   UNL     1      -4.032   8.265  37.284  0.00  0.00    -0.388 OA
ATOM     27  H   UNL     1      -3.813   7.400  36.898  0.00  0.00    +0.210 HD
ENDBRANCH  10   2
BRANCH   8   5
ATOM      5  N   UNL     1      -5.929   9.828  35.326  0.00  0.00    -0.306 NA
ATOM     26  H   UNL     1      -5.807   8.843  35.095  0.00  0.00    +0.123 HD
BRANCH   5   9
ATOM      3  O   UNL     1     -11.227   7.406  37.294  0.00  0.00    -0.276 OA
ATOM      6  N   UNL     1      -9.930   9.171  36.517  0.00  0.00    -0.302 N 
ATOM      9  C   UNL     1      -7.218  10.030  35.984  0.00  0.00    +0.057 C 
ATOM     13  C   UNL     1      -7.520   8.856  36.923  0.00  0.00    +0.037 C 
ATOM     14  C   UNL     1      -8.328  10.176  34.935  0.00  0.00    +0.037 C 
ATOM     15  C   UNL     1      -8.906   8.999  37.548  0.00  0.00    +0.109 C 
ATOM     16  C   UNL     1      -9.699  10.293  35.600  0.00  0.00    +0.109 C 
ATOM     18  C   UNL     1     -11.037   8.321  36.490  0.00  0.00    +0.212 C 
ATOM     22  C   UNL     1     -12.045   8.561  35.394  0.00  0.00    +0.109 C 
ENDBRANCH   5   9
ENDBRANCH   8   5
BRANCH  11  17
ATOM     17  C   UNL     1      -1.210   9.582  36.484  0.00  0.00    +0.138 C 
BRANCH  17   7
ATOM      4  O   UNL     1      -0.286   9.038  39.175  0.00  0.00    -0.276 OA
ATOM      7  N   UNL     1      -1.029   8.298  37.100  0.00  0.00    -0.313 N 
ATOM     21  C   UNL     1      -0.580   8.127  38.403  0.00  0.00    +0.214 C 
ATOM     28  H   UNL     1      -1.255   7.478  36.546  0.00  0.00    +0.149 HD
BRANCH  21  20
ATOM     20  C   UNL     1      -0.466   6.669  38.817  0.00  0.00    +0.102 C 
BRANCH  20  19
ATOM     19  C   UNL     1      -1.254   6.295  40.095  0.00  0.00    -0.029 C 
ATOM     23  C   UNL     1      -1.483   4.771  40.085  0.00  0.00    +0.011 C 
ATOM     24  C   UNL     1      -0.472   6.661  41.367  0.00  0.00    +0.011 C 
ATOM     25  C   UNL     1      -2.624   6.992  40.124  0.00  0.00    +0.011 C 
ENDBRANCH  20  19
ENDBRANCH  21  20
ENDBRANCH  17   7
ENDBRANCH  11  17
TORSDOF 7
ENDMDL
MODEL 10
REMARK VINA RESULT:      -5.7     26.272     28.945
REMARK  Name = 75536515
REMARK  11 active torsions:
REMARK  status: ('A' for Active; 'I' for Inactive)
REMARK    1  A    between atoms: O_2  and  C_10
REMARK    2  A    between atoms: N_5  and  C_8
REMARK    3  A    between atoms: N_5  and  C_9
REMARK    4  A    between atoms: N_7  and  C_17
REMARK    5  A    between atoms: C_11  and  C_17
REMARK    6  A    between atoms: C_18  and  C_22
REMARK    7  A    between atoms: C_19  and  C_20
REMARK    8  A    between atoms: C_19  and  C_23
REMARK    9  A    between atoms: C_19  and  C_24
REMARK   10  A    between atoms: C_19  and  C_25
REMARK   11  A    between atoms: C_20  and  C_21
REMARK                            x       y       z     vdW  Elec       q    Type
REMARK                         _______ _______ _______ _____ _____    ______ ____
ROOT
ATOM      1  O   UNL     1      -1.506 -11.290  15.155  0.00  0.00    -0.371 OA
ATOM      8  C   UNL     1      -3.759 -10.986  15.843  0.00  0.00    +0.111 C 
ATOM     10  C   UNL     1      -3.715 -11.114  14.331  0.00  0.00    +0.164 C 
ATOM     11  C   UNL     1      -2.375 -11.807  14.134  0.00  0.00    +0.165 C 
ATOM     12  C   UNL     1      -2.312 -10.645  16.157  0.00  0.00    +0.181 C 
ENDROOT
BRANCH  10   2
ATOM      2  O   UNL     1      -4.787 -11.881  13.817  0.00  0.00    -0.388 OA
ATOM     27  H   UNL     1      -4.668 -11.966  12.855  0.00  0.00    +0.210 HD
ENDBRANCH  10   2
BRANCH   8   5
ATOM      5  N   UNL     1      -4.694  -9.977  16.316  0.00  0.00    -0.306 NA
ATOM     26  H   UNL     1      -4.757  -9.213  15.644  0.00  0.00    +0.123 HD
BRANCH   5   9
ATOM      3  O   UNL     1      -9.397 -10.956  20.153  0.00  0.00    -0.276 OA
ATOM      6  N   UNL     1      -8.069 -11.525  18.333  0.00  0.00    -0.302 N 
ATOM      9  C   UNL     1      -6.015 -10.559  16.536  0.00  0.00    +0.057 C 
ATOM     13  C   UNL     1      -6.883  -9.597  17.356  0.00  0.00    +0.037 C 
ATOM     14  C   UNL     1      -5.884 -11.908  17.255  0.00  0.00    +0.037 C 
ATOM     15  C   UNL     1      -8.238 -10.225  17.681  0.00  0.00    +0.109 C 
ATOM     16  C   UNL     1      -7.259 -12.491  17.582  0.00  0.00    +0.109 C 
ATOM     18  C   UNL     1      -8.691 -11.772  19.557  0.00  0.00    +0.212 C 
ATOM     22  C   UNL     1      -8.465 -13.134  20.166  0.00  0.00    +0.109 C 
ENDBRANCH   5   9
ENDBRANCH   8   5
BRANCH  11  17
ATOM     17  C   UNL     1      -1.765 -11.557  12.765  0.00  0.00    +0.138 C 
BRANCH  17   7
ATOM      4  O   UNL     1      -2.163  -9.459  10.809  0.00  0.00    -0.276 OA
ATOM      7  N   UNL     1      -2.775 -11.496  11.748  0.00  0.00    -0.313 N 
ATOM     21  C   UNL     1      -2.895 -10.446  10.845  0.00  0.00    +0.214 C 
ATOM     28  H   UNL     1      -3.426 -12.273  11.688  0.00  0.00    +0.149 HD
BRANCH  21  20
ATOM     20  C   UNL     1      -4.050 -10.614   9.872  0.00  0.00    +0.102 C 
BRANCH  20  19
ATOM     19  C   UNL     1      -5.253  -9.674  10.128  0.00  0.00    -0.029 C 
ATOM     23  C   UNL     1      -5.054  -8.404   9.277  0.00  0.00    +0.011 C 
ATOM     24  C   UNL     1      -6.579 -10.332   9.714  0.00  0.00    +0.011 C 
ATOM     25  C   UNL     1      -5.329  -9.262  11.607  0.00  0.00    +0.011 C 
ENDBRANCH  20  19
ENDBRANCH  21  20
ENDBRANCH  17   7
ENDBRANCH  11  17
TORSDOF 7
ENDMDL
