MODEL 1
REMARK VINA RESULT:      -5.9      0.000      0.000
REMARK  Name = 7135392
REMARK  7 active torsions:
REMARK  status: ('A' for Active; 'I' for Inactive)
REMARK    1  A    between atoms: O_2  and  C_20
REMARK    2  A    between atoms: O_2  and  C_24
REMARK    3  A    between atoms: C_4  and  C_5
REMARK    4  A    between atoms: C_5  and  C_11
REMARK    5  A    between atoms: C_5  and  C_12
REMARK    6  A    between atoms: C_15  and  C_22
REMARK    7  A    between atoms: C_16  and  C_23
REMARK                            x       y       z     vdW  Elec       q    Type
REMARK                         _______ _______ _______ _____ _____    ______ ____
ROOT
ATOM      4  C   UNL     1       9.032   5.714   6.243  0.00  0.00    +0.005 C 
ATOM      6  C   UNL     1       9.634   4.575   5.414  0.00  0.00    +0.009 C 
ATOM      7  C   UNL     1       8.232   6.654   5.329  0.00  0.00    +0.040 C 
ATOM      8  C   UNL     1      10.568   5.084   4.316  0.00  0.00    +0.036 C 
ATOM      9  C   UNL     1       8.939   7.020   4.046  0.00  0.00    -0.037 A 
ATOM     10  C   UNL     1      10.010   6.255   3.550  0.00  0.00    -0.041 A 
ATOM     15  C   UNL     1       8.473   8.115   3.303  0.00  0.00    -0.005 A 
ATOM     16  C   UNL     1      10.617   6.624   2.339  0.00  0.00    -0.044 A 
ATOM     20  C   UNL     1       9.078   8.466   2.096  0.00  0.00    +0.124 A 
ATOM     21  C   UNL     1      10.151   7.721   1.615  0.00  0.00    +0.049 A 
ATOM     22  C   UNL     1       7.322   8.941   3.792  0.00  0.00    +0.048 C 
ATOM     23  C   UNL     1      11.770   5.855   1.776  0.00  0.00    +0.044 C 
ENDROOT
BRANCH  20   2
ATOM      2  O   UNL     1       8.636   9.533   1.374  0.00  0.00    -0.495 OA
ATOM     24  C   UNL     1       8.069   9.259   0.095  0.00  0.00    +0.277 C 
ENDBRANCH  20   2
BRANCH   4   5
ATOM      5  C   UNL     1      10.092   6.471   7.049  0.00  0.00    +0.075 C 
ATOM     12  C   UNL     1      10.632   5.623   8.189  0.00  0.00    +0.017 C 
BRANCH   5  11
ATOM      1  O   UNL     1       8.539   7.654   8.390  0.00  0.00    -0.275 OA
ATOM      3  N   UNL     1      10.064   8.937   7.195  0.00  0.00    -0.301 N 
ATOM     11  C   UNL     1       9.491   7.734   7.609  0.00  0.00    +0.219 C 
ATOM     13  C   UNL     1       9.532  10.207   7.694  0.00  0.00    +0.108 C 
ATOM     14  C   UNL     1      11.223   9.062   6.304  0.00  0.00    +0.108 C 
ATOM     17  C   UNL     1       9.178  11.142   6.541  0.00  0.00    +0.019 C 
ATOM     18  C   UNL     1      10.902   9.976   5.123  0.00  0.00    +0.019 C 
ATOM     19  C   UNL     1      10.364  11.326   5.595  0.00  0.00    +0.003 C 
ENDBRANCH   5  11
ENDBRANCH   4   5
TORSDOF 3
ENDMDL
MODEL 2
REMARK VINA RESULT:      -5.8     14.168     17.320
REMARK  Name = 7135392
REMARK  7 active torsions:
REMARK  status: ('A' for Active; 'I' for Inactive)
REMARK    1  A    between atoms: O_2  and  C_20
REMARK    2  A    between atoms: O_2  and  C_24
REMARK    3  A    between atoms: C_4  and  C_5
REMARK    4  A    between atoms: C_5  and  C_11
REMARK    5  A    between atoms: C_5  and  C_12
REMARK    6  A    between atoms: C_15  and  C_22
REMARK    7  A    between atoms: C_16  and  C_23
REMARK                            x       y       z     vdW  Elec       q    Type
REMARK                         _______ _______ _______ _____ _____    ______ ____
ROOT
ATOM      4  C   UNL     1      11.793  11.659  22.689  0.00  0.00    +0.005 C 
ATOM      6  C   UNL     1      10.646  10.725  23.089  0.00  0.00    +0.009 C 
ATOM      7  C   UNL     1      12.043  11.556  21.176  0.00  0.00    +0.040 C 
ATOM      8  C   UNL     1      10.942   9.264  22.752  0.00  0.00    +0.036 C 
ATOM      9  C   UNL     1      12.077  10.141  20.650  0.00  0.00    -0.037 A 
ATOM     10  C   UNL     1      11.520   9.071  21.374  0.00  0.00    -0.041 A 
ATOM     15  C   UNL     1      12.624   9.903  19.380  0.00  0.00    -0.005 A 
ATOM     16  C   UNL     1      11.556   7.778  20.828  0.00  0.00    -0.044 A 
ATOM     20  C   UNL     1      12.644   8.615  18.845  0.00  0.00    +0.124 A 
ATOM     21  C   UNL     1      12.112   7.553  19.570  0.00  0.00    +0.049 A 
ATOM     22  C   UNL     1      13.208  11.022  18.573  0.00  0.00    +0.048 C 
ATOM     23  C   UNL     1      10.994   6.603  21.564  0.00  0.00    +0.044 C 
ENDROOT
BRANCH  20   2
ATOM      2  O   UNL     1      13.181   8.376  17.616  0.00  0.00    -0.495 OA
ATOM     24  C   UNL     1      14.380   7.604  17.571  0.00  0.00    +0.277 C 
ENDBRANCH  20   2
BRANCH   4   5
ATOM      5  C   UNL     1      13.068  11.396  23.495  0.00  0.00    +0.075 C 
ATOM     12  C   UNL     1      13.009  12.062  24.860  0.00  0.00    +0.017 C 
BRANCH   5  11
ATOM      1  O   UNL     1      14.344  13.129  22.507  0.00  0.00    -0.275 OA
ATOM      3  N   UNL     1      15.209  10.979  22.334  0.00  0.00    -0.301 N 
ATOM     11  C   UNL     1      14.260  11.920  22.737  0.00  0.00    +0.219 C 
ATOM     13  C   UNL     1      16.393  11.411  21.590  0.00  0.00    +0.108 C 
ATOM     14  C   UNL     1      15.158   9.543  22.631  0.00  0.00    +0.108 C 
ATOM     17  C   UNL     1      16.538  10.626  20.289  0.00  0.00    +0.019 C 
ATOM     18  C   UNL     1      15.280   8.720  21.349  0.00  0.00    +0.019 C 
ATOM     19  C   UNL     1      16.517   9.121  20.548  0.00  0.00    +0.003 C 
ENDBRANCH   5  11
ENDBRANCH   4   5
TORSDOF 3
ENDMDL
MODEL 3
REMARK VINA RESULT:      -5.5     25.536     28.221
REMARK  Name = 7135392
REMARK  7 active torsions:
REMARK  status: ('A' for Active; 'I' for Inactive)
REMARK    1  A    between atoms: O_2  and  C_20
REMARK    2  A    between atoms: O_2  and  C_24
REMARK    3  A    between atoms: C_4  and  C_5
REMARK    4  A    between atoms: C_5  and  C_11
REMARK    5  A    between atoms: C_5  and  C_12
REMARK    6  A    between atoms: C_15  and  C_22
REMARK    7  A    between atoms: C_16  and  C_23
REMARK                            x       y       z     vdW  Elec       q    Type
REMARK                         _______ _______ _______ _____ _____    ______ ____
ROOT
ATOM      4  C   UNL     1      -4.409 -10.463  14.762  0.00  0.00    +0.005 C 
ATOM      6  C   UNL     1      -3.123 -10.469  15.596  0.00  0.00    +0.009 C 
ATOM      7  C   UNL     1      -5.571  -9.915  15.604  0.00  0.00    +0.040 C 
ATOM      8  C   UNL     1      -3.248 -11.327  16.854  0.00  0.00    +0.036 C 
ATOM      9  C   UNL     1      -5.645 -10.483  17.001  0.00  0.00    -0.037 A 
ATOM     10  C   UNL     1      -4.538 -11.109  17.603  0.00  0.00    -0.041 A 
ATOM     15  C   UNL     1      -6.830 -10.326  17.736  0.00  0.00    -0.005 A 
ATOM     16  C   UNL     1      -4.652 -11.598  18.914  0.00  0.00    -0.044 A 
ATOM     20  C   UNL     1      -6.927 -10.807  19.041  0.00  0.00    +0.124 A 
ATOM     21  C   UNL     1      -5.839 -11.445  19.629  0.00  0.00    +0.049 A 
ATOM     22  C   UNL     1      -8.022  -9.647  17.133  0.00  0.00    +0.048 C 
ATOM     23  C   UNL     1      -3.511 -12.287  19.593  0.00  0.00    +0.044 C 
ENDROOT
BRANCH  20   2
ATOM      2  O   UNL     1      -8.078 -10.665  19.757  0.00  0.00    -0.495 OA
ATOM     24  C   UNL     1      -8.980 -11.769  19.760  0.00  0.00    +0.277 C 
ENDBRANCH  20   2
BRANCH   4   5
ATOM      5  C   UNL     1      -4.731 -11.843  14.179  0.00  0.00    +0.075 C 
ATOM     12  C   UNL     1      -4.008 -12.069  12.861  0.00  0.00    +0.017 C 
BRANCH   5  11
ATOM      1  O   UNL     1      -6.773 -11.189  13.173  0.00  0.00    -0.275 OA
ATOM      3  N   UNL     1      -6.878 -12.957  14.678  0.00  0.00    -0.301 N 
ATOM     11  C   UNL     1      -6.217 -11.961  13.959  0.00  0.00    +0.219 C 
ATOM     13  C   UNL     1      -8.324 -13.132  14.519  0.00  0.00    +0.108 C 
ATOM     14  C   UNL     1      -6.238 -13.918  15.584  0.00  0.00    +0.108 C 
ATOM     17  C   UNL     1      -9.030 -13.092  15.871  0.00  0.00    +0.019 C 
ATOM     18  C   UNL     1      -6.905 -13.893  16.958  0.00  0.00    +0.019 C 
ATOM     19  C   UNL     1      -8.415 -14.095  16.846  0.00  0.00    +0.003 C 
ENDBRANCH   5  11
ENDBRANCH   4   5
TORSDOF 3
ENDMDL
MODEL 4
REMARK VINA RESULT:      -5.5     22.315     25.864
REMARK  Name = 7135392
REMARK  7 active torsions:
REMARK  status: ('A' for Active; 'I' for Inactive)
REMARK    1  A    between atoms: O_2  and  C_20
REMARK    2  A    between atoms: O_2  and  C_24
REMARK    3  A    between atoms: C_4  and  C_5
REMARK    4  A    between atoms: C_5  and  C_11
REMARK    5  A    between atoms: C_5  and  C_12
REMARK    6  A    between atoms: C_15  and  C_22
REMARK    7  A    between atoms: C_16  and  C_23
REMARK                            x       y       z     vdW  Elec       q    Type
REMARK                         _______ _______ _______ _____ _____    ______ ____
ROOT
ATOM      4  C   UNL     1      20.533  -2.293  26.729  0.00  0.00    +0.005 C 
ATOM      6  C   UNL     1      20.153  -0.997  26.006  0.00  0.00    +0.009 C 
ATOM      7  C   UNL     1      20.913  -3.369  25.701  0.00  0.00    +0.040 C 
ATOM      8  C   UNL     1      18.973  -1.186  25.054  0.00  0.00    +0.036 C 
ATOM      9  C   UNL     1      19.962  -3.472  24.533  0.00  0.00    -0.037 A 
ATOM     10  C   UNL     1      19.080  -2.426  24.205  0.00  0.00    -0.041 A 
ATOM     15  C   UNL     1      20.005  -4.616  23.721  0.00  0.00    -0.005 A 
ATOM     16  C   UNL     1      18.234  -2.562  23.093  0.00  0.00    -0.044 A 
ATOM     20  C   UNL     1      19.166  -4.735  22.614  0.00  0.00    +0.124 A 
ATOM     21  C   UNL     1      18.279  -3.709  22.301  0.00  0.00    +0.049 A 
ATOM     22  C   UNL     1      20.946  -5.741  24.030  0.00  0.00    +0.048 C 
ATOM     23  C   UNL     1      17.265  -1.488  22.712  0.00  0.00    +0.044 C 
ENDROOT
BRANCH  20   2
ATOM      2  O   UNL     1      19.197  -5.846  21.827  0.00  0.00    -0.495 OA
ATOM     24  C   UNL     1      19.866  -5.733  20.572  0.00  0.00    +0.277 C 
ENDBRANCH  20   2
BRANCH   4   5
ATOM      5  C   UNL     1      19.431  -2.776  27.676  0.00  0.00    +0.075 C 
ATOM     12  C   UNL     1      19.459  -2.017  28.993  0.00  0.00    +0.017 C 
BRANCH   5  11
ATOM      1  O   UNL     1      20.638  -4.637  28.507  0.00  0.00    -0.275 OA
ATOM      3  N   UNL     1      18.577  -5.090  27.534  0.00  0.00    -0.301 N 
ATOM     11  C   UNL     1      19.610  -4.248  27.947  0.00  0.00    +0.219 C 
ATOM     13  C   UNL     1      18.679  -6.534  27.760  0.00  0.00    +0.108 C 
ATOM     14  C   UNL     1      17.324  -4.653  26.908  0.00  0.00    +0.108 C 
ATOM     17  C   UNL     1      18.474  -7.306  26.460  0.00  0.00    +0.019 C 
ATOM     18  C   UNL     1      17.091  -5.389  25.590  0.00  0.00    +0.019 C 
ATOM     19  C   UNL     1      17.166  -6.903  25.780  0.00  0.00    +0.003 C 
ENDBRANCH   5  11
ENDBRANCH   4   5
TORSDOF 3
ENDMDL
MODEL 5
REMARK VINA RESULT:      -5.5     14.997     16.864
REMARK  Name = 7135392
REMARK  7 active torsions:
REMARK  status: ('A' for Active; 'I' for Inactive)
REMARK    1  A    between atoms: O_2  and  C_20
REMARK    2  A    between atoms: O_2  and  C_24
REMARK    3  A    between atoms: C_4  and  C_5
REMARK    4  A    between atoms: C_5  and  C_11
REMARK    5  A    between atoms: C_5  and  C_12
REMARK    6  A    between atoms: C_15  and  C_22
REMARK    7  A    between atoms: C_16  and  C_23
REMARK                            x       y       z     vdW  Elec       q    Type
REMARK                         _______ _______ _______ _____ _____    ______ ____
ROOT
ATOM      4  C   UNL     1      13.447   7.346  19.595  0.00  0.00    +0.005 C 
ATOM      6  C   UNL     1      14.756   6.581  19.819  0.00  0.00    +0.009 C 
ATOM      7  C   UNL     1      13.738   8.674  18.880  0.00  0.00    +0.040 C 
ATOM      8  C   UNL     1      15.754   7.371  20.665  0.00  0.00    +0.036 C 
ATOM      9  C   UNL     1      14.907   9.440  19.449  0.00  0.00    -0.037 A 
ATOM     10  C   UNL     1      15.877   8.815  20.254  0.00  0.00    -0.041 A 
ATOM     15  C   UNL     1      15.059  10.795  19.115  0.00  0.00    -0.005 A 
ATOM     16  C   UNL     1      16.959   9.568  20.737  0.00  0.00    -0.044 A 
ATOM     20  C   UNL     1      16.143  11.529  19.594  0.00  0.00    +0.124 A 
ATOM     21  C   UNL     1      17.092  10.916  20.407  0.00  0.00    +0.049 A 
ATOM     22  C   UNL     1      14.054  11.487  18.245  0.00  0.00    +0.048 C 
ATOM     23  C   UNL     1      18.009   8.957  21.611  0.00  0.00    +0.044 C 
ENDROOT
BRANCH  20   2
ATOM      2  O   UNL     1      16.291  12.846  19.280  0.00  0.00    -0.495 OA
ATOM     24  C   UNL     1      16.142  13.787  20.341  0.00  0.00    +0.277 C 
ENDBRANCH  20   2
BRANCH   4   5
ATOM      5  C   UNL     1      12.667   7.559  20.896  0.00  0.00    +0.075 C 
ATOM     12  C   UNL     1      11.787   6.362  21.217  0.00  0.00    +0.017 C 
BRANCH   5  11
ATOM      1  O   UNL     1      10.917   8.819  19.916  0.00  0.00    -0.275 OA
ATOM      3  N   UNL     1      12.084   9.840  21.646  0.00  0.00    -0.301 N 
ATOM     11  C   UNL     1      11.807   8.790  20.770  0.00  0.00    +0.219 C 
ATOM     13  C   UNL     1      11.293  11.070  21.583  0.00  0.00    +0.108 C 
ATOM     14  C   UNL     1      13.105   9.818  22.700  0.00  0.00    +0.108 C 
ATOM     17  C   UNL     1      12.194  12.292  21.431  0.00  0.00    +0.019 C 
ATOM     18  C   UNL     1      14.043  11.017  22.571  0.00  0.00    +0.019 C 
ATOM     19  C   UNL     1      13.262  12.329  22.524  0.00  0.00    +0.003 C 
ENDBRANCH   5  11
ENDBRANCH   4   5
TORSDOF 3
ENDMDL
MODEL 6
REMARK VINA RESULT:      -5.5     25.139     27.401
REMARK  Name = 7135392
REMARK  7 active torsions:
REMARK  status: ('A' for Active; 'I' for Inactive)
REMARK    1  A    between atoms: O_2  and  C_20
REMARK    2  A    between atoms: O_2  and  C_24
REMARK    3  A    between atoms: C_4  and  C_5
REMARK    4  A    between atoms: C_5  and  C_11
REMARK    5  A    between atoms: C_5  and  C_12
REMARK    6  A    between atoms: C_15  and  C_22
REMARK    7  A    between atoms: C_16  and  C_23
REMARK                            x       y       z     vdW  Elec       q    Type
REMARK                         _______ _______ _______ _____ _____    ______ ____
ROOT
ATOM      4  C   UNL     1      -6.031 -12.204  18.425  0.00  0.00    +0.005 C 
ATOM      6  C   UNL     1      -4.548 -12.422  18.740  0.00  0.00    +0.009 C 
ATOM      7  C   UNL     1      -6.293 -12.486  16.938  0.00  0.00    +0.040 C 
ATOM      8  C   UNL     1      -3.638 -11.512  17.914  0.00  0.00    +0.036 C 
ATOM      9  C   UNL     1      -5.282 -11.866  16.004  0.00  0.00    -0.037 A 
ATOM     10  C   UNL     1      -4.017 -11.448  16.457  0.00  0.00    -0.041 A 
ATOM     15  C   UNL     1      -5.592 -11.764  14.639  0.00  0.00    -0.005 A 
ATOM     16  C   UNL     1      -3.104 -10.902  15.542  0.00  0.00    -0.044 A 
ATOM     20  C   UNL     1      -4.672 -11.227  13.738  0.00  0.00    +0.124 A 
ATOM     21  C   UNL     1      -3.429 -10.795  14.191  0.00  0.00    +0.049 A 
ATOM     22  C   UNL     1      -6.922 -12.217  14.118  0.00  0.00    +0.048 C 
ATOM     23  C   UNL     1      -1.753 -10.425  15.975  0.00  0.00    +0.044 C 
ENDROOT
BRANCH  20   2
ATOM      2  O   UNL     1      -4.971 -11.117  12.414  0.00  0.00    -0.495 OA
ATOM     24  C   UNL     1      -4.688  -9.868  11.787  0.00  0.00    +0.277 C 
ENDBRANCH  20   2
BRANCH   4   5
ATOM      5  C   UNL     1      -6.515 -10.810  18.834  0.00  0.00    +0.075 C 
ATOM     12  C   UNL     1      -5.900 -10.374  20.154  0.00  0.00    +0.017 C 
BRANCH   5  11
ATOM      1  O   UNL     1      -8.543 -11.501  19.844  0.00  0.00    -0.275 OA
ATOM      3  N   UNL     1      -8.726 -10.032  18.053  0.00  0.00    -0.301 N 
ATOM     11  C   UNL     1      -8.017 -10.816  18.963  0.00  0.00    +0.219 C 
ATOM     13  C   UNL     1     -10.189  -9.989  18.114  0.00  0.00    +0.108 C 
ATOM     14  C   UNL     1      -8.127  -9.174  17.024  0.00  0.00    +0.108 C 
ATOM     17  C   UNL     1     -10.802 -10.331  16.758  0.00  0.00    +0.019 C 
ATOM     18  C   UNL     1      -8.701  -9.500  15.647  0.00  0.00    +0.019 C 
ATOM     19  C   UNL     1     -10.228  -9.445  15.654  0.00  0.00    +0.003 C 
ENDBRANCH   5  11
ENDBRANCH   4   5
TORSDOF 3
ENDMDL
MODEL 7
REMARK VINA RESULT:      -5.5     24.585     27.085
REMARK  Name = 7135392
REMARK  7 active torsions:
REMARK  status: ('A' for Active; 'I' for Inactive)
REMARK    1  A    between atoms: O_2  and  C_20
REMARK    2  A    between atoms: O_2  and  C_24
REMARK    3  A    between atoms: C_4  and  C_5
REMARK    4  A    between atoms: C_5  and  C_11
REMARK    5  A    between atoms: C_5  and  C_12
REMARK    6  A    between atoms: C_15  and  C_22
REMARK    7  A    between atoms: C_16  and  C_23
REMARK                            x       y       z     vdW  Elec       q    Type
REMARK                         _______ _______ _______ _____ _____    ______ ____
ROOT
ATOM      4  C   UNL     1      -6.095 -10.538  17.960  0.00  0.00    +0.005 C 
ATOM      6  C   UNL     1      -7.049  -9.519  17.327  0.00  0.00    +0.009 C 
ATOM      7  C   UNL     1      -4.730 -10.478  17.256  0.00  0.00    +0.040 C 
ATOM      8  C   UNL     1      -7.268  -9.774  15.837  0.00  0.00    +0.036 C 
ATOM      9  C   UNL     1      -4.813 -10.438  15.749  0.00  0.00    -0.037 A 
ATOM     10  C   UNL     1      -5.996 -10.066  15.084  0.00  0.00    -0.041 A 
ATOM     15  C   UNL     1      -3.661 -10.721  14.999  0.00  0.00    -0.005 A 
ATOM     16  C   UNL     1      -6.011 -10.020  13.681  0.00  0.00    -0.044 A 
ATOM     20  C   UNL     1      -3.688 -10.663  13.605  0.00  0.00    +0.124 A 
ATOM     21  C   UNL     1      -4.863 -10.314  12.947  0.00  0.00    +0.049 A 
ATOM     22  C   UNL     1      -2.380 -11.103  15.675  0.00  0.00    +0.048 C 
ATOM     23  C   UNL     1      -7.247  -9.648  12.925  0.00  0.00    +0.044 C 
ENDROOT
BRANCH  20   2
ATOM      2  O   UNL     1      -2.575 -10.945  12.871  0.00  0.00    -0.495 OA
ATOM     24  C   UNL     1      -2.455 -10.301  11.605  0.00  0.00    +0.277 C 
ENDBRANCH  20   2
BRANCH   4   5
ATOM      5  C   UNL     1      -6.673 -11.956  17.959  0.00  0.00    +0.075 C 
ATOM     12  C   UNL     1      -7.415 -12.253  19.252  0.00  0.00    +0.017 C 
BRANCH   5  11
ATOM      1  O   UNL     1      -4.656 -13.003  18.625  0.00  0.00    -0.275 OA
ATOM      3  N   UNL     1      -5.620 -13.772  16.656  0.00  0.00    -0.301 N 
ATOM     11  C   UNL     1      -5.557 -12.954  17.784  0.00  0.00    +0.219 C 
ATOM     13  C   UNL     1      -4.571 -14.765  16.416  0.00  0.00    +0.108 C 
ATOM     14  C   UNL     1      -6.702 -13.768  15.664  0.00  0.00    +0.108 C 
ATOM     17  C   UNL     1      -3.971 -14.599  15.023  0.00  0.00    +0.019 C 
ATOM     18  C   UNL     1      -6.143 -13.583  14.254  0.00  0.00    +0.019 C 
ATOM     19  C   UNL     1      -5.057 -14.614  13.949  0.00  0.00    +0.003 C 
ENDBRANCH   5  11
ENDBRANCH   4   5
TORSDOF 3
ENDMDL
MODEL 8
REMARK VINA RESULT:      -5.4     13.501     16.881
REMARK  Name = 7135392
REMARK  7 active torsions:
REMARK  status: ('A' for Active; 'I' for Inactive)
REMARK    1  A    between atoms: O_2  and  C_20
REMARK    2  A    between atoms: O_2  and  C_24
REMARK    3  A    between atoms: C_4  and  C_5
REMARK    4  A    between atoms: C_5  and  C_11
REMARK    5  A    between atoms: C_5  and  C_12
REMARK    6  A    between atoms: C_15  and  C_22
REMARK    7  A    between atoms: C_16  and  C_23
REMARK                            x       y       z     vdW  Elec       q    Type
REMARK                         _______ _______ _______ _____ _____    ______ ____
ROOT
ATOM      4  C   UNL     1      15.201  11.809  19.234  0.00  0.00    +0.005 C 
ATOM      6  C   UNL     1      15.027  11.425  17.761  0.00  0.00    +0.009 C 
ATOM      7  C   UNL     1      15.150  10.547  20.109  0.00  0.00    +0.040 C 
ATOM      8  C   UNL     1      13.699  10.715  17.498  0.00  0.00    +0.036 C 
ATOM      9  C   UNL     1      14.028   9.599  19.762  0.00  0.00    -0.037 A 
ATOM     10  C   UNL     1      13.376   9.652  18.516  0.00  0.00    -0.041 A 
ATOM     15  C   UNL     1      13.672   8.602  20.683  0.00  0.00    -0.005 A 
ATOM     16  C   UNL     1      12.356   8.730  18.234  0.00  0.00    -0.044 A 
ATOM     20  C   UNL     1      12.663   7.686  20.387  0.00  0.00    +0.124 A 
ATOM     21  C   UNL     1      12.004   7.751  19.163  0.00  0.00    +0.049 A 
ATOM     22  C   UNL     1      14.359   8.505  22.012  0.00  0.00    +0.048 C 
ATOM     23  C   UNL     1      11.618   8.754  16.932  0.00  0.00    +0.044 C 
ENDROOT
BRANCH  20   2
ATOM      2  O   UNL     1      12.307   6.722  21.281  0.00  0.00    -0.495 OA
ATOM     24  C   UNL     1      10.946   6.700  21.703  0.00  0.00    +0.277 C 
ENDBRANCH  20   2
BRANCH   4   5
ATOM      5  C   UNL     1      14.181  12.857  19.687  0.00  0.00    +0.075 C 
ATOM     12  C   UNL     1      14.439  14.203  19.029  0.00  0.00    +0.017 C 
BRANCH   5  11
ATOM      1  O   UNL     1      15.305  13.398  21.701  0.00  0.00    -0.275 OA
ATOM      3  N   UNL     1      13.096  12.705  21.902  0.00  0.00    -0.301 N 
ATOM     11  C   UNL     1      14.252  13.015  21.185  0.00  0.00    +0.219 C 
ATOM     13  C   UNL     1      13.089  12.830  23.361  0.00  0.00    +0.108 C 
ATOM     14  C   UNL     1      11.818  12.290  21.313  0.00  0.00    +0.108 C 
ATOM     17  C   UNL     1      12.635  11.529  24.018  0.00  0.00    +0.019 C 
ATOM     18  C   UNL     1      11.338  10.978  21.931  0.00  0.00    +0.019 C 
ATOM     19  C   UNL     1      11.291  11.067  23.456  0.00  0.00    +0.003 C 
ENDBRANCH   5  11
ENDBRANCH   4   5
TORSDOF 3
ENDMDL
MODEL 9
REMARK VINA RESULT:      -5.1     25.473     27.367
REMARK  Name = 7135392
REMARK  7 active torsions:
REMARK  status: ('A' for Active; 'I' for Inactive)
REMARK    1  A    between atoms: O_2  and  C_20
REMARK    2  A    between atoms: O_2  and  C_24
REMARK    3  A    between atoms: C_4  and  C_5
REMARK    4  A    between atoms: C_5  and  C_11
REMARK    5  A    between atoms: C_5  and  C_12
REMARK    6  A    between atoms: C_15  and  C_22
REMARK    7  A    between atoms: C_16  and  C_23
REMARK                            x       y       z     vdW  Elec       q    Type
REMARK                         _______ _______ _______ _____ _____    ______ ____
ROOT
ATOM      4  C   UNL     1     -11.185   8.782  17.269  0.00  0.00    +0.005 C 
ATOM      6  C   UNL     1     -12.243   8.528  16.190  0.00  0.00    +0.009 C 
ATOM      7  C   UNL     1     -11.402   7.817  18.445  0.00  0.00    +0.040 C 
ATOM      8  C   UNL     1     -13.666   8.723  16.713  0.00  0.00    +0.036 C 
ATOM      9  C   UNL     1     -12.839   7.696  18.890  0.00  0.00    -0.037 A 
ATOM     10  C   UNL     1     -13.904   8.083  18.056  0.00  0.00    -0.041 A 
ATOM     15  C   UNL     1     -13.117   7.125  20.141  0.00  0.00    -0.005 A 
ATOM     16  C   UNL     1     -15.224   7.925  18.508  0.00  0.00    -0.044 A 
ATOM     20  C   UNL     1     -14.433   6.965  20.575  0.00  0.00    +0.124 A 
ATOM     21  C   UNL     1     -15.486   7.367  19.758  0.00  0.00    +0.049 A 
ATOM     22  C   UNL     1     -12.007   6.684  21.047  0.00  0.00    +0.048 C 
ATOM     23  C   UNL     1     -16.392   8.337  17.669  0.00  0.00    +0.044 C 
ENDROOT
BRANCH  20   2
ATOM      2  O   UNL     1     -14.708   6.420  21.792  0.00  0.00    -0.495 OA
ATOM     24  C   UNL     1     -15.274   7.283  22.776  0.00  0.00    +0.277 C 
ENDBRANCH  20   2
BRANCH   4   5
ATOM      5  C   UNL     1     -11.161  10.242  17.729  0.00  0.00    +0.075 C 
ATOM     12  C   UNL     1     -10.036  11.016  17.061  0.00  0.00    +0.017 C 
BRANCH   5  11
ATOM      1  O   UNL     1      -9.963   9.815  19.727  0.00  0.00    -0.275 OA
ATOM      3  N   UNL     1     -12.006  10.897  19.957  0.00  0.00    -0.301 N 
ATOM     11  C   UNL     1     -10.982  10.296  19.225  0.00  0.00    +0.219 C 
ATOM     13  C   UNL     1     -11.905  10.985  21.415  0.00  0.00    +0.108 C 
ATOM     14  C   UNL     1     -13.207  11.518  19.385  0.00  0.00    +0.108 C 
ATOM     17  C   UNL     1     -13.141  10.391  22.085  0.00  0.00    +0.019 C 
ATOM     18  C   UNL     1     -14.470  10.934  20.016  0.00  0.00    +0.019 C 
ATOM     19  C   UNL     1     -14.421  11.024  21.540  0.00  0.00    +0.003 C 
ENDBRANCH   5  11
ENDBRANCH   4   5
TORSDOF 3
ENDMDL
MODEL 10
REMARK VINA RESULT:      -5.1      2.859      5.864
REMARK  Name = 7135392
REMARK  7 active torsions:
REMARK  status: ('A' for Active; 'I' for Inactive)
REMARK    1  A    between atoms: O_2  and  C_20
REMARK    2  A    between atoms: O_2  and  C_24
REMARK    3  A    between atoms: C_4  and  C_5
REMARK    4  A    between atoms: C_5  and  C_11
REMARK    5  A    between atoms: C_5  and  C_12
REMARK    6  A    between atoms: C_15  and  C_22
REMARK    7  A    between atoms: C_16  and  C_23
REMARK                            x       y       z     vdW  Elec       q    Type
REMARK                         _______ _______ _______ _____ _____    ______ ____
ROOT
ATOM      4  C   UNL     1      10.240   6.333   6.886  0.00  0.00    +0.005 C 
ATOM      6  C   UNL     1       9.553   7.217   7.931  0.00  0.00    +0.009 C 
ATOM      7  C   UNL     1      11.757   6.576   6.916  0.00  0.00    +0.040 C 
ATOM      8  C   UNL     1       9.804   8.706   7.690  0.00  0.00    +0.036 C 
ATOM      9  C   UNL     1      12.149   8.033   6.967  0.00  0.00    -0.037 A 
ATOM     10  C   UNL     1      11.241   9.028   7.372  0.00  0.00    -0.041 A 
ATOM     15  C   UNL     1      13.471   8.391   6.660  0.00  0.00    -0.005 A 
ATOM     16  C   UNL     1      11.664  10.365   7.426  0.00  0.00    -0.044 A 
ATOM     20  C   UNL     1      13.881   9.723   6.727  0.00  0.00    +0.124 A 
ATOM     21  C   UNL     1      12.977  10.710   7.108  0.00  0.00    +0.049 A 
ATOM     22  C   UNL     1      14.470   7.355   6.243  0.00  0.00    +0.048 C 
ATOM     23  C   UNL     1      10.734  11.464   7.833  0.00  0.00    +0.044 C 
ENDROOT
BRANCH  20   2
ATOM      2  O   UNL     1      15.161  10.077   6.423  0.00  0.00    -0.495 OA
ATOM     24  C   UNL     1      15.657  11.279   7.008  0.00  0.00    +0.277 C 
ENDBRANCH  20   2
BRANCH   4   5
ATOM      5  C   UNL     1       9.661   6.533   5.482  0.00  0.00    +0.075 C 
ATOM     12  C   UNL     1       8.186   6.166   5.434  0.00  0.00    +0.017 C 
BRANCH   5  11
ATOM      1  O   UNL     1      10.414   4.452   4.637  0.00  0.00    -0.275 OA
ATOM      3  N   UNL     1      11.092   6.348   3.476  0.00  0.00    -0.301 N 
ATOM     11  C   UNL     1      10.419   5.678   4.498  0.00  0.00    +0.219 C 
ATOM     13  C   UNL     1      11.852   5.586   2.484  0.00  0.00    +0.108 C 
ATOM     14  C   UNL     1      11.078   7.799   3.260  0.00  0.00    +0.108 C 
ATOM     17  C   UNL     1      13.290   6.091   2.392  0.00  0.00    +0.019 C 
ATOM     18  C   UNL     1      12.502   8.348   3.183  0.00  0.00    +0.019 C 
ATOM     19  C   UNL     1      13.330   7.598   2.142  0.00  0.00    +0.003 C 
ENDBRANCH   5  11
ENDBRANCH   4   5
TORSDOF 3
ENDMDL
