REMARK  Name = 28963166
REMARK  9 active torsions:
REMARK  status: ('A' for Active; 'I' for Inactive)
REMARK    1  A    between atoms: O_2  and  C_11
REMARK    2  A    between atoms: N_5  and  C_15
REMARK    3  A    between atoms: N_6  and  C_23
REMARK    4  A    between atoms: N_7  and  C_27
REMARK    5  A    between atoms: C_8  and  C_18
REMARK    6  A    between atoms: C_10  and  C_20
REMARK    7  A    between atoms: C_13  and  C_19
REMARK    8  A    between atoms: C_19  and  C_21
REMARK    9  A    between atoms: C_19  and  C_22
REMARK                            x       y       z     vdW  Elec       q    Type
REMARK                         _______ _______ _______ _____ _____    ______ ____
ROOT
ATOM      8  C   UNL     1      -1.359  -0.935  -1.425  0.00  0.00    -0.027 C 
ATOM      9  C   UNL     1      -1.182  -0.314   0.001  0.00  0.00    +0.028 C 
ATOM     10  C   UNL     1       0.221  -0.685   0.602  0.00  0.00    +0.012 C 
ATOM     11  C   UNL     1      -2.404  -0.632   0.910  0.00  0.00    +0.122 C 
ATOM     12  C   UNL     1      -2.699  -0.458  -2.033  0.00  0.00    +0.007 C 
ATOM     13  C   UNL     1      -3.750  -0.248   0.253  0.00  0.00    +0.029 C 
ATOM     14  C   UNL     1      -0.221  -0.428  -2.340  0.00  0.00    +0.009 C 
ATOM     15  C   UNL     1       1.356  -0.238  -0.362  0.00  0.00    +0.078 C 
ATOM     16  C   UNL     1      -3.902  -0.803  -1.164  0.00  0.00    +0.007 C 
ATOM     17  C   UNL     1       1.167  -0.736  -1.795  0.00  0.00    +0.023 C 
ATOM     18  C   UNL     1      -1.345  -2.484  -1.403  0.00  0.00    +0.011 C 
ATOM     20  C   UNL     1       0.474  -0.081   1.994  0.00  0.00    +0.010 C 
ENDROOT
BRANCH  15   5
ATOM      4  O   UNL     1       3.846   1.126  -0.740  0.00  0.00    -0.253 OA
ATOM      5  N   UNL     1       2.657  -0.667   0.105  0.00  0.00    -0.296 N 
ATOM      7  N   UNL     1       4.923  -0.594   0.441  0.00  0.00    -0.269 N 
ATOM     26  C   UNL     1       3.826   0.063  -0.124  0.00  0.00    +0.304 C 
ATOM     33  H   UNL     1       2.733  -1.577   0.549  0.00  0.00    +0.151 HD
ATOM     36  H   UNL     1       4.733  -1.470   0.920  0.00  0.00    +0.156 HD
BRANCH   7  27
ATOM      1  F   UNL     1       8.332   2.545  -0.815  0.00  0.00    -0.205 F 
ATOM     27  C   UNL     1       6.277  -0.187   0.431  0.00  0.00    +0.037 A 
ATOM     28  C   UNL     1       6.644   1.002  -0.199  0.00  0.00    +0.061 A 
ATOM     29  C   UNL     1       7.247  -0.976   1.050  0.00  0.00    +0.023 A 
ATOM     30  C   UNL     1       7.980   1.403  -0.209  0.00  0.00    +0.125 A 
ATOM     31  C   UNL     1       8.583  -0.575   1.040  0.00  0.00    +0.005 A 
ATOM     32  C   UNL     1       8.949   0.614   0.410  0.00  0.00    +0.038 A 
ENDBRANCH   7  27
ENDBRANCH  15   5
BRANCH  11   2
ATOM      2  O   UNL     1      -2.309   0.124   2.118  0.00  0.00    -0.391 OA
ATOM     34  H   UNL     1      -2.301   1.068   1.884  0.00  0.00    +0.210 HD
ENDBRANCH  11   2
BRANCH  13  19
ATOM     19  C   UNL     1      -4.946  -0.688   1.106  0.00  0.00    +0.077 C 
ATOM     21  C   UNL     1      -4.928  -2.201   1.294  0.00  0.00    +0.017 C 
BRANCH  19  22
ATOM      3  O   UNL     1      -6.901  -0.952  -0.306  0.00  0.00    -0.276 OA
ATOM      6  N   UNL     1      -6.632   1.032   0.862  0.00  0.00    -0.312 N 
ATOM     22  C   UNL     1      -6.259  -0.246   0.469  0.00  0.00    +0.216 C 
ATOM     35  H   UNL     1      -6.044   1.556   1.505  0.00  0.00    +0.149 HD
BRANCH   6  23
ATOM     23  C   UNL     1      -7.829   1.665   0.389  0.00  0.00    +0.073 C 
ATOM     24  C   UNL     1      -7.855   2.394  -0.922  0.00  0.00    +0.024 C 
ATOM     25  C   UNL     1      -7.959   3.160   0.364  0.00  0.00    +0.024 C 
ENDBRANCH   6  23
ENDBRANCH  19  22
ENDBRANCH  13  19
TORSDOF 6
