MODEL 1
REMARK VINA RESULT:      -7.7      0.000      0.000
REMARK  Name = 45783899
REMARK  9 active torsions:
REMARK  status: ('A' for Active; 'I' for Inactive)
REMARK    1  A    between atoms: N_2  and  C_12
REMARK    2  A    between atoms: C_7  and  C_11
REMARK    3  A    between atoms: C_8  and  C_12
REMARK    4  A    between atoms: C_10  and  C_15
REMARK    5  A    between atoms: C_11  and  C_16
REMARK    6  A    between atoms: C_11  and  C_17
REMARK    7  A    between atoms: C_14  and  C_20
REMARK    8  A    between atoms: C_15  and  C_23
REMARK    9  A    between atoms: C_26  and  C_28
REMARK                            x       y       z     vdW  Elec       q    Type
REMARK                         _______ _______ _______ _____ _____    ______ ____
ROOT
ATOM      7  C   UNL     1      14.135   9.229  20.485  0.00  0.00    +0.000 C 
ATOM      8  C   UNL     1      14.711   7.826  20.803  0.00  0.00    +0.029 C 
ATOM      9  C   UNL     1      12.921   9.526  21.377  0.00  0.00    +0.012 C 
ATOM     10  C   UNL     1      11.799   8.486  21.200  0.00  0.00    +0.024 C 
ATOM     13  C   UNL     1      13.640   6.794  21.068  0.00  0.00    -0.023 C 
ATOM     14  C   UNL     1      12.333   7.068  21.234  0.00  0.00    -0.073 C 
ATOM     20  C   UNL     1      11.338   5.975  21.509  0.00  0.00    +0.039 C 
ENDROOT
BRANCH   7  11
ATOM     11  C   UNL     1      15.189  10.328  20.657  0.00  0.00    -0.013 C 
ATOM     16  C   UNL     1      14.779  11.286  21.772  0.00  0.00    +0.007 C 
ATOM     17  C   UNL     1      15.393  11.080  19.346  0.00  0.00    +0.007 C 
ENDBRANCH   7  11
BRANCH   8  12
ATOM     12  C   UNL     1      15.625   7.334  19.675  0.00  0.00    +0.092 C 
BRANCH  12   2
ATOM      2  N   UNL     1      16.835   6.718  20.221  0.00  0.00    -0.299 NA
ATOM      3  N   UNL     1      19.640   6.226  20.439  0.00  0.00    -0.313 N 
ATOM      5  N   UNL     1      21.314   4.585  20.770  0.00  0.00    -0.240 NA
ATOM     18  C   UNL     1      17.728   7.743  20.776  0.00  0.00    +0.103 C 
ATOM     19  C   UNL     1      17.536   5.952  19.184  0.00  0.00    +0.103 C 
ATOM     21  C   UNL     1      18.972   7.107  21.403  0.00  0.00    +0.122 C 
ATOM     22  C   UNL     1      18.773   5.256  19.758  0.00  0.00    +0.122 C 
ATOM     24  C   UNL     1      20.985   5.889  20.624  0.00  0.00    +0.121 A 
ATOM     25  C   UNL     1      21.902   6.927  20.645  0.00  0.00    +0.043 A 
ATOM     27  C   UNL     1      23.242   6.608  20.827  0.00  0.00    +0.005 A 
ATOM     29  C   UNL     1      22.627   4.313  20.945  0.00  0.00    +0.113 A 
ATOM     30  C   UNL     1      23.620   5.278  20.982  0.00  0.00    +0.020 A 
ENDBRANCH  12   2
ENDBRANCH   8  12
BRANCH  10  15
ATOM     15  C   UNL     1      11.007   8.743  19.913  0.00  0.00    +0.105 C 
BRANCH  15  23
ATOM      1  O   UNL     1      12.399   9.455  18.040  0.00  0.00    -0.425 OA
ATOM      4  N   UNL     1      12.064   7.246  18.144  0.00  0.00    -0.112 NA
ATOM      6  N   UNL     1      12.861   7.505  17.045  0.00  0.00    -0.113 NA
ATOM     23  C   UNL     1      11.820   8.412  18.694  0.00  0.00    +0.218 A 
ATOM     26  C   UNL     1      13.031   8.807  17.022  0.00  0.00    +0.214 A 
ATOM     28  C   UNL     1      13.786   9.636  16.076  0.00  0.00    +0.111 C 
ENDBRANCH  15  23
ENDBRANCH  10  15
TORSDOF 5
ENDMDL
MODEL 2
REMARK VINA RESULT:      -7.1     26.733     30.215
REMARK  Name = 45783899
REMARK  9 active torsions:
REMARK  status: ('A' for Active; 'I' for Inactive)
REMARK    1  A    between atoms: N_2  and  C_12
REMARK    2  A    between atoms: C_7  and  C_11
REMARK    3  A    between atoms: C_8  and  C_12
REMARK    4  A    between atoms: C_10  and  C_15
REMARK    5  A    between atoms: C_11  and  C_16
REMARK    6  A    between atoms: C_11  and  C_17
REMARK    7  A    between atoms: C_14  and  C_20
REMARK    8  A    between atoms: C_15  and  C_23
REMARK    9  A    between atoms: C_26  and  C_28
REMARK                            x       y       z     vdW  Elec       q    Type
REMARK                         _______ _______ _______ _____ _____    ______ ____
ROOT
ATOM      7  C   UNL     1      -5.908 -10.816  14.896  0.00  0.00    +0.000 C 
ATOM      8  C   UNL     1      -4.823 -10.613  13.809  0.00  0.00    +0.029 C 
ATOM      9  C   UNL     1      -5.528 -10.066  16.181  0.00  0.00    +0.012 C 
ATOM     10  C   UNL     1      -4.176 -10.533  16.750  0.00  0.00    +0.024 C 
ATOM     13  C   UNL     1      -3.418 -10.637  14.365  0.00  0.00    -0.023 C 
ATOM     14  C   UNL     1      -3.111 -10.616  15.675  0.00  0.00    -0.073 C 
ATOM     20  C   UNL     1      -1.680 -10.628  16.138  0.00  0.00    +0.039 C 
ENDROOT
BRANCH   7  11
ATOM     11  C   UNL     1      -7.288 -10.356  14.414  0.00  0.00    -0.013 C 
ATOM     16  C   UNL     1      -8.004  -9.580  15.515  0.00  0.00    +0.007 C 
ATOM     17  C   UNL     1      -8.122 -11.552  13.966  0.00  0.00    +0.007 C 
ENDBRANCH   7  11
BRANCH   8  12
ATOM     12  C   UNL     1      -4.949 -11.661  12.698  0.00  0.00    +0.092 C 
BRANCH  12   2
ATOM      2  N   UNL     1      -5.120 -11.016  11.396  0.00  0.00    -0.299 NA
ATOM      3  N   UNL     1      -6.472  -9.475   9.407  0.00  0.00    -0.313 N 
ATOM      5  N   UNL     1      -6.976  -9.274   7.103  0.00  0.00    -0.240 NA
ATOM     18  C   UNL     1      -5.273  -9.565  11.557  0.00  0.00    +0.103 C 
ATOM     19  C   UNL     1      -6.287 -11.567  10.698  0.00  0.00    +0.103 C 
ATOM     21  C   UNL     1      -5.395  -8.870  10.198  0.00  0.00    +0.122 C 
ATOM     22  C   UNL     1      -6.443 -10.940   9.310  0.00  0.00    +0.122 C 
ATOM     24  C   UNL     1      -7.044  -8.758   8.350  0.00  0.00    +0.121 A 
ATOM     25  C   UNL     1      -7.649  -7.549   8.659  0.00  0.00    +0.043 A 
ATOM     27  C   UNL     1      -8.222  -6.826   7.620  0.00  0.00    +0.005 A 
ATOM     29  C   UNL     1      -7.545  -8.541   6.119  0.00  0.00    +0.113 A 
ATOM     30  C   UNL     1      -8.173  -7.323   6.323  0.00  0.00    +0.020 A 
ENDBRANCH  12   2
ENDBRANCH   8  12
BRANCH  10  15
ATOM     15  C   UNL     1      -4.318 -11.870  17.486  0.00  0.00    +0.105 C 
BRANCH  15  23
ATOM      1  O   UNL     1      -6.438 -12.570  18.470  0.00  0.00    -0.425 OA
ATOM      4  N   UNL     1      -5.325 -11.049  19.676  0.00  0.00    -0.112 NA
ATOM      6  N   UNL     1      -6.497 -11.351  20.345  0.00  0.00    -0.113 NA
ATOM     23  C   UNL     1      -5.333 -11.784  18.589  0.00  0.00    +0.218 A 
ATOM     26  C   UNL     1      -7.115 -12.242  19.605  0.00  0.00    +0.214 A 
ATOM     28  C   UNL     1      -8.400 -12.915  19.828  0.00  0.00    +0.111 C 
ENDBRANCH  15  23
ENDBRANCH  10  15
TORSDOF 5
ENDMDL
MODEL 3
REMARK VINA RESULT:      -7.0      2.561      4.832
REMARK  Name = 45783899
REMARK  9 active torsions:
REMARK  status: ('A' for Active; 'I' for Inactive)
REMARK    1  A    between atoms: N_2  and  C_12
REMARK    2  A    between atoms: C_7  and  C_11
REMARK    3  A    between atoms: C_8  and  C_12
REMARK    4  A    between atoms: C_10  and  C_15
REMARK    5  A    between atoms: C_11  and  C_16
REMARK    6  A    between atoms: C_11  and  C_17
REMARK    7  A    between atoms: C_14  and  C_20
REMARK    8  A    between atoms: C_15  and  C_23
REMARK    9  A    between atoms: C_26  and  C_28
REMARK                            x       y       z     vdW  Elec       q    Type
REMARK                         _______ _______ _______ _____ _____    ______ ____
ROOT
ATOM      7  C   UNL     1      16.725   7.872  21.042  0.00  0.00    +0.000 C 
ATOM      8  C   UNL     1      18.272   7.966  21.027  0.00  0.00    +0.029 C 
ATOM      9  C   UNL     1      16.111   9.008  20.210  0.00  0.00    +0.012 C 
ATOM     10  C   UNL     1      16.520  10.398  20.729  0.00  0.00    +0.024 C 
ATOM     13  C   UNL     1      18.779   9.387  21.113  0.00  0.00    -0.023 C 
ATOM     14  C   UNL     1      18.009  10.485  20.996  0.00  0.00    -0.073 C 
ATOM     20  C   UNL     1      18.604  11.863  21.080  0.00  0.00    +0.039 C 
ENDROOT
BRANCH   7  11
ATOM     11  C   UNL     1      16.234   6.519  20.519  0.00  0.00    -0.013 C 
ATOM     16  C   UNL     1      16.924   6.175  19.203  0.00  0.00    +0.007 C 
ATOM     17  C   UNL     1      14.718   6.535  20.347  0.00  0.00    +0.007 C 
ENDBRANCH   7  11
BRANCH   8  12
ATOM     12  C   UNL     1      18.888   7.137  22.159  0.00  0.00    +0.092 C 
BRANCH  12   2
ATOM      2  N   UNL     1      20.216   6.654  21.782  0.00  0.00    -0.299 NA
ATOM      3  N   UNL     1      22.340   4.754  21.581  0.00  0.00    -0.313 N 
ATOM      5  N   UNL     1      24.679   4.419  21.723  0.00  0.00    -0.240 NA
ATOM     18  C   UNL     1      20.108   5.512  20.866  0.00  0.00    +0.103 C 
ATOM     19  C   UNL     1      20.981   6.267  22.974  0.00  0.00    +0.103 C 
ATOM     21  C   UNL     1      21.492   5.032  20.418  0.00  0.00    +0.122 C 
ATOM     22  C   UNL     1      22.394   5.813  22.597  0.00  0.00    +0.122 C 
ATOM     24  C   UNL     1      23.454   3.919  21.443  0.00  0.00    +0.121 A 
ATOM     25  C   UNL     1      23.224   2.619  21.021  0.00  0.00    +0.043 A 
ATOM     27  C   UNL     1      24.321   1.778  20.880  0.00  0.00    +0.005 A 
ATOM     29  C   UNL     1      25.722   3.571  21.574  0.00  0.00    +0.113 A 
ATOM     30  C   UNL     1      25.598   2.255  21.158  0.00  0.00    +0.020 A 
ENDBRANCH  12   2
ENDBRANCH   8  12
BRANCH  10  15
ATOM     15  C   UNL     1      15.716  10.780  21.978  0.00  0.00    +0.105 C 
BRANCH  15  23
ATOM      1  O   UNL     1      13.625   9.578  22.339  0.00  0.00    -0.425 OA
ATOM      4  N   UNL     1      13.428  11.387  21.039  0.00  0.00    -0.112 NA
ATOM      6  N   UNL     1      12.178  10.808  21.156  0.00  0.00    -0.113 NA
ATOM     23  C   UNL     1      14.240  10.636  21.745  0.00  0.00    +0.218 A 
ATOM     26  C   UNL     1      12.340   9.755  21.923  0.00  0.00    +0.214 A 
ATOM     28  C   UNL     1      11.353   8.770  22.381  0.00  0.00    +0.111 C 
ENDBRANCH  15  23
ENDBRANCH  10  15
TORSDOF 5
ENDMDL
MODEL 4
REMARK VINA RESULT:      -6.9     27.828     29.337
REMARK  Name = 45783899
REMARK  9 active torsions:
REMARK  status: ('A' for Active; 'I' for Inactive)
REMARK    1  A    between atoms: N_2  and  C_12
REMARK    2  A    between atoms: C_7  and  C_11
REMARK    3  A    between atoms: C_8  and  C_12
REMARK    4  A    between atoms: C_10  and  C_15
REMARK    5  A    between atoms: C_11  and  C_16
REMARK    6  A    between atoms: C_11  and  C_17
REMARK    7  A    between atoms: C_14  and  C_20
REMARK    8  A    between atoms: C_15  and  C_23
REMARK    9  A    between atoms: C_26  and  C_28
REMARK                            x       y       z     vdW  Elec       q    Type
REMARK                         _______ _______ _______ _____ _____    ______ ____
ROOT
ATOM      7  C   UNL     1     -13.076   8.472  19.791  0.00  0.00    +0.000 C 
ATOM      8  C   UNL     1     -12.869   9.952  20.198  0.00  0.00    +0.029 C 
ATOM      9  C   UNL     1     -12.036   8.054  18.741  0.00  0.00    +0.012 C 
ATOM     10  C   UNL     1     -12.106   8.923  17.472  0.00  0.00    +0.024 C 
ATOM     13  C   UNL     1     -12.506  10.842  19.032  0.00  0.00    -0.023 C 
ATOM     14  C   UNL     1     -12.176  10.401  17.804  0.00  0.00    -0.073 C 
ATOM     20  C   UNL     1     -11.814  11.360  16.705  0.00  0.00    +0.039 C 
ENDROOT
BRANCH   7  11
ATOM     11  C   UNL     1     -13.001   7.534  20.999  0.00  0.00    -0.013 C 
ATOM     16  C   UNL     1     -11.817   6.581  20.860  0.00  0.00    +0.007 C 
ATOM     17  C   UNL     1     -14.305   6.757  21.152  0.00  0.00    +0.007 C 
ENDBRANCH   7  11
BRANCH   8  12
ATOM     12  C   UNL     1     -14.112  10.513  20.899  0.00  0.00    +0.092 C 
BRANCH  12   2
ATOM      2  N   UNL     1     -13.782  10.971  22.248  0.00  0.00    -0.299 NA
ATOM      3  N   UNL     1     -12.690  10.762  24.879  0.00  0.00    -0.313 N 
ATOM      5  N   UNL     1     -13.011  11.259  27.171  0.00  0.00    -0.240 NA
ATOM     18  C   UNL     1     -12.328  10.970  22.451  0.00  0.00    +0.103 C 
ATOM     19  C   UNL     1     -14.428  10.119  23.254  0.00  0.00    +0.103 C 
ATOM     21  C   UNL     1     -11.966  11.502  23.841  0.00  0.00    +0.122 C 
ATOM     22  C   UNL     1     -14.137  10.623  24.670  0.00  0.00    +0.122 C 
ATOM     24  C   UNL     1     -12.214  10.768  26.195  0.00  0.00    +0.121 A 
ATOM     25  C   UNL     1     -10.941  10.265  26.412  0.00  0.00    +0.043 A 
ATOM     27  C   UNL     1     -10.455  10.264  27.714  0.00  0.00    +0.005 A 
ATOM     29  C   UNL     1     -12.504  11.242  28.425  0.00  0.00    +0.113 A 
ATOM     30  C   UNL     1     -11.245  10.761  28.745  0.00  0.00    +0.020 A 
ENDBRANCH  12   2
ENDBRANCH   8  12
BRANCH  10  15
ATOM     15  C   UNL     1     -13.281   8.505  16.580  0.00  0.00    +0.105 C 
BRANCH  15  23
ATOM      1  O   UNL     1     -11.472   8.132  14.987  0.00  0.00    -0.425 OA
ATOM      4  N   UNL     1     -13.511   7.695  14.177  0.00  0.00    -0.112 NA
ATOM      6  N   UNL     1     -12.591   7.443  13.176  0.00  0.00    -0.113 NA
ATOM     23  C   UNL     1     -12.813   8.094  15.214  0.00  0.00    +0.218 A 
ATOM     26  C   UNL     1     -11.414   7.712  13.693  0.00  0.00    +0.214 A 
ATOM     28  C   UNL     1     -10.082   7.625  13.083  0.00  0.00    +0.111 C 
ENDBRANCH  15  23
ENDBRANCH  10  15
TORSDOF 5
ENDMDL
MODEL 5
REMARK VINA RESULT:      -6.9     26.474     30.074
REMARK  Name = 45783899
REMARK  9 active torsions:
REMARK  status: ('A' for Active; 'I' for Inactive)
REMARK    1  A    between atoms: N_2  and  C_12
REMARK    2  A    between atoms: C_7  and  C_11
REMARK    3  A    between atoms: C_8  and  C_12
REMARK    4  A    between atoms: C_10  and  C_15
REMARK    5  A    between atoms: C_11  and  C_16
REMARK    6  A    between atoms: C_11  and  C_17
REMARK    7  A    between atoms: C_14  and  C_20
REMARK    8  A    between atoms: C_15  and  C_23
REMARK    9  A    between atoms: C_26  and  C_28
REMARK                            x       y       z     vdW  Elec       q    Type
REMARK                         _______ _______ _______ _____ _____    ______ ____
ROOT
ATOM      7  C   UNL     1      -3.391 -10.828  14.411  0.00  0.00    +0.000 C 
ATOM      8  C   UNL     1      -4.100 -11.233  13.094  0.00  0.00    +0.029 C 
ATOM      9  C   UNL     1      -3.919 -11.667  15.584  0.00  0.00    +0.012 C 
ATOM     10  C   UNL     1      -5.437 -11.508  15.779  0.00  0.00    +0.024 C 
ATOM     13  C   UNL     1      -5.572 -11.517  13.278  0.00  0.00    -0.023 C 
ATOM     14  C   UNL     1      -6.189 -11.630  14.468  0.00  0.00    -0.073 C 
ATOM     20  C   UNL     1      -7.660 -11.929  14.556  0.00  0.00    +0.039 C 
ENDROOT
BRANCH   7  11
ATOM     11  C   UNL     1      -1.870 -10.977  14.307  0.00  0.00    -0.013 C 
ATOM     16  C   UNL     1      -1.499 -12.422  13.986  0.00  0.00    +0.007 C 
ATOM     17  C   UNL     1      -1.201 -10.520  15.600  0.00  0.00    +0.007 C 
ENDBRANCH   7  11
BRANCH   8  12
ATOM     12  C   UNL     1      -3.919 -10.160  12.015  0.00  0.00    +0.092 C 
BRANCH  12   2
ATOM      2  N   UNL     1      -4.536 -10.582  10.757  0.00  0.00    -0.299 NA
ATOM      3  N   UNL     1      -4.622 -11.172   7.964  0.00  0.00    -0.313 N 
ATOM      5  N   UNL     1      -5.887 -11.002   5.971  0.00  0.00    -0.240 NA
ATOM     18  C   UNL     1      -3.862 -11.775  10.228  0.00  0.00    +0.103 C 
ATOM     19  C   UNL     1      -4.482  -9.499   9.769  0.00  0.00    +0.103 C 
ATOM     21  C   UNL     1      -4.535 -12.261   8.941  0.00  0.00    +0.122 C 
ATOM     22  C   UNL     1      -5.176  -9.909   8.466  0.00  0.00    +0.122 C 
ATOM     24  C   UNL     1      -4.790 -11.470   6.607  0.00  0.00    +0.121 A 
ATOM     25  C   UNL     1      -3.807 -12.235   5.999  0.00  0.00    +0.043 A 
ATOM     27  C   UNL     1      -3.960 -12.538   4.651  0.00  0.00    +0.005 A 
ATOM     29  C   UNL     1      -6.002 -11.318   4.661  0.00  0.00    +0.113 A 
ATOM     30  C   UNL     1      -5.076 -12.075   3.962  0.00  0.00    +0.020 A 
ENDBRANCH  12   2
ENDBRANCH   8  12
BRANCH  10  15
ATOM     15  C   UNL     1      -5.769 -10.186  16.480  0.00  0.00    +0.105 C 
BRANCH  15  23
ATOM      1  O   UNL     1      -7.735 -10.623  17.857  0.00  0.00    -0.425 OA
ATOM      4  N   UNL     1      -5.826 -10.462  19.012  0.00  0.00    -0.112 NA
ATOM      6  N   UNL     1      -6.849 -10.708  19.909  0.00  0.00    -0.113 NA
ATOM     23  C   UNL     1      -6.390 -10.421  17.827  0.00  0.00    +0.218 A 
ATOM     26  C   UNL     1      -7.945 -10.794  19.192  0.00  0.00    +0.214 A 
ATOM     28  C   UNL     1      -9.327 -11.041  19.619  0.00  0.00    +0.111 C 
ENDBRANCH  15  23
ENDBRANCH  10  15
TORSDOF 5
ENDMDL
MODEL 6
REMARK VINA RESULT:      -6.9     26.833     30.972
REMARK  Name = 45783899
REMARK  9 active torsions:
REMARK  status: ('A' for Active; 'I' for Inactive)
REMARK    1  A    between atoms: N_2  and  C_12
REMARK    2  A    between atoms: C_7  and  C_11
REMARK    3  A    between atoms: C_8  and  C_12
REMARK    4  A    between atoms: C_10  and  C_15
REMARK    5  A    between atoms: C_11  and  C_16
REMARK    6  A    between atoms: C_11  and  C_17
REMARK    7  A    between atoms: C_14  and  C_20
REMARK    8  A    between atoms: C_15  and  C_23
REMARK    9  A    between atoms: C_26  and  C_28
REMARK                            x       y       z     vdW  Elec       q    Type
REMARK                         _______ _______ _______ _____ _____    ______ ____
ROOT
ATOM      7  C   UNL     1      -6.042 -13.338  16.357  0.00  0.00    +0.000 C 
ATOM      8  C   UNL     1      -7.137 -13.526  17.436  0.00  0.00    +0.029 C 
ATOM      9  C   UNL     1      -4.665 -13.161  17.015  0.00  0.00    +0.012 C 
ATOM     10  C   UNL     1      -4.625 -11.952  17.967  0.00  0.00    +0.024 C 
ATOM     13  C   UNL     1      -6.934 -12.642  18.645  0.00  0.00    -0.023 C 
ATOM     14  C   UNL     1      -5.825 -11.922  18.891  0.00  0.00    -0.073 C 
ATOM     20  C   UNL     1      -5.705 -11.079  20.131  0.00  0.00    +0.039 C 
ENDROOT
BRANCH   7  11
ATOM     11  C   UNL     1      -6.003 -14.514  15.376  0.00  0.00    -0.013 C 
ATOM     16  C   UNL     1      -5.364 -15.733  16.034  0.00  0.00    +0.007 C 
ATOM     17  C   UNL     1      -5.247 -14.125  14.109  0.00  0.00    +0.007 C 
ENDBRANCH   7  11
BRANCH   8  12
ATOM     12  C   UNL     1      -8.535 -13.281  16.855  0.00  0.00    +0.092 C 
BRANCH  12   2
ATOM      2  N   UNL     1      -8.884 -11.863  16.930  0.00  0.00    -0.299 NA
ATOM      3  N   UNL     1     -10.384  -9.511  16.314  0.00  0.00    -0.313 N 
ATOM      5  N   UNL     1     -10.275  -7.194  15.846  0.00  0.00    -0.240 NA
ATOM     18  C   UNL     1     -10.249 -11.696  17.445  0.00  0.00    +0.103 C 
ATOM     19  C   UNL     1      -8.769 -11.234  15.608  0.00  0.00    +0.103 C 
ATOM     21  C   UNL     1     -10.607 -10.213  17.582  0.00  0.00    +0.122 C 
ATOM     22  C   UNL     1      -9.077  -9.737  15.684  0.00  0.00    +0.122 C 
ATOM     24  C   UNL     1     -11.029  -8.293  16.072  0.00  0.00    +0.121 A 
ATOM     25  C   UNL     1     -12.415  -8.296  16.082  0.00  0.00    +0.043 A 
ATOM     27  C   UNL     1     -13.069  -7.093  15.844  0.00  0.00    +0.005 A 
ATOM     29  C   UNL     1     -10.947  -6.042  15.618  0.00  0.00    +0.113 A 
ATOM     30  C   UNL     1     -12.329  -5.940  15.607  0.00  0.00    +0.020 A 
ENDBRANCH  12   2
ENDBRANCH   8  12
BRANCH  10  15
ATOM     15  C   UNL     1      -4.500 -10.639  17.186  0.00  0.00    +0.105 C 
BRANCH  15  23
ATOM      1  O   UNL     1      -3.631 -10.615  14.907  0.00  0.00    -0.425 OA
ATOM      4  N   UNL     1      -2.054 -10.757  16.488  0.00  0.00    -0.112 NA
ATOM      6  N   UNL     1      -1.425 -10.754  15.257  0.00  0.00    -0.113 NA
ATOM     23  C   UNL     1      -3.339 -10.674  16.235  0.00  0.00    +0.218 A 
ATOM     26  C   UNL     1      -2.383 -10.671  14.363  0.00  0.00    +0.214 A 
ATOM     28  C   UNL     1      -2.297 -10.631  12.898  0.00  0.00    +0.111 C 
ENDBRANCH  15  23
ENDBRANCH  10  15
TORSDOF 5
ENDMDL
MODEL 7
REMARK VINA RESULT:      -6.7     24.559     26.407
REMARK  Name = 45783899
REMARK  9 active torsions:
REMARK  status: ('A' for Active; 'I' for Inactive)
REMARK    1  A    between atoms: N_2  and  C_12
REMARK    2  A    between atoms: C_7  and  C_11
REMARK    3  A    between atoms: C_8  and  C_12
REMARK    4  A    between atoms: C_10  and  C_15
REMARK    5  A    between atoms: C_11  and  C_16
REMARK    6  A    between atoms: C_11  and  C_17
REMARK    7  A    between atoms: C_14  and  C_20
REMARK    8  A    between atoms: C_15  and  C_23
REMARK    9  A    between atoms: C_26  and  C_28
REMARK                            x       y       z     vdW  Elec       q    Type
REMARK                         _______ _______ _______ _____ _____    ______ ____
ROOT
ATOM      7  C   UNL     1      17.017  -4.720  -4.012  0.00  0.00    +0.000 C 
ATOM      8  C   UNL     1      17.626  -5.784  -3.065  0.00  0.00    +0.029 C 
ATOM      9  C   UNL     1      15.485  -4.713  -3.896  0.00  0.00    +0.012 C 
ATOM     10  C   UNL     1      14.868  -6.081  -4.238  0.00  0.00    +0.024 C 
ATOM     13  C   UNL     1      16.821  -7.061  -3.014  0.00  0.00    -0.023 C 
ATOM     14  C   UNL     1      15.593  -7.216  -3.544  0.00  0.00    -0.073 C 
ATOM     20  C   UNL     1      14.858  -8.523  -3.433  0.00  0.00    +0.039 C 
ENDROOT
BRANCH   7  11
ATOM     11  C   UNL     1      17.567  -3.320  -3.722  0.00  0.00    -0.013 C 
ATOM     16  C   UNL     1      16.950  -2.761  -2.444  0.00  0.00    +0.007 C 
ATOM     17  C   UNL     1      17.303  -2.390  -4.902  0.00  0.00    +0.007 C 
ENDBRANCH   7  11
BRANCH   8  12
ATOM     12  C   UNL     1      19.073  -6.109  -3.455  0.00  0.00    +0.092 C 
BRANCH  12   2
ATOM      2  N   UNL     1      19.959  -5.991  -2.298  0.00  0.00    -0.299 NA
ATOM      3  N   UNL     1      20.825  -6.462   0.383  0.00  0.00    -0.313 N 
ATOM      5  N   UNL     1      21.799  -5.505   2.317  0.00  0.00    -0.240 NA
ATOM     18  C   UNL     1      20.469  -7.310  -1.902  0.00  0.00    +0.103 C 
ATOM     19  C   UNL     1      19.254  -5.369  -1.170  0.00  0.00    +0.103 C 
ATOM     21  C   UNL     1      21.444  -7.193  -0.727  0.00  0.00    +0.122 C 
ATOM     22  C   UNL     1      20.188  -5.188   0.029  0.00  0.00    +0.122 C 
ATOM     24  C   UNL     1      21.337  -6.604   1.678  0.00  0.00    +0.121 A 
ATOM     25  C   UNL     1      21.337  -7.877   2.224  0.00  0.00    +0.043 A 
ATOM     27  C   UNL     1      21.842  -8.033   3.509  0.00  0.00    +0.005 A 
ATOM     29  C   UNL     1      22.283  -5.697   3.565  0.00  0.00    +0.113 A 
ATOM     30  C   UNL     1      22.327  -6.927   4.200  0.00  0.00    +0.020 A 
ENDBRANCH  12   2
ENDBRANCH   8  12
BRANCH  10  15
ATOM     15  C   UNL     1      14.825  -6.303  -5.754  0.00  0.00    +0.105 C 
BRANCH  15  23
ATOM      1  O   UNL     1      12.682  -5.212  -6.162  0.00  0.00    -0.425 OA
ATOM      4  N   UNL     1      14.394  -4.319  -7.291  0.00  0.00    -0.112 NA
ATOM      6  N   UNL     1      13.253  -3.609  -7.615  0.00  0.00    -0.113 NA
ATOM     23  C   UNL     1      14.013  -5.243  -6.441  0.00  0.00    +0.218 A 
ATOM     26  C   UNL     1      12.278  -4.165  -6.934  0.00  0.00    +0.214 A 
ATOM     28  C   UNL     1      10.851  -3.822  -6.892  0.00  0.00    +0.111 C 
ENDBRANCH  15  23
ENDBRANCH  10  15
TORSDOF 5
ENDMDL
MODEL 8
REMARK VINA RESULT:      -6.7     28.152     30.018
REMARK  Name = 45783899
REMARK  9 active torsions:
REMARK  status: ('A' for Active; 'I' for Inactive)
REMARK    1  A    between atoms: N_2  and  C_12
REMARK    2  A    between atoms: C_7  and  C_11
REMARK    3  A    between atoms: C_8  and  C_12
REMARK    4  A    between atoms: C_10  and  C_15
REMARK    5  A    between atoms: C_11  and  C_16
REMARK    6  A    between atoms: C_11  and  C_17
REMARK    7  A    between atoms: C_14  and  C_20
REMARK    8  A    between atoms: C_15  and  C_23
REMARK    9  A    between atoms: C_26  and  C_28
REMARK                            x       y       z     vdW  Elec       q    Type
REMARK                         _______ _______ _______ _____ _____    ______ ____
ROOT
ATOM      7  C   UNL     1      -4.726 -11.875   8.681  0.00  0.00    +0.000 C 
ATOM      8  C   UNL     1      -3.805 -11.484   9.864  0.00  0.00    +0.029 C 
ATOM      9  C   UNL     1      -4.862 -10.705   7.696  0.00  0.00    +0.012 C 
ATOM     10  C   UNL     1      -5.437  -9.443   8.365  0.00  0.00    +0.024 C 
ATOM     13  C   UNL     1      -4.017 -10.063  10.332  0.00  0.00    -0.023 C 
ATOM     14  C   UNL     1      -4.753  -9.142   9.683  0.00  0.00    -0.073 C 
ATOM     20  C   UNL     1      -4.896  -7.744  10.217  0.00  0.00    +0.039 C 
ENDROOT
BRANCH   7  11
ATOM     11  C   UNL     1      -4.210 -13.116   7.947  0.00  0.00    -0.013 C 
ATOM     16  C   UNL     1      -3.913 -12.785   6.487  0.00  0.00    +0.007 C 
ATOM     17  C   UNL     1      -5.222 -14.254   8.047  0.00  0.00    +0.007 C 
ENDBRANCH   7  11
BRANCH   8  12
ATOM     12  C   UNL     1      -3.985 -12.442  11.047  0.00  0.00    +0.092 C 
BRANCH  12   2
ATOM      2  N   UNL     1      -4.377 -11.709  12.251  0.00  0.00    -0.299 NA
ATOM      3  N   UNL     1      -4.968 -11.378  15.026  0.00  0.00    -0.313 N 
ATOM      5  N   UNL     1      -6.402 -10.358  16.608  0.00  0.00    -0.240 NA
ATOM     18  C   UNL     1      -3.301 -11.747  13.249  0.00  0.00    +0.103 C 
ATOM     19  C   UNL     1      -5.607 -12.273  12.819  0.00  0.00    +0.103 C 
ATOM     21  C   UNL     1      -3.676 -10.934  14.492  0.00  0.00    +0.122 C 
ATOM     22  C   UNL     1      -6.058 -11.479  14.048  0.00  0.00    +0.122 C 
ATOM     24  C   UNL     1      -5.301 -11.101  16.356  0.00  0.00    +0.121 A 
ATOM     25  C   UNL     1      -4.469 -11.613  17.339  0.00  0.00    +0.043 A 
ATOM     27  C   UNL     1      -4.787 -11.346  18.665  0.00  0.00    +0.005 A 
ATOM     29  C   UNL     1      -6.680 -10.118  17.910  0.00  0.00    +0.113 A 
ATOM     30  C   UNL     1      -5.912 -10.585  18.965  0.00  0.00    +0.020 A 
ENDBRANCH  12   2
ENDBRANCH   8  12
BRANCH  10  15
ATOM     15  C   UNL     1      -6.955  -9.559   8.548  0.00  0.00    +0.105 C 
BRANCH  15  23
ATOM      1  O   UNL     1      -8.136  -7.438   8.783  0.00  0.00    -0.425 OA
ATOM      4  N   UNL     1      -7.930  -8.143   6.670  0.00  0.00    -0.112 NA
ATOM      6  N   UNL     1      -8.614  -6.941   6.655  0.00  0.00    -0.113 NA
ATOM     23  C   UNL     1      -7.672  -8.393   7.933  0.00  0.00    +0.218 A 
ATOM     26  C   UNL     1      -8.712  -6.567   7.909  0.00  0.00    +0.214 A 
ATOM     28  C   UNL     1      -9.340  -5.370   8.483  0.00  0.00    +0.111 C 
ENDBRANCH  15  23
ENDBRANCH  10  15
TORSDOF 5
ENDMDL
MODEL 9
REMARK VINA RESULT:      -6.7     28.774     32.629
REMARK  Name = 45783899
REMARK  9 active torsions:
REMARK  status: ('A' for Active; 'I' for Inactive)
REMARK    1  A    between atoms: N_2  and  C_12
REMARK    2  A    between atoms: C_7  and  C_11
REMARK    3  A    between atoms: C_8  and  C_12
REMARK    4  A    between atoms: C_10  and  C_15
REMARK    5  A    between atoms: C_11  and  C_16
REMARK    6  A    between atoms: C_11  and  C_17
REMARK    7  A    between atoms: C_14  and  C_20
REMARK    8  A    between atoms: C_15  and  C_23
REMARK    9  A    between atoms: C_26  and  C_28
REMARK                            x       y       z     vdW  Elec       q    Type
REMARK                         _______ _______ _______ _____ _____    ______ ____
ROOT
ATOM      7  C   UNL     1     -11.335 -10.569  18.656  0.00  0.00    +0.000 C 
ATOM      8  C   UNL     1     -11.267  -9.298  17.773  0.00  0.00    +0.029 C 
ATOM      9  C   UNL     1     -10.075 -10.685  19.528  0.00  0.00    +0.012 C 
ATOM     10  C   UNL     1      -8.788 -10.744  18.687  0.00  0.00    +0.024 C 
ATOM     13  C   UNL     1      -9.885  -9.034  17.223  0.00  0.00    -0.023 C 
ATOM     14  C   UNL     1      -8.769  -9.679  17.609  0.00  0.00    -0.073 C 
ATOM     20  C   UNL     1      -7.430  -9.339  17.015  0.00  0.00    +0.039 C 
ENDROOT
BRANCH   7  11
ATOM     11  C   UNL     1     -12.584 -10.578  19.543  0.00  0.00    -0.013 C 
ATOM     16  C   UNL     1     -12.401  -9.633  20.728  0.00  0.00    +0.007 C 
ATOM     17  C   UNL     1     -12.886 -11.994  20.024  0.00  0.00    +0.007 C 
ENDBRANCH   7  11
BRANCH   8  12
ATOM     12  C   UNL     1     -12.270  -9.373  16.617  0.00  0.00    +0.092 C 
BRANCH  12   2
ATOM      2  N   UNL     1     -12.052  -8.279  15.671  0.00  0.00    -0.299 NA
ATOM      3  N   UNL     1     -12.811  -6.256  13.802  0.00  0.00    -0.313 N 
ATOM      5  N   UNL     1     -12.285  -5.194  11.754  0.00  0.00    -0.240 NA
ATOM     18  C   UNL     1     -12.728  -7.059  16.130  0.00  0.00    +0.103 C 
ATOM     19  C   UNL     1     -12.538  -8.647  14.336  0.00  0.00    +0.103 C 
ATOM     21  C   UNL     1     -12.459  -5.890  15.178  0.00  0.00    +0.122 C 
ATOM     22  C   UNL     1     -12.264  -7.531  13.324  0.00  0.00    +0.122 C 
ATOM     24  C   UNL     1     -13.060  -5.253  12.860  0.00  0.00    +0.121 A 
ATOM     25  C   UNL     1     -14.099  -4.375  13.127  0.00  0.00    +0.043 A 
ATOM     27  C   UNL     1     -14.358  -3.373  12.199  0.00  0.00    +0.005 A 
ATOM     29  C   UNL     1     -12.567  -4.206  10.874  0.00  0.00    +0.113 A 
ATOM     30  C   UNL     1     -13.582  -3.280  11.049  0.00  0.00    +0.020 A 
ENDBRANCH  12   2
ENDBRANCH   8  12
BRANCH  10  15
ATOM     15  C   UNL     1      -8.586 -12.139  18.083  0.00  0.00    +0.105 C 
BRANCH  15  23
ATOM      1  O   UNL     1      -6.312 -11.969  18.948  0.00  0.00    -0.425 OA
ATOM      4  N   UNL     1      -6.504 -13.247  17.122  0.00  0.00    -0.112 NA
ATOM      6  N   UNL     1      -5.174 -13.239  17.500  0.00  0.00    -0.113 NA
ATOM     23  C   UNL     1      -7.130 -12.493  17.996  0.00  0.00    +0.218 A 
ATOM     26  C   UNL     1      -5.108 -12.481  18.569  0.00  0.00    +0.214 A 
ATOM     28  C   UNL     1      -3.946 -12.119  19.390  0.00  0.00    +0.111 C 
ENDBRANCH  15  23
ENDBRANCH  10  15
TORSDOF 5
ENDMDL
MODEL 10
REMARK VINA RESULT:      -6.7     13.999     18.305
REMARK  Name = 45783899
REMARK  9 active torsions:
REMARK  status: ('A' for Active; 'I' for Inactive)
REMARK    1  A    between atoms: N_2  and  C_12
REMARK    2  A    between atoms: C_7  and  C_11
REMARK    3  A    between atoms: C_8  and  C_12
REMARK    4  A    between atoms: C_10  and  C_15
REMARK    5  A    between atoms: C_11  and  C_16
REMARK    6  A    between atoms: C_11  and  C_17
REMARK    7  A    between atoms: C_14  and  C_20
REMARK    8  A    between atoms: C_15  and  C_23
REMARK    9  A    between atoms: C_26  and  C_28
REMARK                            x       y       z     vdW  Elec       q    Type
REMARK                         _______ _______ _______ _____ _____    ______ ____
ROOT
ATOM      7  C   UNL     1      10.385   7.175   6.270  0.00  0.00    +0.000 C 
ATOM      8  C   UNL     1       9.915   6.551   4.932  0.00  0.00    +0.029 C 
ATOM      9  C   UNL     1       9.200   7.816   7.008  0.00  0.00    +0.012 C 
ATOM     10  C   UNL     1       8.517   8.913   6.172  0.00  0.00    +0.024 C 
ATOM     13  C   UNL     1       8.886   7.394   4.215  0.00  0.00    -0.023 C 
ATOM     14  C   UNL     1       8.261   8.460   4.748  0.00  0.00    -0.073 C 
ATOM     20  C   UNL     1       7.238   9.233   3.964  0.00  0.00    +0.039 C 
ENDROOT
BRANCH   7  11
ATOM     11  C   UNL     1      11.062   6.140   7.173  0.00  0.00    -0.013 C 
ATOM     16  C   UNL     1      10.254   5.942   8.453  0.00  0.00    +0.007 C 
ATOM     17  C   UNL     1      12.490   6.567   7.496  0.00  0.00    +0.007 C 
ENDBRANCH   7  11
BRANCH   8  12
ATOM     12  C   UNL     1      11.101   6.290   3.996  0.00  0.00    +0.092 C 
BRANCH  12   2
ATOM      2  N   UNL     1      10.652   5.656   2.757  0.00  0.00    -0.299 NA
ATOM      3  N   UNL     1      10.950   4.511   0.157  0.00  0.00    -0.313 N 
ATOM      5  N   UNL     1      10.033   4.342  -2.018  0.00  0.00    -0.240 NA
ATOM     18  C   UNL     1      11.287   4.343   2.592  0.00  0.00    +0.103 C 
ATOM     19  C   UNL     1      10.960   6.508   1.602  0.00  0.00    +0.103 C 
ATOM     21  C   UNL     1      10.781   3.642   1.327  0.00  0.00    +0.122 C 
ATOM     22  C   UNL     1      10.444   5.881   0.304  0.00  0.00    +0.122 C 
ATOM     24  C   UNL     1      10.969   3.951  -1.125  0.00  0.00    +0.121 A 
ATOM     25  C   UNL     1      11.960   3.020  -1.396  0.00  0.00    +0.043 A 
ATOM     27  C   UNL     1      11.992   2.456  -2.665  0.00  0.00    +0.005 A 
ATOM     29  C   UNL     1      10.096   3.771  -3.242  0.00  0.00    +0.113 A 
ATOM     30  C   UNL     1      11.046   2.832  -3.612  0.00  0.00    +0.020 A 
ENDBRANCH  12   2
ENDBRANCH   8  12
BRANCH  10  15
ATOM     15  C   UNL     1       9.329  10.213   6.196  0.00  0.00    +0.105 C 
BRANCH  15  23
ATOM      1  O   UNL     1       8.792  11.072   8.416  0.00  0.00    -0.425 OA
ATOM      4  N   UNL     1      10.931  10.472   8.159  0.00  0.00    -0.112 NA
ATOM      6  N   UNL     1      10.770  10.936   9.451  0.00  0.00    -0.113 NA
ATOM     23  C   UNL     1       9.751  10.569   7.592  0.00  0.00    +0.218 A 
ATOM     26  C   UNL     1       9.507  11.276   9.556  0.00  0.00    +0.214 A 
ATOM     28  C   UNL     1       8.779  11.831  10.704  0.00  0.00    +0.111 C 
ENDBRANCH  15  23
ENDBRANCH  10  15
TORSDOF 5
ENDMDL
