MODEL 1
REMARK VINA RESULT:      -7.9      0.000      0.000
REMARK  Name = 11884011
REMARK  6 active torsions:
REMARK  status: ('A' for Active; 'I' for Inactive)
REMARK    1  A    between atoms: S_2  and  N_9
REMARK    2  A    between atoms: S_2  and  C_17
REMARK    3  A    between atoms: O_5  and  C_14
REMARK    4  A    between atoms: O_5  and  C_18
REMARK    5  A    between atoms: N_9  and  C_13
REMARK    6  A    between atoms: N_10  and  C_21
REMARK                            x       y       z     vdW  Elec       q    Type
REMARK                         _______ _______ _______ _____ _____    ______ ____
ROOT
ATOM      3  O   UNL     1      16.304   8.309  21.175  0.00  0.00    -0.369 OA
ATOM      4  O   UNL     1      15.864   5.999  19.193  0.00  0.00    -0.368 OA
ATOM     11  C   UNL     1      15.244   6.311  20.458  0.00  0.00    +0.171 C 
ATOM     12  C   UNL     1      16.329   6.882  21.350  0.00  0.00    +0.191 C 
ATOM     13  C   UNL     1      14.273   7.453  20.287  0.00  0.00    +0.133 C 
ATOM     14  C   UNL     1      17.583   6.270  20.775  0.00  0.00    +0.235 C 
ATOM     15  C   UNL     1      15.170   8.673  20.375  0.00  0.00    +0.183 C 
ATOM     16  C   UNL     1      17.274   6.241  19.295  0.00  0.00    +0.207 C 
ENDROOT
BRANCH  13   9
ATOM      9  N   UNL     1      13.301   7.464  21.407  0.00  0.00    -0.182 NA
ATOM     34  H   UNL     1      13.599   7.054  22.300  0.00  0.00    +0.148 HD
BRANCH   9   2
ATOM      2  S   UNL     1      11.659   7.761  21.097  0.00  0.00    +0.059 S 
ATOM      6  O   UNL     1      10.846   6.887  21.922  0.00  0.00    -0.153 OA
ATOM      7  O   UNL     1      11.456   7.807  19.662  0.00  0.00    -0.153 OA
BRANCH   2  17
ATOM      1 CL   UNL     1      10.977  13.604  23.228  0.00  0.00    -0.084 Cl
ATOM     17  C   UNL     1      11.467   9.412  21.699  0.00  0.00    +0.105 A 
ATOM     19  C   UNL     1      11.854  10.473  20.899  0.00  0.00    +0.030 A 
ATOM     20  C   UNL     1      10.933   9.613  22.960  0.00  0.00    +0.030 A 
ATOM     22  C   UNL     1      11.702  11.776  21.374  0.00  0.00    +0.022 A 
ATOM     23  C   UNL     1      10.780  10.915  23.435  0.00  0.00    +0.022 A 
ATOM     25  C   UNL     1      11.165  11.996  22.642  0.00  0.00    +0.041 A 
ENDBRANCH   2  17
ENDBRANCH   9   2
ENDBRANCH  13   9
BRANCH  14   5
ATOM      5  O   UNL     1      18.751   7.008  21.059  0.00  0.00    -0.442 OA
BRANCH   5  18
ATOM      8  O   UNL     1      19.969   6.229  22.830  0.00  0.00    -0.226 OA
ATOM     10  N   UNL     1      20.587   5.776  20.618  0.00  0.00    -0.251 N 
ATOM     18  C   UNL     1      19.805   6.316  21.620  0.00  0.00    +0.405 C 
ATOM     35  H   UNL     1      20.260   5.977  19.681  0.00  0.00    +0.158 HD
BRANCH  10  21
ATOM     21  C   UNL     1      21.760   4.998  20.754  0.00  0.00    +0.044 A 
ATOM     24  C   UNL     1      23.029   5.573  20.651  0.00  0.00    +0.003 A 
ATOM     26  C   UNL     1      21.592   3.640  20.992  0.00  0.00    +0.024 A 
ATOM     27  C   UNL     1      24.167   4.744  20.795  0.00  0.00    -0.016 A 
ATOM     28  C   UNL     1      23.206   6.946  20.411  0.00  0.00    +0.010 A 
ATOM     29  C   UNL     1      22.711   2.825  21.134  0.00  0.00    +0.002 A 
ATOM     30  C   UNL     1      23.991   3.372  21.036  0.00  0.00    +0.008 A 
ATOM     31  C   UNL     1      25.448   5.312  20.694  0.00  0.00    +0.008 A 
ATOM     32  C   UNL     1      24.485   7.492  20.313  0.00  0.00    +0.001 A 
ATOM     33  C   UNL     1      25.604   6.677  20.454  0.00  0.00    +0.001 A 
ENDBRANCH  10  21
ENDBRANCH   5  18
ENDBRANCH  14   5
TORSDOF 6
ENDMDL
MODEL 2
REMARK VINA RESULT:      -7.8      1.760      2.363
REMARK  Name = 11884011
REMARK  6 active torsions:
REMARK  status: ('A' for Active; 'I' for Inactive)
REMARK    1  A    between atoms: S_2  and  N_9
REMARK    2  A    between atoms: S_2  and  C_17
REMARK    3  A    between atoms: O_5  and  C_14
REMARK    4  A    between atoms: O_5  and  C_18
REMARK    5  A    between atoms: N_9  and  C_13
REMARK    6  A    between atoms: N_10  and  C_21
REMARK                            x       y       z     vdW  Elec       q    Type
REMARK                         _______ _______ _______ _____ _____    ______ ____
ROOT
ATOM      3  O   UNL     1      16.246   8.343  20.671  0.00  0.00    -0.369 OA
ATOM      4  O   UNL     1      16.652   5.595  19.350  0.00  0.00    -0.368 OA
ATOM     11  C   UNL     1      15.830   6.016  20.459  0.00  0.00    +0.171 C 
ATOM     12  C   UNL     1      16.620   7.067  21.216  0.00  0.00    +0.191 C 
ATOM     13  C   UNL     1      14.623   6.763  19.950  0.00  0.00    +0.133 C 
ATOM     14  C   UNL     1      18.048   6.711  20.879  0.00  0.00    +0.235 C 
ATOM     15  C   UNL     1      15.156   8.170  19.753  0.00  0.00    +0.183 C 
ATOM     16  C   UNL     1      17.930   6.240  19.448  0.00  0.00    +0.207 C 
ENDROOT
BRANCH  13   9
ATOM      9  N   UNL     1      13.560   6.771  20.983  0.00  0.00    -0.182 NA
ATOM     34  H   UNL     1      13.784   6.370  21.901  0.00  0.00    +0.148 HD
BRANCH   9   2
ATOM      2  S   UNL     1      11.947   7.051  20.533  0.00  0.00    +0.059 S 
ATOM      6  O   UNL     1      11.085   6.100  21.209  0.00  0.00    -0.153 OA
ATOM      7  O   UNL     1      11.884   7.195  19.091  0.00  0.00    -0.153 OA
BRANCH   2  17
ATOM      1 CL   UNL     1      10.880  12.706  22.987  0.00  0.00    -0.084 Cl
ATOM     17  C   UNL     1      11.646   8.649  21.226  0.00  0.00    +0.105 A 
ATOM     19  C   UNL     1      12.061   9.774  20.537  0.00  0.00    +0.030 A 
ATOM     20  C   UNL     1      11.001   8.745  22.447  0.00  0.00    +0.030 A 
ATOM     22  C   UNL     1      11.823  11.036  21.084  0.00  0.00    +0.022 A 
ATOM     23  C   UNL     1      10.763  10.005  22.994  0.00  0.00    +0.022 A 
ATOM     25  C   UNL     1      11.174  11.150  22.313  0.00  0.00    +0.041 A 
ENDBRANCH   2  17
ENDBRANCH   9   2
ENDBRANCH  13   9
BRANCH  14   5
ATOM      5  O   UNL     1      18.943   7.792  21.011  0.00  0.00    -0.442 OA
BRANCH   5  18
ATOM      8  O   UNL     1      21.217   7.971  20.848  0.00  0.00    -0.226 OA
ATOM     10  N   UNL     1      20.203   6.606  22.456  0.00  0.00    -0.251 N 
ATOM     18  C   UNL     1      20.233   7.492  21.398  0.00  0.00    +0.405 C 
ATOM     35  H   UNL     1      19.270   6.341  22.752  0.00  0.00    +0.158 HD
BRANCH  10  21
ATOM     21  C   UNL     1      21.298   6.043  23.152  0.00  0.00    +0.044 A 
ATOM     24  C   UNL     1      21.948   4.900  22.680  0.00  0.00    +0.003 A 
ATOM     26  C   UNL     1      21.695   6.677  24.322  0.00  0.00    +0.024 A 
ATOM     27  C   UNL     1      23.038   4.382  23.419  0.00  0.00    -0.016 A 
ATOM     28  C   UNL     1      21.553   4.255  21.496  0.00  0.00    +0.010 A 
ATOM     29  C   UNL     1      22.767   6.167  25.049  0.00  0.00    +0.002 A 
ATOM     30  C   UNL     1      23.435   5.026  24.602  0.00  0.00    +0.008 A 
ATOM     31  C   UNL     1      23.700   3.233  22.954  0.00  0.00    +0.008 A 
ATOM     32  C   UNL     1      22.220   3.115  21.050  0.00  0.00    +0.001 A 
ATOM     33  C   UNL     1      23.292   2.605  21.777  0.00  0.00    +0.001 A 
ENDBRANCH  10  21
ENDBRANCH   5  18
ENDBRANCH  14   5
TORSDOF 6
ENDMDL
MODEL 3
REMARK VINA RESULT:      -7.7     28.303     30.533
REMARK  Name = 11884011
REMARK  6 active torsions:
REMARK  status: ('A' for Active; 'I' for Inactive)
REMARK    1  A    between atoms: S_2  and  N_9
REMARK    2  A    between atoms: S_2  and  C_17
REMARK    3  A    between atoms: O_5  and  C_14
REMARK    4  A    between atoms: O_5  and  C_18
REMARK    5  A    between atoms: N_9  and  C_13
REMARK    6  A    between atoms: N_10  and  C_21
REMARK                            x       y       z     vdW  Elec       q    Type
REMARK                         _______ _______ _______ _____ _____    ______ ____
ROOT
ATOM      3  O   UNL     1      -6.620 -11.794  17.000  0.00  0.00    -0.369 OA
ATOM      4  O   UNL     1      -5.543 -11.445  19.860  0.00  0.00    -0.368 OA
ATOM     11  C   UNL     1      -6.367 -10.596  19.032  0.00  0.00    +0.171 C 
ATOM     12  C   UNL     1      -5.857 -10.740  17.612  0.00  0.00    +0.191 C 
ATOM     13  C   UNL     1      -7.771 -11.143  18.974  0.00  0.00    +0.133 C 
ATOM     14  C   UNL     1      -4.416 -11.139  17.818  0.00  0.00    +0.235 C 
ATOM     15  C   UNL     1      -7.679 -12.193  17.883  0.00  0.00    +0.183 C 
ATOM     16  C   UNL     1      -4.500 -12.008  19.052  0.00  0.00    +0.207 C 
ENDROOT
BRANCH  13   9
ATOM      9  N   UNL     1      -8.714 -10.075  18.563  0.00  0.00    -0.182 NA
ATOM     34  H   UNL     1      -8.323  -9.148  18.356  0.00  0.00    +0.148 HD
BRANCH   9   2
ATOM      2  S   UNL     1     -10.379 -10.272  18.824  0.00  0.00    +0.059 S 
ATOM      6  O   UNL     1     -10.699  -9.917  20.194  0.00  0.00    -0.153 OA
ATOM      7  O   UNL     1     -10.786 -11.557  18.289  0.00  0.00    -0.153 OA
BRANCH   2  17
ATOM      1 CL   UNL     1     -12.801  -5.881  15.082  0.00  0.00    -0.084 Cl
ATOM     17  C   UNL     1     -11.064  -9.032  17.766  0.00  0.00    +0.105 A 
ATOM     19  C   UNL     1     -12.393  -9.120  17.393  0.00  0.00    +0.030 A 
ATOM     20  C   UNL     1     -10.257  -7.995  17.330  0.00  0.00    +0.030 A 
ATOM     22  C   UNL     1     -12.934  -8.140  16.559  0.00  0.00    +0.022 A 
ATOM     23  C   UNL     1     -10.796  -7.016  16.497  0.00  0.00    +0.022 A 
ATOM     25  C   UNL     1     -12.135  -7.089  16.111  0.00  0.00    +0.041 A 
ENDBRANCH   2  17
ENDBRANCH   9   2
ENDBRANCH  13   9
BRANCH  14   5
ATOM      5  O   UNL     1      -3.860 -11.828  16.720  0.00  0.00    -0.442 OA
BRANCH   5  18
ATOM      8  O   UNL     1      -2.322 -10.294  16.006  0.00  0.00    -0.226 OA
ATOM     10  N   UNL     1      -3.816 -11.319  14.524  0.00  0.00    -0.251 N 
ATOM     18  C   UNL     1      -3.241 -11.064  15.753  0.00  0.00    +0.405 C 
ATOM     35  H   UNL     1      -4.567 -11.998  14.549  0.00  0.00    +0.158 HD
BRANCH  10  21
ATOM     21  C   UNL     1      -3.484 -10.751  13.272  0.00  0.00    +0.044 A 
ATOM     24  C   UNL     1      -4.446 -10.114  12.485  0.00  0.00    +0.003 A 
ATOM     26  C   UNL     1      -2.161 -10.857  12.863  0.00  0.00    +0.024 A 
ATOM     27  C   UNL     1      -4.054  -9.565  11.241  0.00  0.00    -0.016 A 
ATOM     28  C   UNL     1      -5.786 -10.002  12.893  0.00  0.00    +0.010 A 
ATOM     29  C   UNL     1      -1.776 -10.317  11.639  0.00  0.00    +0.002 A 
ATOM     30  C   UNL     1      -2.716  -9.675  10.832  0.00  0.00    +0.008 A 
ATOM     31  C   UNL     1      -5.014  -8.922  10.441  0.00  0.00    +0.008 A 
ATOM     32  C   UNL     1      -6.725  -9.361  12.086  0.00  0.00    +0.001 A 
ATOM     33  C   UNL     1      -6.340  -8.821  10.862  0.00  0.00    +0.001 A 
ENDBRANCH  10  21
ENDBRANCH   5  18
ENDBRANCH  14   5
TORSDOF 6
ENDMDL
MODEL 4
REMARK VINA RESULT:      -7.7     28.138     31.841
REMARK  Name = 11884011
REMARK  6 active torsions:
REMARK  status: ('A' for Active; 'I' for Inactive)
REMARK    1  A    between atoms: S_2  and  N_9
REMARK    2  A    between atoms: S_2  and  C_17
REMARK    3  A    between atoms: O_5  and  C_14
REMARK    4  A    between atoms: O_5  and  C_18
REMARK    5  A    between atoms: N_9  and  C_13
REMARK    6  A    between atoms: N_10  and  C_21
REMARK                            x       y       z     vdW  Elec       q    Type
REMARK                         _______ _______ _______ _____ _____    ______ ____
ROOT
ATOM      3  O   UNL     1      -5.614 -10.112  16.810  0.00  0.00    -0.369 OA
ATOM      4  O   UNL     1      -4.646 -12.006  19.032  0.00  0.00    -0.368 OA
ATOM     11  C   UNL     1      -4.843 -12.206  17.617  0.00  0.00    +0.171 C 
ATOM     12  C   UNL     1      -6.072 -11.409  17.228  0.00  0.00    +0.191 C 
ATOM     13  C   UNL     1      -3.724 -11.553  16.844  0.00  0.00    +0.133 C 
ATOM     14  C   UNL     1      -6.843 -11.340  18.524  0.00  0.00    +0.235 C 
ATOM     15  C   UNL     1      -4.179 -10.109  16.749  0.00  0.00    +0.183 C 
ATOM     16  C   UNL     1      -5.736 -11.229  19.547  0.00  0.00    +0.207 C 
ENDROOT
BRANCH  13   9
ATOM      9  N   UNL     1      -3.635 -12.141  15.486  0.00  0.00    -0.182 NA
ATOM     34  H   UNL     1      -4.336 -12.844  15.225  0.00  0.00    +0.148 HD
BRANCH   9   2
ATOM      2  S   UNL     1      -2.211 -11.962  14.581  0.00  0.00    +0.059 S 
ATOM      6  O   UNL     1      -1.766 -13.263  14.117  0.00  0.00    -0.153 OA
ATOM      7  O   UNL     1      -1.302 -11.096  15.306  0.00  0.00    -0.153 OA
BRANCH   2  17
ATOM      1 CL   UNL     1      -4.234  -8.736   9.616  0.00  0.00    -0.084 Cl
ATOM     17  C   UNL     1      -2.783 -11.051  13.178  0.00  0.00    +0.105 A 
ATOM     19  C   UNL     1      -4.134 -10.779  13.053  0.00  0.00    +0.030 A 
ATOM     20  C   UNL     1      -1.868 -10.627  12.229  0.00  0.00    +0.030 A 
ATOM     22  C   UNL     1      -4.585 -10.059  11.946  0.00  0.00    +0.022 A 
ATOM     23  C   UNL     1      -2.318  -9.907  11.123  0.00  0.00    +0.022 A 
ATOM     25  C   UNL     1      -3.677  -9.623  10.981  0.00  0.00    +0.041 A 
ENDBRANCH   2  17
ENDBRANCH   9   2
ENDBRANCH  13   9
BRANCH  14   5
ATOM      5  O   UNL     1      -7.738 -10.252  18.588  0.00  0.00    -0.442 OA
BRANCH   5  18
ATOM      8  O   UNL     1      -9.268 -11.429  17.362  0.00  0.00    -0.226 OA
ATOM     10  N   UNL     1      -9.752  -9.306  18.222  0.00  0.00    -0.251 N 
ATOM     18  C   UNL     1      -8.970 -10.420  17.990  0.00  0.00    +0.405 C 
ATOM     35  H   UNL     1      -9.298  -8.586  18.772  0.00  0.00    +0.158 HD
BRANCH  10  21
ATOM     21  C   UNL     1     -11.077  -9.067  17.789  0.00  0.00    +0.044 A 
ATOM     24  C   UNL     1     -11.376  -8.022  16.911  0.00  0.00    +0.003 A 
ATOM     26  C   UNL     1     -12.062  -9.916  18.276  0.00  0.00    +0.024 A 
ATOM     27  C   UNL     1     -12.720  -7.831  16.512  0.00  0.00    -0.016 A 
ATOM     28  C   UNL     1     -10.383  -7.161  16.414  0.00  0.00    +0.010 A 
ATOM     29  C   UNL     1     -13.384  -9.727  17.884  0.00  0.00    +0.002 A 
ATOM     30  C   UNL     1     -13.713  -8.691  17.008  0.00  0.00    +0.008 A 
ATOM     31  C   UNL     1     -13.033  -6.783  15.630  0.00  0.00    +0.008 A 
ATOM     32  C   UNL     1     -10.712  -6.126  15.540  0.00  0.00    +0.001 A 
ATOM     33  C   UNL     1     -12.034  -5.937  15.148  0.00  0.00    +0.001 A 
ENDBRANCH  10  21
ENDBRANCH   5  18
ENDBRANCH  14   5
TORSDOF 6
ENDMDL
MODEL 5
REMARK VINA RESULT:      -7.6     30.436     33.565
REMARK  Name = 11884011
REMARK  6 active torsions:
REMARK  status: ('A' for Active; 'I' for Inactive)
REMARK    1  A    between atoms: S_2  and  N_9
REMARK    2  A    between atoms: S_2  and  C_17
REMARK    3  A    between atoms: O_5  and  C_14
REMARK    4  A    between atoms: O_5  and  C_18
REMARK    5  A    between atoms: N_9  and  C_13
REMARK    6  A    between atoms: N_10  and  C_21
REMARK                            x       y       z     vdW  Elec       q    Type
REMARK                         _______ _______ _______ _____ _____    ______ ____
ROOT
ATOM      3  O   UNL     1     -16.938   4.837  25.589  0.00  0.00    -0.369 OA
ATOM      4  O   UNL     1     -16.642   1.933  24.621  0.00  0.00    -0.368 OA
ATOM     11  C   UNL     1     -15.814   2.751  25.473  0.00  0.00    +0.171 C 
ATOM     12  C   UNL     1     -15.865   4.160  24.914  0.00  0.00    +0.191 C 
ATOM     13  C   UNL     1     -16.444   2.876  26.837  0.00  0.00    +0.133 C 
ATOM     14  C   UNL     1     -16.181   3.924  23.457  0.00  0.00    +0.235 C 
ATOM     15  C   UNL     1     -17.440   4.005  26.646  0.00  0.00    +0.183 C 
ATOM     16  C   UNL     1     -17.105   2.729  23.520  0.00  0.00    +0.207 C 
ENDROOT
BRANCH  13   9
ATOM      9  N   UNL     1     -15.421   3.274  27.834  0.00  0.00    -0.182 NA
ATOM     34  H   UNL     1     -14.590   3.768  27.492  0.00  0.00    +0.148 HD
BRANCH   9   2
ATOM      2  S   UNL     1     -15.439   2.581  29.383  0.00  0.00    +0.059 S 
ATOM      6  O   UNL     1     -14.235   1.794  29.575  0.00  0.00    -0.153 OA
ATOM      7  O   UNL     1     -16.742   1.989  29.615  0.00  0.00    -0.153 OA
BRANCH   2  17
ATOM      1 CL   UNL     1     -15.043   7.628  33.060  0.00  0.00    -0.084 Cl
ATOM     17  C   UNL     1     -15.328   4.008  30.422  0.00  0.00    +0.105 A 
ATOM     19  C   UNL     1     -16.133   5.101  30.158  0.00  0.00    +0.030 A 
ATOM     20  C   UNL     1     -14.435   4.005  31.480  0.00  0.00    +0.030 A 
ATOM     22  C   UNL     1     -16.045   6.227  30.978  0.00  0.00    +0.022 A 
ATOM     23  C   UNL     1     -14.347   5.129  32.300  0.00  0.00    +0.022 A 
ATOM     25  C   UNL     1     -15.152   6.240  32.049  0.00  0.00    +0.041 A 
ENDBRANCH   2  17
ENDBRANCH   9   2
ENDBRANCH  13   9
BRANCH  14   5
ATOM      5  O   UNL     1     -16.786   5.031  22.827  0.00  0.00    -0.442 OA
BRANCH   5  18
ATOM      8  O   UNL     1     -16.645   4.483  20.611  0.00  0.00    -0.226 OA
ATOM     10  N   UNL     1     -15.816   6.513  21.431  0.00  0.00    -0.251 N 
ATOM     18  C   UNL     1     -16.427   5.278  21.517  0.00  0.00    +0.405 C 
ATOM     35  H   UNL     1     -15.741   7.003  22.314  0.00  0.00    +0.158 HD
BRANCH  10  21
ATOM     21  C   UNL     1     -15.298   7.149  20.279  0.00  0.00    +0.044 A 
ATOM     24  C   UNL     1     -13.922   7.315  20.098  0.00  0.00    +0.003 A 
ATOM     26  C   UNL     1     -16.217   7.599  19.340  0.00  0.00    +0.024 A 
ATOM     27  C   UNL     1     -13.462   7.960  18.926  0.00  0.00    -0.016 A 
ATOM     28  C   UNL     1     -12.988   6.861  21.044  0.00  0.00    +0.010 A 
ATOM     29  C   UNL     1     -15.764   8.233  18.186  0.00  0.00    +0.002 A 
ATOM     30  C   UNL     1     -14.395   8.414  17.980  0.00  0.00    +0.008 A 
ATOM     31  C   UNL     1     -12.081   8.133  18.733  0.00  0.00    +0.008 A 
ATOM     32  C   UNL     1     -11.621   7.043  20.838  0.00  0.00    +0.001 A 
ATOM     33  C   UNL     1     -11.168   7.677  19.684  0.00  0.00    +0.001 A 
ENDBRANCH  10  21
ENDBRANCH   5  18
ENDBRANCH  14   5
TORSDOF 6
ENDMDL
MODEL 6
REMARK VINA RESULT:      -7.5     29.387     33.419
REMARK  Name = 11884011
REMARK  6 active torsions:
REMARK  status: ('A' for Active; 'I' for Inactive)
REMARK    1  A    between atoms: S_2  and  N_9
REMARK    2  A    between atoms: S_2  and  C_17
REMARK    3  A    between atoms: O_5  and  C_14
REMARK    4  A    between atoms: O_5  and  C_18
REMARK    5  A    between atoms: N_9  and  C_13
REMARK    6  A    between atoms: N_10  and  C_21
REMARK                            x       y       z     vdW  Elec       q    Type
REMARK                         _______ _______ _______ _____ _____    ______ ____
ROOT
ATOM      3  O   UNL     1     -11.457  -7.943  17.257  0.00  0.00    -0.369 OA
ATOM      4  O   UNL     1     -10.432  -8.832  14.497  0.00  0.00    -0.368 OA
ATOM     11  C   UNL     1      -9.738  -8.468  15.709  0.00  0.00    +0.171 C 
ATOM     12  C   UNL     1     -10.526  -7.339  16.344  0.00  0.00    +0.191 C 
ATOM     13  C   UNL     1      -9.833  -9.590  16.713  0.00  0.00    +0.133 C 
ATOM     14  C   UNL     1     -11.227  -6.720  15.159  0.00  0.00    +0.235 C 
ATOM     15  C   UNL     1     -11.183  -9.349  17.361  0.00  0.00    +0.183 C 
ATOM     16  C   UNL     1     -11.527  -7.927  14.300  0.00  0.00    +0.207 C 
ENDROOT
BRANCH  13   9
ATOM      9  N   UNL     1      -8.759  -9.455  17.726  0.00  0.00    -0.182 NA
ATOM     34  H   UNL     1      -8.283  -8.549  17.798  0.00  0.00    +0.148 HD
BRANCH   9   2
ATOM      2  S   UNL     1      -8.086 -10.843  18.433  0.00  0.00    +0.059 S 
ATOM      6  O   UNL     1      -8.735 -12.024  17.892  0.00  0.00    -0.153 OA
ATOM      7  O   UNL     1      -8.009 -10.646  19.867  0.00  0.00    -0.153 OA
BRANCH   2  17
ATOM      1 CL   UNL     1      -2.226 -10.694  16.246  0.00  0.00    -0.084 Cl
ATOM     17  C   UNL     1      -6.430 -10.801  17.816  0.00  0.00    +0.105 A 
ATOM     19  C   UNL     1      -5.412 -11.353  18.573  0.00  0.00    +0.030 A 
ATOM     20  C   UNL     1      -6.182 -10.216  16.586  0.00  0.00    +0.030 A 
ATOM     22  C   UNL     1      -4.105 -11.320  18.085  0.00  0.00    +0.022 A 
ATOM     23  C   UNL     1      -4.877 -10.183  16.098  0.00  0.00    +0.022 A 
ATOM     25  C   UNL     1      -3.838 -10.735  16.847  0.00  0.00    +0.041 A 
ENDBRANCH   2  17
ENDBRANCH   9   2
ENDBRANCH  13   9
BRANCH  14   5
ATOM      5  O   UNL     1     -12.394  -6.009  15.505  0.00  0.00    -0.442 OA
BRANCH   5  18
ATOM      8  O   UNL     1     -14.304  -6.421  14.317  0.00  0.00    -0.226 OA
ATOM     10  N   UNL     1     -12.861  -4.666  13.754  0.00  0.00    -0.251 N 
ATOM     18  C   UNL     1     -13.293  -5.752  14.489  0.00  0.00    +0.405 C 
ATOM     35  H   UNL     1     -11.990  -4.263  14.079  0.00  0.00    +0.158 HD
BRANCH  10  21
ATOM     21  C   UNL     1     -13.482  -4.073  12.631  0.00  0.00    +0.044 A 
ATOM     24  C   UNL     1     -12.985  -4.267  11.340  0.00  0.00    +0.003 A 
ATOM     26  C   UNL     1     -14.604  -3.290  12.871  0.00  0.00    +0.024 A 
ATOM     27  C   UNL     1     -13.648  -3.647  10.254  0.00  0.00    -0.016 A 
ATOM     28  C   UNL     1     -11.852  -5.058  11.090  0.00  0.00    +0.010 A 
ATOM     29  C   UNL     1     -15.256  -2.680  11.803  0.00  0.00    +0.002 A 
ATOM     30  C   UNL     1     -14.782  -2.856  10.502  0.00  0.00    +0.008 A 
ATOM     31  C   UNL     1     -13.158  -3.835   8.951  0.00  0.00    +0.008 A 
ATOM     32  C   UNL     1     -11.378  -5.233   9.791  0.00  0.00    +0.001 A 
ATOM     33  C   UNL     1     -12.030  -4.624   8.723  0.00  0.00    +0.001 A 
ENDBRANCH  10  21
ENDBRANCH   5  18
ENDBRANCH  14   5
TORSDOF 6
ENDMDL
MODEL 7
REMARK VINA RESULT:      -7.4     28.126     32.274
REMARK  Name = 11884011
REMARK  6 active torsions:
REMARK  status: ('A' for Active; 'I' for Inactive)
REMARK    1  A    between atoms: S_2  and  N_9
REMARK    2  A    between atoms: S_2  and  C_17
REMARK    3  A    between atoms: O_5  and  C_14
REMARK    4  A    between atoms: O_5  and  C_18
REMARK    5  A    between atoms: N_9  and  C_13
REMARK    6  A    between atoms: N_10  and  C_21
REMARK                            x       y       z     vdW  Elec       q    Type
REMARK                         _______ _______ _______ _____ _____    ______ ____
ROOT
ATOM      3  O   UNL     1      -5.798 -10.181  17.042  0.00  0.00    -0.369 OA
ATOM      4  O   UNL     1      -4.366 -12.031  19.039  0.00  0.00    -0.368 OA
ATOM     11  C   UNL     1      -4.712 -12.202  17.648  0.00  0.00    +0.171 C 
ATOM     12  C   UNL     1      -6.059 -11.536  17.446  0.00  0.00    +0.191 C 
ATOM     13  C   UNL     1      -3.773 -11.398  16.783  0.00  0.00    +0.133 C 
ATOM     14  C   UNL     1      -6.669 -11.601  18.825  0.00  0.00    +0.235 C 
ATOM     15  C   UNL     1      -4.391 -10.013  16.813  0.00  0.00    +0.183 C 
ATOM     16  C   UNL     1      -5.464 -11.402  19.716  0.00  0.00    +0.207 C 
ENDROOT
BRANCH  13   9
ATOM      9  N   UNL     1      -3.788 -11.923  15.397  0.00  0.00    -0.182 NA
ATOM     34  H   UNL     1      -4.602 -12.476  15.105  0.00  0.00    +0.148 HD
BRANCH   9   2
ATOM      2  S   UNL     1      -2.353 -11.954  14.491  0.00  0.00    +0.059 S 
ATOM      6  O   UNL     1      -2.059 -13.319  14.097  0.00  0.00    -0.153 OA
ATOM      7  O   UNL     1      -1.351 -11.161  15.176  0.00  0.00    -0.153 OA
BRANCH   2  17
ATOM      1 CL   UNL     1      -3.999  -8.779   9.357  0.00  0.00    -0.084 Cl
ATOM     17  C   UNL     1      -2.818 -11.056  13.040  0.00  0.00    +0.105 A 
ATOM     19  C   UNL     1      -1.831 -10.543  12.217  0.00  0.00    +0.030 A 
ATOM     20  C   UNL     1      -4.161 -10.883  12.755  0.00  0.00    +0.030 A 
ATOM     22  C   UNL     1      -2.198  -9.835  11.072  0.00  0.00    +0.022 A 
ATOM     23  C   UNL     1      -4.529 -10.176  11.611  0.00  0.00    +0.022 A 
ATOM     25  C   UNL     1      -3.547  -9.652  10.769  0.00  0.00    +0.041 A 
ENDBRANCH   2  17
ENDBRANCH   9   2
ENDBRANCH  13   9
BRANCH  14   5
ATOM      5  O   UNL     1      -7.662 -10.625  19.048  0.00  0.00    -0.442 OA
BRANCH   5  18
ATOM      8  O   UNL     1      -9.275 -11.988  18.174  0.00  0.00    -0.226 OA
ATOM     10  N   UNL     1      -9.620  -9.688  18.438  0.00  0.00    -0.251 N 
ATOM     18  C   UNL     1      -8.909 -10.870  18.512  0.00  0.00    +0.405 C 
ATOM     35  H   UNL     1      -9.116  -8.878  18.778  0.00  0.00    +0.158 HD
BRANCH  10  21
ATOM     21  C   UNL     1     -10.933  -9.491  17.953  0.00  0.00    +0.044 A 
ATOM     24  C   UNL     1     -12.045  -9.631  18.788  0.00  0.00    +0.003 A 
ATOM     26  C   UNL     1     -11.066  -9.154  16.613  0.00  0.00    +0.024 A 
ATOM     27  C   UNL     1     -13.335  -9.422  18.246  0.00  0.00    -0.016 A 
ATOM     28  C   UNL     1     -11.917  -9.971  20.145  0.00  0.00    +0.010 A 
ATOM     29  C   UNL     1     -12.336  -8.948  16.080  0.00  0.00    +0.002 A 
ATOM     30  C   UNL     1     -13.464  -9.081  16.890  0.00  0.00    +0.008 A 
ATOM     31  C   UNL     1     -14.460  -9.559  19.077  0.00  0.00    +0.008 A 
ATOM     32  C   UNL     1     -13.044 -10.105  20.955  0.00  0.00    +0.001 A 
ATOM     33  C   UNL     1     -14.314  -9.899  20.422  0.00  0.00    +0.001 A 
ENDBRANCH  10  21
ENDBRANCH   5  18
ENDBRANCH  14   5
TORSDOF 6
ENDMDL
MODEL 8
REMARK VINA RESULT:      -7.4     29.083     32.313
REMARK  Name = 11884011
REMARK  6 active torsions:
REMARK  status: ('A' for Active; 'I' for Inactive)
REMARK    1  A    between atoms: S_2  and  N_9
REMARK    2  A    between atoms: S_2  and  C_17
REMARK    3  A    between atoms: O_5  and  C_14
REMARK    4  A    between atoms: O_5  and  C_18
REMARK    5  A    between atoms: N_9  and  C_13
REMARK    6  A    between atoms: N_10  and  C_21
REMARK                            x       y       z     vdW  Elec       q    Type
REMARK                         _______ _______ _______ _____ _____    ______ ____
ROOT
ATOM      3  O   UNL     1     -15.535   6.420  23.743  0.00  0.00    -0.369 OA
ATOM      4  O   UNL     1     -16.423   4.338  21.662  0.00  0.00    -0.368 OA
ATOM     11  C   UNL     1     -15.767   4.200  22.940  0.00  0.00    +0.171 C 
ATOM     12  C   UNL     1     -14.815   5.373  23.072  0.00  0.00    +0.191 C 
ATOM     13  C   UNL     1     -16.761   4.409  24.054  0.00  0.00    +0.133 C 
ATOM     14  C   UNL     1     -14.525   5.725  21.634  0.00  0.00    +0.235 C 
ATOM     15  C   UNL     1     -16.804   5.919  24.189  0.00  0.00    +0.183 C 
ATOM     16  C   UNL     1     -15.853   5.455  20.965  0.00  0.00    +0.207 C 
ENDROOT
BRANCH  13   9
ATOM      9  N   UNL     1     -16.249   3.808  25.309  0.00  0.00    -0.182 NA
ATOM     34  H   UNL     1     -15.330   4.119  25.646  0.00  0.00    +0.148 HD
BRANCH   9   2
ATOM      2  S   UNL     1     -16.960   2.393  25.920  0.00  0.00    +0.059 S 
ATOM      6  O   UNL     1     -16.456   1.245  25.188  0.00  0.00    -0.153 OA
ATOM      7  O   UNL     1     -18.388   2.607  26.049  0.00  0.00    -0.153 OA
BRANCH   2  17
ATOM      1 CL   UNL     1     -14.613   2.165  31.715  0.00  0.00    -0.084 Cl
ATOM     17  C   UNL     1     -16.297   2.328  27.557  0.00  0.00    +0.105 A 
ATOM     19  C   UNL     1     -16.231   1.112  28.213  0.00  0.00    +0.030 A 
ATOM     20  C   UNL     1     -15.856   3.497  28.154  0.00  0.00    +0.030 A 
ATOM     22  C   UNL     1     -15.708   1.061  29.505  0.00  0.00    +0.022 A 
ATOM     23  C   UNL     1     -15.332   3.447  29.446  0.00  0.00    +0.022 A 
ATOM     25  C   UNL     1     -15.258   2.229  30.121  0.00  0.00    +0.041 A 
ENDBRANCH   2  17
ENDBRANCH   9   2
ENDBRANCH  13   9
BRANCH  14   5
ATOM      5  O   UNL     1     -14.103   7.059  21.456  0.00  0.00    -0.442 OA
BRANCH   5  18
ATOM      8  O   UNL     1     -11.856   6.709  21.213  0.00  0.00    -0.226 OA
ATOM     10  N   UNL     1     -13.045   8.114  19.767  0.00  0.00    -0.251 N 
ATOM     18  C   UNL     1     -12.886   7.251  20.833  0.00  0.00    +0.405 C 
ATOM     35  H   UNL     1     -13.994   8.443  19.635  0.00  0.00    +0.158 HD
BRANCH  10  21
ATOM     21  C   UNL     1     -12.057   8.576  18.866  0.00  0.00    +0.044 A 
ATOM     24  C   UNL     1     -11.723   9.930  18.787  0.00  0.00    +0.003 A 
ATOM     26  C   UNL     1     -11.438   7.623  18.067  0.00  0.00    +0.024 A 
ATOM     27  C   UNL     1     -10.726  10.333  17.866  0.00  0.00    -0.016 A 
ATOM     28  C   UNL     1     -12.345  10.897  19.593  0.00  0.00    +0.010 A 
ATOM     29  C   UNL     1     -10.458   8.020  17.162  0.00  0.00    +0.002 A 
ATOM     30  C   UNL     1     -10.104   9.367  17.061  0.00  0.00    +0.008 A 
ATOM     31  C   UNL     1     -10.382  11.692  17.778  0.00  0.00    +0.008 A 
ATOM     32  C   UNL     1     -11.991  12.243  19.491  0.00  0.00    +0.001 A 
ATOM     33  C   UNL     1     -11.011  12.639  18.586  0.00  0.00    +0.001 A 
ENDBRANCH  10  21
ENDBRANCH   5  18
ENDBRANCH  14   5
TORSDOF 6
ENDMDL
MODEL 9
REMARK VINA RESULT:      -7.3     31.277     34.122
REMARK  Name = 11884011
REMARK  6 active torsions:
REMARK  status: ('A' for Active; 'I' for Inactive)
REMARK    1  A    between atoms: S_2  and  N_9
REMARK    2  A    between atoms: S_2  and  C_17
REMARK    3  A    between atoms: O_5  and  C_14
REMARK    4  A    between atoms: O_5  and  C_18
REMARK    5  A    between atoms: N_9  and  C_13
REMARK    6  A    between atoms: N_10  and  C_21
REMARK                            x       y       z     vdW  Elec       q    Type
REMARK                         _______ _______ _______ _____ _____    ______ ____
ROOT
ATOM      3  O   UNL     1     -16.538   3.865  26.791  0.00  0.00    -0.369 OA
ATOM      4  O   UNL     1     -18.072   1.215  26.505  0.00  0.00    -0.368 OA
ATOM     11  C   UNL     1     -16.687   1.497  26.797  0.00  0.00    +0.171 C 
ATOM     12  C   UNL     1     -16.302   2.709  25.971  0.00  0.00    +0.191 C 
ATOM     13  C   UNL     1     -16.548   1.968  28.223  0.00  0.00    +0.133 C 
ATOM     14  C   UNL     1     -17.269   2.638  24.814  0.00  0.00    +0.235 C 
ATOM     15  C   UNL     1     -16.874   3.446  28.123  0.00  0.00    +0.183 C 
ATOM     16  C   UNL     1     -18.520   2.107  25.475  0.00  0.00    +0.207 C 
ENDROOT
BRANCH  13   9
ATOM      9  N   UNL     1     -15.148   1.794  28.680  0.00  0.00    -0.182 NA
ATOM     34  H   UNL     1     -14.401   2.143  28.069  0.00  0.00    +0.148 HD
BRANCH   9   2
ATOM      2  S   UNL     1     -14.800   0.713  29.941  0.00  0.00    +0.059 S 
ATOM      6  O   UNL     1     -13.510   0.092  29.703  0.00  0.00    -0.153 OA
ATOM      7  O   UNL     1     -15.969  -0.108  30.188  0.00  0.00    -0.153 OA
BRANCH   2  17
ATOM      1 CL   UNL     1     -14.207   4.574  34.828  0.00  0.00    -0.084 Cl
ATOM     17  C   UNL     1     -14.633   1.804  31.322  0.00  0.00    +0.105 A 
ATOM     19  C   UNL     1     -14.870   1.322  32.597  0.00  0.00    +0.030 A 
ATOM     20  C   UNL     1     -14.268   3.121  31.102  0.00  0.00    +0.030 A 
ATOM     22  C   UNL     1     -14.738   2.183  33.687  0.00  0.00    +0.022 A 
ATOM     23  C   UNL     1     -14.135   3.982  32.191  0.00  0.00    +0.022 A 
ATOM     25  C   UNL     1     -14.370   3.512  33.483  0.00  0.00    +0.041 A 
ENDBRANCH   2  17
ENDBRANCH   9   2
ENDBRANCH  13   9
BRANCH  14   5
ATOM      5  O   UNL     1     -17.486   3.881  24.185  0.00  0.00    -0.442 OA
BRANCH   5  18
ATOM      8  O   UNL     1     -16.880   3.680  21.990  0.00  0.00    -0.226 OA
ATOM     10  N   UNL     1     -15.720   5.082  23.462  0.00  0.00    -0.251 N 
ATOM     18  C   UNL     1     -16.695   4.176  23.094  0.00  0.00    +0.405 C 
ATOM     35  H   UNL     1     -15.756   5.360  24.436  0.00  0.00    +0.158 HD
BRANCH  10  21
ATOM     21  C   UNL     1     -14.706   5.646  22.654  0.00  0.00    +0.044 A 
ATOM     24  C   UNL     1     -14.927   6.814  21.921  0.00  0.00    +0.003 A 
ATOM     26  C   UNL     1     -13.484   4.986  22.623  0.00  0.00    +0.024 A 
ATOM     27  C   UNL     1     -13.874   7.332  21.129  0.00  0.00    -0.016 A 
ATOM     28  C   UNL     1     -16.160   7.487  21.949  0.00  0.00    +0.010 A 
ATOM     29  C   UNL     1     -12.449   5.495  21.844  0.00  0.00    +0.002 A 
ATOM     30  C   UNL     1     -12.642   6.661  21.101  0.00  0.00    +0.008 A 
ATOM     31  C   UNL     1     -14.086   8.507  20.388  0.00  0.00    +0.008 A 
ATOM     32  C   UNL     1     -16.352   8.652  21.206  0.00  0.00    +0.001 A 
ATOM     33  C   UNL     1     -15.317   9.161  20.428  0.00  0.00    +0.001 A 
ENDBRANCH  10  21
ENDBRANCH   5  18
ENDBRANCH  14   5
TORSDOF 6
ENDMDL
MODEL 10
REMARK VINA RESULT:      -7.0     29.706     32.378
REMARK  Name = 11884011
REMARK  6 active torsions:
REMARK  status: ('A' for Active; 'I' for Inactive)
REMARK    1  A    between atoms: S_2  and  N_9
REMARK    2  A    between atoms: S_2  and  C_17
REMARK    3  A    between atoms: O_5  and  C_14
REMARK    4  A    between atoms: O_5  and  C_18
REMARK    5  A    between atoms: N_9  and  C_13
REMARK    6  A    between atoms: N_10  and  C_21
REMARK                            x       y       z     vdW  Elec       q    Type
REMARK                         _______ _______ _______ _____ _____    ______ ____
ROOT
ATOM      3  O   UNL     1     -11.769  -8.036  14.606  0.00  0.00    -0.369 OA
ATOM      4  O   UNL     1     -14.120  -7.965  16.588  0.00  0.00    -0.368 OA
ATOM     11  C   UNL     1     -13.318  -6.914  16.009  0.00  0.00    +0.171 C 
ATOM     12  C   UNL     1     -11.902  -7.446  15.910  0.00  0.00    +0.191 C 
ATOM     13  C   UNL     1     -13.726  -6.687  14.575  0.00  0.00    +0.133 C 
ATOM     14  C   UNL     1     -11.864  -8.487  17.001  0.00  0.00    +0.235 C 
ATOM     15  C   UNL     1     -12.944  -7.753  13.831  0.00  0.00    +0.183 C 
ATOM     16  C   UNL     1     -13.262  -9.059  16.946  0.00  0.00    +0.207 C 
ENDROOT
BRANCH  13   9
ATOM      9  N   UNL     1     -13.287  -5.342  14.130  0.00  0.00    -0.182 NA
ATOM     34  H   UNL     1     -12.677  -4.808  14.760  0.00  0.00    +0.148 HD
BRANCH   9   2
ATOM      2  S   UNL     1     -14.088  -4.575  12.846  0.00  0.00    +0.059 S 
ATOM      6  O   UNL     1     -14.250  -3.165  13.150  0.00  0.00    -0.153 OA
ATOM      7  O   UNL     1     -15.236  -5.376  12.466  0.00  0.00    -0.153 OA
BRANCH   2  17
ATOM      1 CL   UNL     1      -9.899  -5.077   8.225  0.00  0.00    -0.084 Cl
ATOM     17  C   UNL     1     -12.904  -4.717  11.540  0.00  0.00    +0.105 A 
ATOM     19  C   UNL     1     -12.622  -5.967  11.017  0.00  0.00    +0.030 A 
ATOM     20  C   UNL     1     -12.281  -3.576  11.066  0.00  0.00    +0.030 A 
ATOM     22  C   UNL     1     -11.688  -6.079   9.986  0.00  0.00    +0.022 A 
ATOM     23  C   UNL     1     -11.348  -3.687  10.036  0.00  0.00    +0.022 A 
ATOM     25  C   UNL     1     -11.051  -4.939   9.496  0.00  0.00    +0.041 A 
ENDBRANCH   2  17
ENDBRANCH   9   2
ENDBRANCH  13   9
BRANCH  14   5
ATOM      5  O   UNL     1     -10.878  -9.475  16.802  0.00  0.00    -0.442 OA
BRANCH   5  18
ATOM      8  O   UNL     1      -9.274  -8.116  17.702  0.00  0.00    -0.226 OA
ATOM     10  N   UNL     1      -8.911 -10.407  17.391  0.00  0.00    -0.251 N 
ATOM     18  C   UNL     1      -9.631  -9.230  17.340  0.00  0.00    +0.405 C 
ATOM     35  H   UNL     1      -9.408 -11.215  17.036  0.00  0.00    +0.158 HD
BRANCH  10  21
ATOM     21  C   UNL     1      -7.594 -10.602  17.870  0.00  0.00    +0.044 A 
ATOM     24  C   UNL     1      -6.495 -10.561  17.008  0.00  0.00    +0.003 A 
ATOM     26  C   UNL     1      -7.446 -10.837  19.230  0.00  0.00    +0.024 A 
ATOM     27  C   UNL     1      -5.201 -10.763  17.544  0.00  0.00    -0.016 A 
ATOM     28  C   UNL     1      -6.638 -10.323  15.631  0.00  0.00    +0.010 A 
ATOM     29  C   UNL     1      -6.173 -11.036  19.758  0.00  0.00    +0.002 A 
ATOM     30  C   UNL     1      -5.057 -11.001  18.921  0.00  0.00    +0.008 A 
ATOM     31  C   UNL     1      -4.088 -10.724  16.688  0.00  0.00    +0.008 A 
ATOM     32  C   UNL     1      -5.523 -10.288  14.795  0.00  0.00    +0.001 A 
ATOM     33  C   UNL     1      -4.250 -10.487  15.322  0.00  0.00    +0.001 A 
ENDBRANCH  10  21
ENDBRANCH   5  18
ENDBRANCH  14   5
TORSDOF 6
ENDMDL
