MODEL 1
REMARK VINA RESULT:      -5.4      0.000      0.000
REMARK  Name = 56775549
REMARK  8 active torsions:
REMARK  status: ('A' for Active; 'I' for Inactive)
REMARK    1  A    between atoms: O_3  and  C_20
REMARK    2  A    between atoms: O_3  and  C_21
REMARK    3  A    between atoms: N_4  and  C_7
REMARK    4  A    between atoms: N_4  and  C_8
REMARK    5  A    between atoms: N_5  and  C_17
REMARK    6  A    between atoms: C_7  and  C_11
REMARK    7  A    between atoms: C_11  and  C_16
REMARK    8  A    between atoms: C_19  and  C_20
REMARK                            x       y       z     vdW  Elec       q    Type
REMARK                         _______ _______ _______ _____ _____    ______ ____
ROOT
ATOM      1  O   UNL     1      12.601   7.359  17.139  0.00  0.00    -0.376 OA
ATOM      7  C   UNL     1      13.848   7.994  18.751  0.00  0.00    +0.072 C 
ATOM      9  C   UNL     1      12.365   7.737  18.514  0.00  0.00    +0.184 C 
ATOM     10  C   UNL     1      14.006   7.676  17.268  0.00  0.00    +0.184 C 
ENDROOT
BRANCH   7   4
ATOM      4  N   UNL     1      14.400   6.883  19.533  0.00  0.00    -0.304 NA
ATOM     22  H   UNL     1      14.207   5.953  19.162  0.00  0.00    +0.123 HD
BRANCH   4   8
ATOM      5  N   UNL     1      18.405   6.143  20.749  0.00  0.00    -0.305 NA
ATOM      8  C   UNL     1      15.840   7.076  19.694  0.00  0.00    +0.057 C 
ATOM     12  C   UNL     1      16.605   5.909  19.067  0.00  0.00    +0.034 C 
ATOM     13  C   UNL     1      16.212   7.208  21.174  0.00  0.00    +0.034 C 
ATOM     14  C   UNL     1      18.110   6.044  19.313  0.00  0.00    +0.085 C 
ATOM     15  C   UNL     1      17.730   7.300  21.353  0.00  0.00    +0.085 C 
ATOM     17  C   UNL     1      19.849   6.221  20.971  0.00  0.00    +0.104 C 
ENDBRANCH   4   8
ENDBRANCH   7   4
BRANCH   7  11
ATOM     11  C   UNL     1      14.280   9.335  19.257  0.00  0.00    +0.085 C 
BRANCH  11  16
ATOM      2  O   UNL     1      12.419   9.743  22.327  0.00  0.00    -0.357 OA
ATOM      6  N   UNL     1      13.293   9.046  21.501  0.00  0.00    -0.083 NA
ATOM     16  C   UNL     1      13.392   9.791  20.397  0.00  0.00    +0.086 A 
ATOM     18  C   UNL     1      12.612  10.958  20.468  0.00  0.00    +0.073 A 
ATOM     19  C   UNL     1      12.020  10.879  21.701  0.00  0.00    +0.163 A 
BRANCH  19  20
ATOM     20  C   UNL     1      11.087  11.741  22.437  0.00  0.00    +0.236 C 
BRANCH  20   3
ATOM      3  O   UNL     1      11.267  11.577  23.847  0.00  0.00    -0.375 OA
ATOM     21  C   UNL     1      10.634  12.620  24.569  0.00  0.00    +0.194 C 
ENDBRANCH  20   3
ENDBRANCH  19  20
ENDBRANCH  11  16
ENDBRANCH   7  11
TORSDOF 6
ENDMDL
MODEL 2
REMARK VINA RESULT:      -5.4      3.763      6.573
REMARK  Name = 56775549
REMARK  8 active torsions:
REMARK  status: ('A' for Active; 'I' for Inactive)
REMARK    1  A    between atoms: O_3  and  C_20
REMARK    2  A    between atoms: O_3  and  C_21
REMARK    3  A    between atoms: N_4  and  C_7
REMARK    4  A    between atoms: N_4  and  C_8
REMARK    5  A    between atoms: N_5  and  C_17
REMARK    6  A    between atoms: C_7  and  C_11
REMARK    7  A    between atoms: C_11  and  C_16
REMARK    8  A    between atoms: C_19  and  C_20
REMARK                            x       y       z     vdW  Elec       q    Type
REMARK                         _______ _______ _______ _____ _____    ______ ____
ROOT
ATOM      1  O   UNL     1      11.615   5.964  21.497  0.00  0.00    -0.376 OA
ATOM      7  C   UNL     1      11.669   8.095  21.385  0.00  0.00    +0.072 C 
ATOM      9  C   UNL     1      10.687   7.020  21.835  0.00  0.00    +0.184 C 
ATOM     10  C   UNL     1      12.554   6.927  20.965  0.00  0.00    +0.184 C 
ENDROOT
BRANCH   7   4
ATOM      4  N   UNL     1      12.253   8.727  22.572  0.00  0.00    -0.304 NA
ATOM     22  H   UNL     1      13.236   8.515  22.737  0.00  0.00    +0.123 HD
BRANCH   4   8
ATOM      5  N   UNL     1      12.271  12.815  23.736  0.00  0.00    -0.305 NA
ATOM      8  C   UNL     1      12.051  10.172  22.497  0.00  0.00    +0.057 C 
ATOM     12  C   UNL     1      13.390  10.902  22.633  0.00  0.00    +0.034 C 
ATOM     13  C   UNL     1      11.085  10.647  23.587  0.00  0.00    +0.034 C 
ATOM     14  C   UNL     1      13.187  12.420  22.657  0.00  0.00    +0.085 C 
ATOM     15  C   UNL     1      10.958  12.173  23.581  0.00  0.00    +0.085 C 
ATOM     17  C   UNL     1      12.127  14.270  23.778  0.00  0.00    +0.104 C 
ENDBRANCH   4   8
ENDBRANCH   7   4
BRANCH   7  11
ATOM     11  C   UNL     1      11.234   9.087  20.350  0.00  0.00    +0.085 C 
BRANCH  11  16
ATOM      2  O   UNL     1      12.149   7.885  17.067  0.00  0.00    -0.357 OA
ATOM      6  N   UNL     1      11.311   7.920  18.176  0.00  0.00    -0.083 NA
ATOM     16  C   UNL     1      11.884   8.789  19.014  0.00  0.00    +0.086 A 
ATOM     18  C   UNL     1      13.072   9.328  18.494  0.00  0.00    +0.073 A 
ATOM     19  C   UNL     1      13.194   8.727  17.269  0.00  0.00    +0.163 A 
BRANCH  19  20
ATOM     20  C   UNL     1      14.184   8.814  16.189  0.00  0.00    +0.236 C 
BRANCH  20   3
ATOM      3  O   UNL     1      14.704  10.144  16.096  0.00  0.00    -0.375 OA
ATOM     21  C   UNL     1      13.929  10.936  15.213  0.00  0.00    +0.194 C 
ENDBRANCH  20   3
ENDBRANCH  19  20
ENDBRANCH  11  16
ENDBRANCH   7  11
TORSDOF 6
ENDMDL
MODEL 3
REMARK VINA RESULT:      -5.1     30.553     32.132
REMARK  Name = 56775549
REMARK  8 active torsions:
REMARK  status: ('A' for Active; 'I' for Inactive)
REMARK    1  A    between atoms: O_3  and  C_20
REMARK    2  A    between atoms: O_3  and  C_21
REMARK    3  A    between atoms: N_4  and  C_7
REMARK    4  A    between atoms: N_4  and  C_8
REMARK    5  A    between atoms: N_5  and  C_17
REMARK    6  A    between atoms: C_7  and  C_11
REMARK    7  A    between atoms: C_11  and  C_16
REMARK    8  A    between atoms: C_19  and  C_20
REMARK                            x       y       z     vdW  Elec       q    Type
REMARK                         _______ _______ _______ _____ _____    ______ ____
ROOT
ATOM      1  O   UNL     1     -14.371  -1.215  29.862  0.00  0.00    -0.376 OA
ATOM      7  C   UNL     1     -14.783   0.810  30.400  0.00  0.00    +0.072 C 
ATOM      9  C   UNL     1     -15.032  -0.577  30.979  0.00  0.00    +0.184 C 
ATOM     10  C   UNL     1     -14.187   0.064  29.211  0.00  0.00    +0.184 C 
ENDROOT
BRANCH   7   4
ATOM      4  N   UNL     1     -13.695   1.447  31.150  0.00  0.00    -0.304 NA
ATOM     22  H   UNL     1     -12.876   1.697  30.598  0.00  0.00    +0.123 HD
BRANCH   4   8
ATOM      5  N   UNL     1     -13.928   4.631  33.956  0.00  0.00    -0.305 NA
ATOM      8  C   UNL     1     -14.215   2.621  31.848  0.00  0.00    +0.057 C 
ATOM     12  C   UNL     1     -13.225   3.783  31.740  0.00  0.00    +0.034 C 
ATOM     13  C   UNL     1     -14.489   2.305  33.321  0.00  0.00    +0.034 C 
ATOM     14  C   UNL     1     -13.706   4.991  32.548  0.00  0.00    +0.085 C 
ATOM     15  C   UNL     1     -14.928   3.561  34.080  0.00  0.00    +0.085 C 
ATOM     17  C   UNL     1     -14.339   5.805  34.726  0.00  0.00    +0.104 C 
ENDBRANCH   4   8
ENDBRANCH   7   4
BRANCH   7  11
ATOM     11  C   UNL     1     -15.949   1.722  30.175  0.00  0.00    +0.085 C 
BRANCH  11  16
ATOM      2  O   UNL     1     -17.538   0.792  27.066  0.00  0.00    -0.357 OA
ATOM      6  N   UNL     1     -17.268   0.599  28.416  0.00  0.00    -0.083 NA
ATOM     16  C   UNL     1     -16.456   1.606  28.752  0.00  0.00    +0.086 A 
ATOM     18  C   UNL     1     -16.184   2.457  27.668  0.00  0.00    +0.073 A 
ATOM     19  C   UNL     1     -16.887   1.901  26.633  0.00  0.00    +0.163 A 
BRANCH  19  20
ATOM     20  C   UNL     1     -17.064   2.254  25.219  0.00  0.00    +0.236 C 
BRANCH  20   3
ATOM      3  O   UNL     1     -15.793   2.449  24.592  0.00  0.00    -0.375 OA
ATOM     21  C   UNL     1     -15.567   3.818  24.306  0.00  0.00    +0.194 C 
ENDBRANCH  20   3
ENDBRANCH  19  20
ENDBRANCH  11  16
ENDBRANCH   7  11
TORSDOF 6
ENDMDL
MODEL 4
REMARK VINA RESULT:      -5.1      1.580      2.067
REMARK  Name = 56775549
REMARK  8 active torsions:
REMARK  status: ('A' for Active; 'I' for Inactive)
REMARK    1  A    between atoms: O_3  and  C_20
REMARK    2  A    between atoms: O_3  and  C_21
REMARK    3  A    between atoms: N_4  and  C_7
REMARK    4  A    between atoms: N_4  and  C_8
REMARK    5  A    between atoms: N_5  and  C_17
REMARK    6  A    between atoms: C_7  and  C_11
REMARK    7  A    between atoms: C_11  and  C_16
REMARK    8  A    between atoms: C_19  and  C_20
REMARK                            x       y       z     vdW  Elec       q    Type
REMARK                         _______ _______ _______ _____ _____    ______ ____
ROOT
ATOM      1  O   UNL     1      10.892   8.252  18.699  0.00  0.00    -0.376 OA
ATOM      7  C   UNL     1      12.461   8.899  19.993  0.00  0.00    +0.072 C 
ATOM      9  C   UNL     1      10.955   8.678  20.079  0.00  0.00    +0.184 C 
ATOM     10  C   UNL     1      12.300   8.531  18.523  0.00  0.00    +0.184 C 
ENDROOT
BRANCH   7   4
ATOM      4  N   UNL     1      13.139   7.797  20.684  0.00  0.00    -0.304 NA
ATOM     22  H   UNL     1      12.807   6.864  20.443  0.00  0.00    +0.123 HD
BRANCH   4   8
ATOM      5  N   UNL     1      17.282   6.879  20.920  0.00  0.00    -0.305 NA
ATOM      8  C   UNL     1      14.578   7.900  20.456  0.00  0.00    +0.057 C 
ATOM     12  C   UNL     1      15.099   6.628  19.781  0.00  0.00    +0.034 C 
ATOM     13  C   UNL     1      15.326   8.135  21.771  0.00  0.00    +0.034 C 
ATOM     14  C   UNL     1      16.622   6.674  19.623  0.00  0.00    +0.085 C 
ATOM     15  C   UNL     1      16.841   8.132  21.550  0.00  0.00    +0.085 C 
ATOM     17  C   UNL     1      18.736   6.872  20.762  0.00  0.00    +0.104 C 
ENDBRANCH   4   8
ENDBRANCH   7   4
BRANCH   7  11
ATOM     11  C   UNL     1      13.018  10.243  20.349  0.00  0.00    +0.085 C 
BRANCH  11  16
ATOM      2  O   UNL     1      10.954  12.128  22.638  0.00  0.00    -0.357 OA
ATOM      6  N   UNL     1      11.439  11.844  21.367  0.00  0.00    -0.083 NA
ATOM     16  C   UNL     1      12.289  10.829  21.541  0.00  0.00    +0.086 A 
ATOM     18  C   UNL     1      12.380  10.434  22.887  0.00  0.00    +0.073 A 
ATOM     19  C   UNL     1      11.522  11.282  23.534  0.00  0.00    +0.163 A 
BRANCH  19  20
ATOM     20  C   UNL     1      11.118  11.444  24.936  0.00  0.00    +0.236 C 
BRANCH  20   3
ATOM      3  O   UNL     1      11.731  12.609  25.498  0.00  0.00    -0.375 OA
ATOM     21  C   UNL     1      10.776  13.633  25.721  0.00  0.00    +0.194 C 
ENDBRANCH  20   3
ENDBRANCH  19  20
ENDBRANCH  11  16
ENDBRANCH   7  11
TORSDOF 6
ENDMDL
MODEL 5
REMARK VINA RESULT:      -4.9      2.525      6.964
REMARK  Name = 56775549
REMARK  8 active torsions:
REMARK  status: ('A' for Active; 'I' for Inactive)
REMARK    1  A    between atoms: O_3  and  C_20
REMARK    2  A    between atoms: O_3  and  C_21
REMARK    3  A    between atoms: N_4  and  C_7
REMARK    4  A    between atoms: N_4  and  C_8
REMARK    5  A    between atoms: N_5  and  C_17
REMARK    6  A    between atoms: C_7  and  C_11
REMARK    7  A    between atoms: C_11  and  C_16
REMARK    8  A    between atoms: C_19  and  C_20
REMARK                            x       y       z     vdW  Elec       q    Type
REMARK                         _______ _______ _______ _____ _____    ______ ____
ROOT
ATOM      1  O   UNL     1      12.123   7.241  18.942  0.00  0.00    -0.376 OA
ATOM      7  C   UNL     1      12.547   8.838  20.294  0.00  0.00    +0.072 C 
ATOM      9  C   UNL     1      12.541   8.616  18.786  0.00  0.00    +0.184 C 
ATOM     10  C   UNL     1      12.200   7.356  20.382  0.00  0.00    +0.184 C 
ENDROOT
BRANCH   7   4
ATOM      4  N   UNL     1      11.362   9.622  20.660  0.00  0.00    -0.304 NA
ATOM     22  H   UNL     1      10.511   9.080  20.801  0.00  0.00    +0.123 HD
BRANCH   4   8
ATOM      5  N   UNL     1      10.755  12.234  23.957  0.00  0.00    -0.305 NA
ATOM      8  C   UNL     1      11.661  10.419  21.847  0.00  0.00    +0.057 C 
ATOM     12  C   UNL     1      10.819   9.939  23.033  0.00  0.00    +0.034 C 
ATOM     13  C   UNL     1      11.398  11.905  21.590  0.00  0.00    +0.034 C 
ATOM     14  C   UNL     1      11.044  10.826  24.261  0.00  0.00    +0.085 C 
ATOM     15  C   UNL     1      11.603  12.729  22.864  0.00  0.00    +0.085 C 
ATOM     17  C   UNL     1      10.926  13.061  25.151  0.00  0.00    +0.104 C 
ENDBRANCH   4   8
ENDBRANCH   7   4
BRANCH   7  11
ATOM     11  C   UNL     1      13.799   9.332  20.949  0.00  0.00    +0.085 C 
BRANCH  11  16
ATOM      2  O   UNL     1      16.091   6.603  21.540  0.00  0.00    -0.357 OA
ATOM      6  N   UNL     1      15.026   7.416  21.908  0.00  0.00    -0.083 NA
ATOM     16  C   UNL     1      14.886   8.278  20.896  0.00  0.00    +0.086 A 
ATOM     18  C   UNL     1      15.824   8.059  19.874  0.00  0.00    +0.073 A 
ATOM     19  C   UNL     1      16.558   6.995  20.328  0.00  0.00    +0.163 A 
BRANCH  19  20
ATOM     20  C   UNL     1      17.693   6.237  19.786  0.00  0.00    +0.236 C 
BRANCH  20   3
ATOM      3  O   UNL     1      18.926   6.762  20.286  0.00  0.00    -0.375 OA
ATOM     21  C   UNL     1      19.834   5.722  20.603  0.00  0.00    +0.194 C 
ENDBRANCH  20   3
ENDBRANCH  19  20
ENDBRANCH  11  16
ENDBRANCH   7  11
TORSDOF 6
ENDMDL
MODEL 6
REMARK VINA RESULT:      -4.9     27.446     29.465
REMARK  Name = 56775549
REMARK  8 active torsions:
REMARK  status: ('A' for Active; 'I' for Inactive)
REMARK    1  A    between atoms: O_3  and  C_20
REMARK    2  A    between atoms: O_3  and  C_21
REMARK    3  A    between atoms: N_4  and  C_7
REMARK    4  A    between atoms: N_4  and  C_8
REMARK    5  A    between atoms: N_5  and  C_17
REMARK    6  A    between atoms: C_7  and  C_11
REMARK    7  A    between atoms: C_11  and  C_16
REMARK    8  A    between atoms: C_19  and  C_20
REMARK                            x       y       z     vdW  Elec       q    Type
REMARK                         _______ _______ _______ _____ _____    ______ ____
ROOT
ATOM      1  O   UNL     1      -9.416 -11.793  20.440  0.00  0.00    -0.376 OA
ATOM      7  C   UNL     1      -9.113 -10.821  18.564  0.00  0.00    +0.072 C 
ATOM      9  C   UNL     1      -9.944 -10.597  19.822  0.00  0.00    +0.184 C 
ATOM     10  C   UNL     1      -8.675 -12.115  19.241  0.00  0.00    +0.184 C 
ENDROOT
BRANCH   7   4
ATOM      4  N   UNL     1      -7.986  -9.882  18.569  0.00  0.00    -0.304 NA
ATOM     22  H   UNL     1      -7.678  -9.580  19.493  0.00  0.00    +0.123 HD
BRANCH   4   8
ATOM      5  N   UNL     1      -4.097 -10.301  16.909  0.00  0.00    -0.305 NA
ATOM      8  C   UNL     1      -6.871 -10.464  17.826  0.00  0.00    +0.057 C 
ATOM     12  C   UNL     1      -5.685 -10.715  18.761  0.00  0.00    +0.034 C 
ATOM     13  C   UNL     1      -6.443  -9.548  16.676  0.00  0.00    +0.034 C 
ATOM     14  C   UNL     1      -4.472 -11.232  17.982  0.00  0.00    +0.085 C 
ATOM     15  C   UNL     1      -5.205 -10.102  15.965  0.00  0.00    +0.085 C 
ATOM     17  C   UNL     1      -2.907 -10.782  16.206  0.00  0.00    +0.104 C 
ENDBRANCH   4   8
ENDBRANCH   7   4
BRANCH   7  11
ATOM     11  C   UNL     1      -9.807 -10.892  17.239  0.00  0.00    +0.085 C 
BRANCH  11  16
ATOM      2  O   UNL     1     -10.000  -7.764  15.443  0.00  0.00    -0.357 OA
ATOM      6  N   UNL     1      -9.483  -9.038  15.642  0.00  0.00    -0.083 NA
ATOM     16  C   UNL     1     -10.119  -9.503  16.721  0.00  0.00    +0.086 A 
ATOM     18  C   UNL     1     -11.040  -8.577  17.239  0.00  0.00    +0.073 A 
ATOM     19  C   UNL     1     -10.925  -7.500  16.400  0.00  0.00    +0.163 A 
BRANCH  19  20
ATOM     20  C   UNL     1     -11.576  -6.186  16.338  0.00  0.00    +0.236 C 
BRANCH  20   3
ATOM      3  O   UNL     1     -11.440  -5.625  15.029  0.00  0.00    -0.375 OA
ATOM     21  C   UNL     1     -12.671  -5.660  14.326  0.00  0.00    +0.194 C 
ENDBRANCH  20   3
ENDBRANCH  19  20
ENDBRANCH  11  16
ENDBRANCH   7  11
TORSDOF 6
ENDMDL
MODEL 7
REMARK VINA RESULT:      -4.9     25.680     27.939
REMARK  Name = 56775549
REMARK  8 active torsions:
REMARK  status: ('A' for Active; 'I' for Inactive)
REMARK    1  A    between atoms: O_3  and  C_20
REMARK    2  A    between atoms: O_3  and  C_21
REMARK    3  A    between atoms: N_4  and  C_7
REMARK    4  A    between atoms: N_4  and  C_8
REMARK    5  A    between atoms: N_5  and  C_17
REMARK    6  A    between atoms: C_7  and  C_11
REMARK    7  A    between atoms: C_11  and  C_16
REMARK    8  A    between atoms: C_19  and  C_20
REMARK                            x       y       z     vdW  Elec       q    Type
REMARK                         _______ _______ _______ _____ _____    ______ ____
ROOT
ATOM      1  O   UNL     1      -0.942 -11.282  15.246  0.00  0.00    -0.376 OA
ATOM      7  C   UNL     1      -2.475 -10.861  13.821  0.00  0.00    +0.072 C 
ATOM      9  C   UNL     1      -1.506 -10.071  14.692  0.00  0.00    +0.184 C 
ATOM     10  C   UNL     1      -1.897 -12.088  14.519  0.00  0.00    +0.184 C 
ENDROOT
BRANCH   7   4
ATOM      4  N   UNL     1      -1.993 -10.835  12.436  0.00  0.00    -0.304 NA
ATOM     22  H   UNL     1      -1.505 -11.677  12.131  0.00  0.00    +0.123 HD
BRANCH   4   8
ATOM      5  N   UNL     1      -4.183 -10.354   8.826  0.00  0.00    -0.305 NA
ATOM      8  C   UNL     1      -3.112 -10.544  11.543  0.00  0.00    +0.057 C 
ATOM     12  C   UNL     1      -3.465 -11.783  10.715  0.00  0.00    +0.034 C 
ATOM     13  C   UNL     1      -2.780  -9.373  10.614  0.00  0.00    +0.034 C 
ATOM     14  C   UNL     1      -4.569 -11.469   9.702  0.00  0.00    +0.085 C 
ATOM     15  C   UNL     1      -3.906  -9.138   9.603  0.00  0.00    +0.085 C 
ATOM     17  C   UNL     1      -5.226 -10.098   7.832  0.00  0.00    +0.104 C 
ENDBRANCH   4   8
ENDBRANCH   7   4
BRANCH   7  11
ATOM     11  C   UNL     1      -3.942 -10.585  13.934  0.00  0.00    +0.085 C 
BRANCH  11  16
ATOM      2  O   UNL     1      -5.409 -12.319  16.744  0.00  0.00    -0.357 OA
ATOM      6  N   UNL     1      -5.048 -12.231  15.404  0.00  0.00    -0.083 NA
ATOM     16  C   UNL     1      -4.472 -11.032  15.281  0.00  0.00    +0.086 A 
ATOM     18  C   UNL     1      -4.441 -10.327  16.496  0.00  0.00    +0.073 A 
ATOM     19  C   UNL     1      -5.042 -11.180  17.383  0.00  0.00    +0.163 A 
BRANCH  19  20
ATOM     20  C   UNL     1      -5.351 -11.104  18.816  0.00  0.00    +0.236 C 
BRANCH  20   3
ATOM      3  O   UNL     1      -6.655 -11.634  19.073  0.00  0.00    -0.375 OA
ATOM     21  C   UNL     1      -7.661 -10.670  18.811  0.00  0.00    +0.194 C 
ENDBRANCH  20   3
ENDBRANCH  19  20
ENDBRANCH  11  16
ENDBRANCH   7  11
TORSDOF 6
ENDMDL
MODEL 8
REMARK VINA RESULT:      -4.8     30.808     31.850
REMARK  Name = 56775549
REMARK  8 active torsions:
REMARK  status: ('A' for Active; 'I' for Inactive)
REMARK    1  A    between atoms: O_3  and  C_20
REMARK    2  A    between atoms: O_3  and  C_21
REMARK    3  A    between atoms: N_4  and  C_7
REMARK    4  A    between atoms: N_4  and  C_8
REMARK    5  A    between atoms: N_5  and  C_17
REMARK    6  A    between atoms: C_7  and  C_11
REMARK    7  A    between atoms: C_11  and  C_16
REMARK    8  A    between atoms: C_19  and  C_20
REMARK                            x       y       z     vdW  Elec       q    Type
REMARK                         _______ _______ _______ _____ _____    ______ ____
ROOT
ATOM      1  O   UNL     1     -14.628  -0.583  30.999  0.00  0.00    -0.376 OA
ATOM      7  C   UNL     1     -14.723   1.437  30.317  0.00  0.00    +0.072 C 
ATOM      9  C   UNL     1     -14.298   0.084  29.760  0.00  0.00    +0.184 C 
ATOM     10  C   UNL     1     -14.957   0.681  31.620  0.00  0.00    +0.184 C 
ENDROOT
BRANCH   7   4
ATOM      4  N   UNL     1     -16.023   1.798  29.741  0.00  0.00    -0.304 NA
ATOM     22  H   UNL     1     -16.443   2.648  30.115  0.00  0.00    +0.123 HD
BRANCH   4   8
ATOM      5  N   UNL     1     -17.085   2.528  25.691  0.00  0.00    -0.305 NA
ATOM      8  C   UNL     1     -15.896   1.891  28.288  0.00  0.00    +0.057 C 
ATOM     12  C   UNL     1     -16.130   3.332  27.827  0.00  0.00    +0.034 C 
ATOM     13  C   UNL     1     -16.886   0.954  27.591  0.00  0.00    +0.034 C 
ATOM     14  C   UNL     1     -16.099   3.432  26.300  0.00  0.00    +0.085 C 
ATOM     15  C   UNL     1     -16.832   1.131  26.071  0.00  0.00    +0.085 C 
ATOM     17  C   UNL     1     -17.079   2.670  24.235  0.00  0.00    +0.104 C 
ENDBRANCH   4   8
ENDBRANCH   7   4
BRANCH   7  11
ATOM     11  C   UNL     1     -13.743   2.570  30.300  0.00  0.00    +0.085 C 
BRANCH  11  16
ATOM      2  O   UNL     1     -15.268   5.258  32.171  0.00  0.00    -0.357 OA
ATOM      6  N   UNL     1     -15.194   4.413  31.071  0.00  0.00    -0.083 NA
ATOM     16  C   UNL     1     -14.134   3.634  31.306  0.00  0.00    +0.086 A 
ATOM     18  C   UNL     1     -13.507   3.939  32.525  0.00  0.00    +0.073 A 
ATOM     19  C   UNL     1     -14.258   4.967  33.030  0.00  0.00    +0.163 A 
BRANCH  19  20
ATOM     20  C   UNL     1     -14.187   5.771  34.256  0.00  0.00    +0.236 C 
BRANCH  20   3
ATOM      3  O   UNL     1     -14.330   7.161  33.947  0.00  0.00    -0.375 OA
ATOM     21  C   UNL     1     -13.088   7.734  33.574  0.00  0.00    +0.194 C 
ENDBRANCH  20   3
ENDBRANCH  19  20
ENDBRANCH  11  16
ENDBRANCH   7  11
TORSDOF 6
ENDMDL
MODEL 9
REMARK VINA RESULT:      -4.8     26.173     28.000
REMARK  Name = 56775549
REMARK  8 active torsions:
REMARK  status: ('A' for Active; 'I' for Inactive)
REMARK    1  A    between atoms: O_3  and  C_20
REMARK    2  A    between atoms: O_3  and  C_21
REMARK    3  A    between atoms: N_4  and  C_7
REMARK    4  A    between atoms: N_4  and  C_8
REMARK    5  A    between atoms: N_5  and  C_17
REMARK    6  A    between atoms: C_7  and  C_11
REMARK    7  A    between atoms: C_11  and  C_16
REMARK    8  A    between atoms: C_19  and  C_20
REMARK                            x       y       z     vdW  Elec       q    Type
REMARK                         _______ _______ _______ _____ _____    ______ ____
ROOT
ATOM      1  O   UNL     1      -5.841 -12.761  18.669  0.00  0.00    -0.376 OA
ATOM      7  C   UNL     1      -4.868 -11.369  17.377  0.00  0.00    +0.072 C 
ATOM      9  C   UNL     1      -4.810 -11.764  18.847  0.00  0.00    +0.184 C 
ATOM     10  C   UNL     1      -6.014 -12.370  17.288  0.00  0.00    +0.184 C 
ENDROOT
BRANCH   7   4
ATOM      4  N   UNL     1      -3.698 -11.928  16.691  0.00  0.00    -0.304 NA
ATOM     22  H   UNL     1      -3.794 -12.898  16.393  0.00  0.00    +0.123 HD
BRANCH   4   8
ATOM      5  N   UNL     1      -1.985 -10.731  12.990  0.00  0.00    -0.305 NA
ATOM      8  C   UNL     1      -3.355 -11.078  15.553  0.00  0.00    +0.057 C 
ATOM     12  C   UNL     1      -3.883 -11.693  14.254  0.00  0.00    +0.034 C 
ATOM     13  C   UNL     1      -1.840 -10.878  15.457  0.00  0.00    +0.034 C 
ATOM     14  C   UNL     1      -3.447 -10.869  13.040  0.00  0.00    +0.085 C 
ATOM     15  C   UNL     1      -1.470 -10.080  14.203  0.00  0.00    +0.085 C 
ATOM     17  C   UNL     1      -1.581  -9.984  11.799  0.00  0.00    +0.104 C 
ENDBRANCH   4   8
ENDBRANCH   7   4
BRANCH   7  11
ATOM     11  C   UNL     1      -5.124  -9.937  17.020  0.00  0.00    +0.085 C 
BRANCH  11  16
ATOM      2  O   UNL     1      -8.321  -9.665  15.359  0.00  0.00    -0.357 OA
ATOM      6  N   UNL     1      -6.958  -9.937  15.368  0.00  0.00    -0.083 NA
ATOM     16  C   UNL     1      -6.573  -9.730  16.630  0.00  0.00    +0.086 A 
ATOM     18  C   UNL     1      -7.638  -9.331  17.455  0.00  0.00    +0.073 A 
ATOM     19  C   UNL     1      -8.714  -9.305  16.607  0.00  0.00    +0.163 A 
BRANCH  19  20
ATOM     20  C   UNL     1     -10.135  -8.981  16.779  0.00  0.00    +0.236 C 
BRANCH  20   3
ATOM      3  O   UNL     1     -10.293  -7.597  17.103  0.00  0.00    -0.375 OA
ATOM     21  C   UNL     1     -10.436  -6.809  15.934  0.00  0.00    +0.194 C 
ENDBRANCH  20   3
ENDBRANCH  19  20
ENDBRANCH  11  16
ENDBRANCH   7  11
TORSDOF 6
ENDMDL
MODEL 10
REMARK VINA RESULT:      -4.8      2.713      4.781
REMARK  Name = 56775549
REMARK  8 active torsions:
REMARK  status: ('A' for Active; 'I' for Inactive)
REMARK    1  A    between atoms: O_3  and  C_20
REMARK    2  A    between atoms: O_3  and  C_21
REMARK    3  A    between atoms: N_4  and  C_7
REMARK    4  A    between atoms: N_4  and  C_8
REMARK    5  A    between atoms: N_5  and  C_17
REMARK    6  A    between atoms: C_7  and  C_11
REMARK    7  A    between atoms: C_11  and  C_16
REMARK    8  A    between atoms: C_19  and  C_20
REMARK                            x       y       z     vdW  Elec       q    Type
REMARK                         _______ _______ _______ _____ _____    ______ ____
ROOT
ATOM      1  O   UNL     1      11.967   6.659  21.781  0.00  0.00    -0.376 OA
ATOM      7  C   UNL     1      12.666   7.751  20.085  0.00  0.00    +0.072 C 
ATOM      9  C   UNL     1      12.805   7.824  21.601  0.00  0.00    +0.184 C 
ATOM     10  C   UNL     1      11.717   6.590  20.358  0.00  0.00    +0.184 C 
ENDROOT
BRANCH   7   4
ATOM      4  N   UNL     1      13.912   7.221  19.522  0.00  0.00    -0.304 NA
ATOM     22  H   UNL     1      14.149   7.564  18.592  0.00  0.00    +0.123 HD
BRANCH   4   8
ATOM      5  N   UNL     1      17.872   7.858  20.931  0.00  0.00    -0.305 NA
ATOM      8  C   UNL     1      15.009   7.479  20.453  0.00  0.00    +0.057 C 
ATOM     12  C   UNL     1      15.739   8.768  20.067  0.00  0.00    +0.034 C 
ATOM     13  C   UNL     1      15.996   6.308  20.474  0.00  0.00    +0.034 C 
ATOM     14  C   UNL     1      16.952   9.004  20.970  0.00  0.00    +0.085 C 
ATOM     15  C   UNL     1      17.203   6.623  21.363  0.00  0.00    +0.085 C 
ATOM     17  C   UNL     1      19.050   8.117  21.758  0.00  0.00    +0.104 C 
ENDBRANCH   4   8
ENDBRANCH   7   4
BRANCH   7  11
ATOM     11  C   UNL     1      12.155   8.949  19.345  0.00  0.00    +0.085 C 
BRANCH  11  16
ATOM      2  O   UNL     1      13.343   8.518  15.960  0.00  0.00    -0.357 OA
ATOM      6  N   UNL     1      12.612   8.109  17.069  0.00  0.00    -0.083 NA
ATOM     16  C   UNL     1      12.813   9.061  17.985  0.00  0.00    +0.086 A 
ATOM     18  C   UNL     1      13.652  10.086  17.515  0.00  0.00    +0.073 A 
ATOM     19  C   UNL     1      13.958   9.696  16.238  0.00  0.00    +0.163 A 
BRANCH  19  20
ATOM     20  C   UNL     1      14.778  10.276  15.168  0.00  0.00    +0.236 C 
BRANCH  20   3
ATOM      3  O   UNL     1      14.612  11.696  15.128  0.00  0.00    -0.375 OA
ATOM     21  C   UNL     1      13.627  12.070  14.179  0.00  0.00    +0.194 C 
ENDBRANCH  20   3
ENDBRANCH  19  20
ENDBRANCH  11  16
ENDBRANCH   7  11
TORSDOF 6
ENDMDL
