MODEL 1
REMARK VINA RESULT:      -6.4      0.000      0.000
REMARK  Name = 75536981
REMARK  4 active torsions:
REMARK  status: ('A' for Active; 'I' for Inactive)
REMARK    1  A    between atoms: S_1  and  N_6
REMARK    2  A    between atoms: S_1  and  C_16
REMARK    3  A    between atoms: N_7  and  C_15
REMARK    4  A    between atoms: C_15  and  C_17
REMARK                            x       y       z     vdW  Elec       q    Type
REMARK                         _______ _______ _______ _____ _____    ______ ____
ROOT
ATOM      2  O   UNL     1      14.515   9.015  18.350  0.00  0.00    -0.252 OA
ATOM      5  N   UNL     1      13.409  10.156  20.080  0.00  0.00    -0.278 N 
ATOM      6  N   UNL     1      12.909  12.172  21.953  0.00  0.00    -0.173 NA
ATOM      7  N   UNL     1      13.714   7.940  20.290  0.00  0.00    -0.278 N 
ATOM      9  C   UNL     1      12.709   9.807  21.302  0.00  0.00    +0.111 C 
ATOM     10  C   UNL     1      13.095  10.760  22.428  0.00  0.00    +0.133 C 
ATOM     11  C   UNL     1      13.099   8.350  21.541  0.00  0.00    +0.133 C 
ATOM     12  C   UNL     1      13.393  11.528  19.612  0.00  0.00    +0.127 C 
ATOM     13  C   UNL     1      13.758  12.474  20.752  0.00  0.00    +0.128 C 
ATOM     14  C   UNL     1      13.948   9.035  19.435  0.00  0.00    +0.306 C 
ENDROOT
BRANCH   6   1
ATOM      1  S   UNL     1      12.934  13.364  23.182  0.00  0.00    +0.061 S 
ATOM      3  O   UNL     1      13.901  14.381  22.833  0.00  0.00    -0.153 OA
ATOM      4  O   UNL     1      12.974  12.708  24.472  0.00  0.00    -0.153 OA
BRANCH   1  16
ATOM     16  C   UNL     1      11.323  14.055  22.974  0.00  0.00    +0.105 A 
ATOM     18  C   UNL     1      10.692  14.689  24.044  0.00  0.00    +0.028 A 
ATOM     19  C   UNL     1      10.679  13.964  21.740  0.00  0.00    +0.028 A 
ATOM     21  C   UNL     1       9.418  15.232  23.881  0.00  0.00    +0.002 A 
ATOM     22  C   UNL     1       9.405  14.506  21.576  0.00  0.00    +0.002 A 
ATOM     23  C   UNL     1       8.774  15.140  22.646  0.00  0.00    +0.000 A 
ENDBRANCH   1  16
ENDBRANCH   6   1
BRANCH   7  15
ATOM     15  C   UNL     1      14.138   6.578  20.056  0.00  0.00    +0.164 C 
BRANCH  15  17
ATOM      8  N   UNL     1      16.218   5.946  18.971  0.00  0.00    -0.258 NA
ATOM     17  C   UNL     1      15.634   6.443  20.084  0.00  0.00    +0.059 A 
ATOM     20  C   UNL     1      16.329   6.826  21.220  0.00  0.00    +0.025 A 
ATOM     24  C   UNL     1      17.712   6.688  21.213  0.00  0.00    +0.003 A 
ATOM     25  C   UNL     1      17.564   5.828  19.001  0.00  0.00    +0.111 A 
ATOM     26  C   UNL     1      18.350   6.182  20.086  0.00  0.00    +0.020 A 
ENDBRANCH  15  17
ENDBRANCH   7  15
TORSDOF 4
ENDMDL
MODEL 2
REMARK VINA RESULT:      -6.4     27.897     29.627
REMARK  Name = 75536981
REMARK  4 active torsions:
REMARK  status: ('A' for Active; 'I' for Inactive)
REMARK    1  A    between atoms: S_1  and  N_6
REMARK    2  A    between atoms: S_1  and  C_16
REMARK    3  A    between atoms: N_7  and  C_15
REMARK    4  A    between atoms: C_15  and  C_17
REMARK                            x       y       z     vdW  Elec       q    Type
REMARK                         _______ _______ _______ _____ _____    ______ ____
ROOT
ATOM      2  O   UNL     1      -1.586 -10.828  14.363  0.00  0.00    -0.252 OA
ATOM      5  N   UNL     1      -3.764 -10.794  15.242  0.00  0.00    -0.278 N 
ATOM      6  N   UNL     1      -5.824 -11.220  17.085  0.00  0.00    -0.173 NA
ATOM      7  N   UNL     1      -3.486 -11.444  13.109  0.00  0.00    -0.278 N 
ATOM      9  C   UNL     1      -5.112 -10.983  14.741  0.00  0.00    +0.111 C 
ATOM     10  C   UNL     1      -5.930 -11.825  15.715  0.00  0.00    +0.133 C 
ATOM     11  C   UNL     1      -4.905 -11.621  13.369  0.00  0.00    +0.133 C 
ATOM     12  C   UNL     1      -3.563 -10.335  16.603  0.00  0.00    +0.127 C 
ATOM     13  C   UNL     1      -4.403 -11.170  17.565  0.00  0.00    +0.128 C 
ATOM     14  C   UNL     1      -2.794 -10.998  14.252  0.00  0.00    +0.306 C 
ENDROOT
BRANCH   6   1
ATOM      1  S   UNL     1      -6.960 -11.802  18.228  0.00  0.00    +0.061 S 
ATOM      3  O   UNL     1      -6.416 -11.637  19.558  0.00  0.00    -0.153 OA
ATOM      4  O   UNL     1      -7.464 -13.082  17.780  0.00  0.00    -0.153 OA
BRANCH   1  16
ATOM     16  C   UNL     1      -8.245 -10.609  18.018  0.00  0.00    +0.105 A 
ATOM     18  C   UNL     1      -9.503 -10.833  18.577  0.00  0.00    +0.028 A 
ATOM     19  C   UNL     1      -8.003  -9.444  17.289  0.00  0.00    +0.028 A 
ATOM     21  C   UNL     1     -10.520  -9.893  18.408  0.00  0.00    +0.002 A 
ATOM     22  C   UNL     1      -9.020  -8.504  17.120  0.00  0.00    +0.002 A 
ATOM     23  C   UNL     1     -10.278  -8.729  17.679  0.00  0.00    +0.000 A 
ENDBRANCH   1  16
ENDBRANCH   6   1
BRANCH   7  15
ATOM     15  C   UNL     1      -2.885 -11.823  11.851  0.00  0.00    +0.164 C 
BRANCH  15  17
ATOM      8  N   UNL     1      -4.134 -11.734   9.769  0.00  0.00    -0.258 NA
ATOM     17  C   UNL     1      -3.447 -11.037  10.700  0.00  0.00    +0.059 A 
ATOM     20  C   UNL     1      -3.242  -9.667  10.650  0.00  0.00    +0.025 A 
ATOM     24  C   UNL     1      -3.776  -8.970   9.572  0.00  0.00    +0.003 A 
ATOM     25  C   UNL     1      -4.640 -11.022   8.738  0.00  0.00    +0.111 A 
ATOM     26  C   UNL     1      -4.490  -9.652   8.594  0.00  0.00    +0.020 A 
ENDBRANCH  15  17
ENDBRANCH   7  15
TORSDOF 4
ENDMDL
MODEL 3
REMARK VINA RESULT:      -6.3     27.610     30.221
REMARK  Name = 75536981
REMARK  4 active torsions:
REMARK  status: ('A' for Active; 'I' for Inactive)
REMARK    1  A    between atoms: S_1  and  N_6
REMARK    2  A    between atoms: S_1  and  C_16
REMARK    3  A    between atoms: N_7  and  C_15
REMARK    4  A    between atoms: C_15  and  C_17
REMARK                            x       y       z     vdW  Elec       q    Type
REMARK                         _______ _______ _______ _____ _____    ______ ____
ROOT
ATOM      2  O   UNL     1      -7.204 -13.561  17.627  0.00  0.00    -0.252 OA
ATOM      5  N   UNL     1      -5.754 -12.296  16.279  0.00  0.00    -0.278 N 
ATOM      6  N   UNL     1      -3.517 -11.725  14.701  0.00  0.00    -0.173 NA
ATOM      7  N   UNL     1      -6.565 -11.351  18.149  0.00  0.00    -0.278 N 
ATOM      9  C   UNL     1      -5.268 -10.930  16.236  0.00  0.00    +0.111 C 
ATOM     10  C   UNL     1      -3.774 -10.906  15.932  0.00  0.00    +0.133 C 
ATOM     11  C   UNL     1      -5.647 -10.366  17.604  0.00  0.00    +0.133 C 
ATOM     12  C   UNL     1      -5.442 -13.202  15.190  0.00  0.00    +0.127 C 
ATOM     13  C   UNL     1      -3.949 -13.152  14.880  0.00  0.00    +0.128 C 
ATOM     14  C   UNL     1      -6.587 -12.532  17.380  0.00  0.00    +0.306 C 
ENDROOT
BRANCH   6   1
ATOM      1  S   UNL     1      -1.970 -11.516  13.996  0.00  0.00    +0.061 S 
ATOM      3  O   UNL     1      -1.470 -12.803  13.563  0.00  0.00    -0.153 OA
ATOM      4  O   UNL     1      -1.177 -10.656  14.848  0.00  0.00    -0.153 OA
BRANCH   1  16
ATOM     16  C   UNL     1      -2.411 -10.595  12.555  0.00  0.00    +0.105 A 
ATOM     18  C   UNL     1      -1.435  -9.888  11.853  0.00  0.00    +0.028 A 
ATOM     19  C   UNL     1      -3.737 -10.573  12.121  0.00  0.00    +0.028 A 
ATOM     21  C   UNL     1      -1.784  -9.157  10.717  0.00  0.00    +0.002 A 
ATOM     22  C   UNL     1      -4.086  -9.842  10.985  0.00  0.00    +0.002 A 
ATOM     23  C   UNL     1      -3.110  -9.134  10.284  0.00  0.00    +0.000 A 
ENDBRANCH   1  16
ENDBRANCH   6   1
BRANCH   7  15
ATOM     15  C   UNL     1      -7.248 -11.148  19.407  0.00  0.00    +0.164 C 
BRANCH  15  17
ATOM      8  N   UNL     1      -9.573 -11.154  20.112  0.00  0.00    -0.258 NA
ATOM     17  C   UNL     1      -8.671 -10.710  19.209  0.00  0.00    +0.059 A 
ATOM     20  C   UNL     1      -8.986  -9.891  18.137  0.00  0.00    +0.025 A 
ATOM     24  C   UNL     1     -10.312  -9.503  17.983  0.00  0.00    +0.003 A 
ATOM     25  C   UNL     1     -10.851 -10.756  19.931  0.00  0.00    +0.111 A 
ATOM     26  C   UNL     1     -11.268  -9.939  18.893  0.00  0.00    +0.020 A 
ENDBRANCH  15  17
ENDBRANCH   7  15
TORSDOF 4
ENDMDL
MODEL 4
REMARK VINA RESULT:      -6.3      4.811      9.463
REMARK  Name = 75536981
REMARK  4 active torsions:
REMARK  status: ('A' for Active; 'I' for Inactive)
REMARK    1  A    between atoms: S_1  and  N_6
REMARK    2  A    between atoms: S_1  and  C_16
REMARK    3  A    between atoms: N_7  and  C_15
REMARK    4  A    between atoms: C_15  and  C_17
REMARK                            x       y       z     vdW  Elec       q    Type
REMARK                         _______ _______ _______ _____ _____    ______ ____
ROOT
ATOM      2  O   UNL     1      15.901   9.662  20.374  0.00  0.00    -0.252 OA
ATOM      5  N   UNL     1      17.327   7.847  20.813  0.00  0.00    -0.278 N 
ATOM      6  N   UNL     1      19.732   6.451  21.105  0.00  0.00    -0.173 NA
ATOM      7  N   UNL     1      15.523   7.496  19.520  0.00  0.00    -0.278 N 
ATOM      9  C   UNL     1      17.331   6.419  20.562  0.00  0.00    +0.111 C 
ATOM     10  C   UNL     1      18.716   5.961  20.114  0.00  0.00    +0.133 C 
ATOM     11  C   UNL     1      16.232   6.228  19.520  0.00  0.00    +0.133 C 
ATOM     12  C   UNL     1      18.352   8.431  21.656  0.00  0.00    +0.127 C 
ATOM     13  C   UNL     1      19.730   7.948  21.213  0.00  0.00    +0.128 C 
ATOM     14  C   UNL     1      16.210   8.483  20.254  0.00  0.00    +0.306 C 
ENDROOT
BRANCH   6   1
ATOM      1  S   UNL     1      21.281   5.731  20.976  0.00  0.00    +0.061 S 
ATOM      3  O   UNL     1      22.180   6.660  20.325  0.00  0.00    -0.153 OA
ATOM      4  O   UNL     1      21.130   4.375  20.494  0.00  0.00    -0.153 OA
BRANCH   1  16
ATOM     16  C   UNL     1      21.727   5.654  22.683  0.00  0.00    +0.105 A 
ATOM     18  C   UNL     1      21.295   6.648  23.562  0.00  0.00    +0.028 A 
ATOM     19  C   UNL     1      22.513   4.602  23.152  0.00  0.00    +0.028 A 
ATOM     21  C   UNL     1      21.650   6.590  24.910  0.00  0.00    +0.002 A 
ATOM     22  C   UNL     1      22.867   4.543  24.500  0.00  0.00    +0.002 A 
ATOM     23  C   UNL     1      22.437   5.537  25.378  0.00  0.00    +0.000 A 
ENDBRANCH   1  16
ENDBRANCH   6   1
BRANCH   7  15
ATOM     15  C   UNL     1      14.327   7.705  18.735  0.00  0.00    +0.164 C 
BRANCH  15  17
ATOM      8  N   UNL     1      13.068   6.818  20.614  0.00  0.00    -0.258 NA
ATOM     17  C   UNL     1      13.088   7.693  19.584  0.00  0.00    +0.059 A 
ATOM     20  C   UNL     1      12.049   8.558  19.281  0.00  0.00    +0.025 A 
ATOM     24  C   UNL     1      10.917   8.522  20.087  0.00  0.00    +0.003 A 
ATOM     25  C   UNL     1      11.952   6.813  21.376  0.00  0.00    +0.111 A 
ATOM     26  C   UNL     1      10.860   7.636  21.157  0.00  0.00    +0.020 A 
ENDBRANCH  15  17
ENDBRANCH   7  15
TORSDOF 4
ENDMDL
MODEL 5
REMARK VINA RESULT:      -6.3     28.524     30.509
REMARK  Name = 75536981
REMARK  4 active torsions:
REMARK  status: ('A' for Active; 'I' for Inactive)
REMARK    1  A    between atoms: S_1  and  N_6
REMARK    2  A    between atoms: S_1  and  C_16
REMARK    3  A    between atoms: N_7  and  C_15
REMARK    4  A    between atoms: C_15  and  C_17
REMARK                            x       y       z     vdW  Elec       q    Type
REMARK                         _______ _______ _______ _____ _____    ______ ____
ROOT
ATOM      2  O   UNL     1      -6.826 -14.094  17.185  0.00  0.00    -0.252 OA
ATOM      5  N   UNL     1      -5.795 -12.466  15.840  0.00  0.00    -0.278 N 
ATOM      6  N   UNL     1      -4.087 -11.414  13.892  0.00  0.00    -0.173 NA
ATOM      7  N   UNL     1      -6.026 -12.045  18.035  0.00  0.00    -0.278 N 
ATOM      9  C   UNL     1      -5.317 -11.107  16.002  0.00  0.00    +0.111 C 
ATOM     10  C   UNL     1      -3.970 -10.930  15.308  0.00  0.00    +0.133 C 
ATOM     11  C   UNL     1      -5.283 -10.910  17.516  0.00  0.00    +0.133 C 
ATOM     12  C   UNL     1      -5.821 -13.066  14.520  0.00  0.00    +0.127 C 
ATOM     13  C   UNL     1      -4.477 -12.863  13.828  0.00  0.00    +0.128 C 
ATOM     14  C   UNL     1      -6.286 -13.005  17.037  0.00  0.00    +0.306 C 
ENDROOT
BRANCH   6   1
ATOM      1  S   UNL     1      -2.800 -10.959  12.857  0.00  0.00    +0.061 S 
ATOM      3  O   UNL     1      -2.280 -12.140  12.205  0.00  0.00    -0.153 OA
ATOM      4  O   UNL     1      -1.925 -10.052  13.568  0.00  0.00    -0.153 OA
BRANCH   1  16
ATOM     16  C   UNL     1      -3.690 -10.024  11.653  0.00  0.00    +0.105 A 
ATOM     18  C   UNL     1      -5.013  -9.654  11.896  0.00  0.00    +0.028 A 
ATOM     19  C   UNL     1      -3.072  -9.657  10.458  0.00  0.00    +0.028 A 
ATOM     21  C   UNL     1      -5.718  -8.918  10.944  0.00  0.00    +0.002 A 
ATOM     22  C   UNL     1      -3.777  -8.921   9.506  0.00  0.00    +0.002 A 
ATOM     23  C   UNL     1      -5.100  -8.552   9.748  0.00  0.00    +0.000 A 
ENDBRANCH   1  16
ENDBRANCH   6   1
BRANCH   7  15
ATOM     15  C   UNL     1      -6.321 -12.188  19.443  0.00  0.00    +0.164 C 
BRANCH  15  17
ATOM      8  N   UNL     1      -8.381 -10.907  19.576  0.00  0.00    -0.258 NA
ATOM     17  C   UNL     1      -7.796 -12.117  19.718  0.00  0.00    +0.059 A 
ATOM     20  C   UNL     1      -8.472 -13.267  20.093  0.00  0.00    +0.025 A 
ATOM     24  C   UNL     1      -9.837 -13.167  20.339  0.00  0.00    +0.003 A 
ATOM     25  C   UNL     1      -9.708 -10.850  19.822  0.00  0.00    +0.111 A 
ATOM     26  C   UNL     1     -10.474 -11.939  20.203  0.00  0.00    +0.020 A 
ENDBRANCH  15  17
ENDBRANCH   7  15
TORSDOF 4
ENDMDL
MODEL 6
REMARK VINA RESULT:      -6.2     28.151     29.606
REMARK  Name = 75536981
REMARK  4 active torsions:
REMARK  status: ('A' for Active; 'I' for Inactive)
REMARK    1  A    between atoms: S_1  and  N_6
REMARK    2  A    between atoms: S_1  and  C_16
REMARK    3  A    between atoms: N_7  and  C_15
REMARK    4  A    between atoms: C_15  and  C_17
REMARK                            x       y       z     vdW  Elec       q    Type
REMARK                         _______ _______ _______ _____ _____    ______ ____
ROOT
ATOM      2  O   UNL     1      -3.823 -13.677  14.037  0.00  0.00    -0.252 OA
ATOM      5  N   UNL     1      -4.290 -12.711  16.126  0.00  0.00    -0.278 N 
ATOM      6  N   UNL     1      -5.821 -11.856  18.304  0.00  0.00    -0.173 NA
ATOM      7  N   UNL     1      -2.900 -11.623  14.736  0.00  0.00    -0.278 N 
ATOM      9  C   UNL     1      -3.823 -11.573  16.896  0.00  0.00    +0.111 C 
ATOM     10  C   UNL     1      -4.999 -10.854  17.549  0.00  0.00    +0.133 C 
ATOM     11  C   UNL     1      -3.052 -10.737  15.877  0.00  0.00    +0.133 C 
ATOM     12  C   UNL     1      -5.195 -13.666  16.736  0.00  0.00    +0.127 C 
ATOM     13  C   UNL     1      -6.354 -12.934  17.405  0.00  0.00    +0.128 C 
ATOM     14  C   UNL     1      -3.687 -12.785  14.864  0.00  0.00    +0.306 C 
ENDROOT
BRANCH   6   1
ATOM      1  S   UNL     1      -6.960 -11.190  19.397  0.00  0.00    +0.061 S 
ATOM      3  O   UNL     1      -6.352 -10.075  20.090  0.00  0.00    -0.153 OA
ATOM      4  O   UNL     1      -7.595 -12.266  20.127  0.00  0.00    -0.153 OA
BRANCH   1  16
ATOM     16  C   UNL     1      -8.138 -10.539  18.254  0.00  0.00    +0.105 A 
ATOM     18  C   UNL     1      -9.323 -11.231  18.004  0.00  0.00    +0.028 A 
ATOM     19  C   UNL     1      -7.882  -9.335  17.599  0.00  0.00    +0.028 A 
ATOM     21  C   UNL     1     -10.252 -10.719  17.099  0.00  0.00    +0.002 A 
ATOM     22  C   UNL     1      -8.811  -8.823  16.693  0.00  0.00    +0.002 A 
ATOM     23  C   UNL     1      -9.996  -9.515  16.442  0.00  0.00    +0.000 A 
ENDBRANCH   1  16
ENDBRANCH   6   1
BRANCH   7  15
ATOM     15  C   UNL     1      -2.127 -11.249  13.574  0.00  0.00    +0.164 C 
BRANCH  15  17
ATOM      8  N   UNL     1      -4.272 -10.374  12.842  0.00  0.00    -0.258 NA
ATOM     17  C   UNL     1      -2.963 -10.536  12.548  0.00  0.00    +0.059 A 
ATOM     20  C   UNL     1      -2.368 -10.089  11.380  0.00  0.00    +0.025 A 
ATOM     24  C   UNL     1      -3.169  -9.433  10.452  0.00  0.00    +0.003 A 
ATOM     25  C   UNL     1      -5.019  -9.730  11.917  0.00  0.00    +0.111 A 
ATOM     26  C   UNL     1      -4.521  -9.246  10.719  0.00  0.00    +0.020 A 
ENDBRANCH  15  17
ENDBRANCH   7  15
TORSDOF 4
ENDMDL
MODEL 7
REMARK VINA RESULT:      -6.1     28.489     30.930
REMARK  Name = 75536981
REMARK  4 active torsions:
REMARK  status: ('A' for Active; 'I' for Inactive)
REMARK    1  A    between atoms: S_1  and  N_6
REMARK    2  A    between atoms: S_1  and  C_16
REMARK    3  A    between atoms: N_7  and  C_15
REMARK    4  A    between atoms: C_15  and  C_17
REMARK                            x       y       z     vdW  Elec       q    Type
REMARK                         _______ _______ _______ _____ _____    ______ ____
ROOT
ATOM      2  O   UNL     1     -17.335   2.358  22.255  0.00  0.00    -0.252 OA
ATOM      5  N   UNL     1     -16.642   2.803  24.456  0.00  0.00    -0.278 N 
ATOM      6  N   UNL     1     -16.788   2.926  27.246  0.00  0.00    -0.173 NA
ATOM      7  N   UNL     1     -16.290   4.376  22.890  0.00  0.00    -0.278 N 
ATOM      9  C   UNL     1     -15.893   3.839  25.142  0.00  0.00    +0.111 C 
ATOM     10  C   UNL     1     -16.562   4.190  26.467  0.00  0.00    +0.133 C 
ATOM     11  C   UNL     1     -15.845   4.983  24.132  0.00  0.00    +0.133 C 
ATOM     12  C   UNL     1     -17.019   1.598  25.170  0.00  0.00    +0.127 C 
ATOM     13  C   UNL     1     -17.666   1.962  26.503  0.00  0.00    +0.128 C 
ATOM     14  C   UNL     1     -16.818   3.086  23.095  0.00  0.00    +0.306 C 
ENDROOT
BRANCH   6   1
ATOM      1  S   UNL     1     -17.183   3.149  28.897  0.00  0.00    +0.061 S 
ATOM      3  O   UNL     1     -18.427   2.466  29.180  0.00  0.00    -0.153 OA
ATOM      4  O   UNL     1     -17.002   4.543  29.240  0.00  0.00    -0.153 OA
BRANCH   1  16
ATOM     16  C   UNL     1     -15.878   2.230  29.652  0.00  0.00    +0.105 A 
ATOM     18  C   UNL     1     -14.702   2.875  30.034  0.00  0.00    +0.028 A 
ATOM     19  C   UNL     1     -16.022   0.859  29.863  0.00  0.00    +0.028 A 
ATOM     21  C   UNL     1     -13.668   2.149  30.627  0.00  0.00    +0.002 A 
ATOM     22  C   UNL     1     -14.988   0.133  30.456  0.00  0.00    +0.002 A 
ATOM     23  C   UNL     1     -13.812   0.777  30.837  0.00  0.00    +0.000 A 
ENDBRANCH   1  16
ENDBRANCH   6   1
BRANCH   7  15
ATOM     15  C   UNL     1     -16.293   5.102  21.640  0.00  0.00    +0.164 C 
BRANCH  15  17
ATOM      8  N   UNL     1     -15.242   7.257  21.246  0.00  0.00    -0.258 NA
ATOM     17  C   UNL     1     -15.056   5.937  21.473  0.00  0.00    +0.059 A 
ATOM     20  C   UNL     1     -13.812   5.332  21.558  0.00  0.00    +0.025 A 
ATOM     24  C   UNL     1     -12.688   6.134  21.399  0.00  0.00    +0.003 A 
ATOM     25  C   UNL     1     -14.126   8.004  21.098  0.00  0.00    +0.111 A 
ATOM     26  C   UNL     1     -12.839   7.496  21.165  0.00  0.00    +0.020 A 
ENDBRANCH  15  17
ENDBRANCH   7  15
TORSDOF 4
ENDMDL
MODEL 8
REMARK VINA RESULT:      -6.1      4.368      6.177
REMARK  Name = 75536981
REMARK  4 active torsions:
REMARK  status: ('A' for Active; 'I' for Inactive)
REMARK    1  A    between atoms: S_1  and  N_6
REMARK    2  A    between atoms: S_1  and  C_16
REMARK    3  A    between atoms: N_7  and  C_15
REMARK    4  A    between atoms: C_15  and  C_17
REMARK                            x       y       z     vdW  Elec       q    Type
REMARK                         _______ _______ _______ _____ _____    ______ ____
ROOT
ATOM      2  O   UNL     1      14.630   8.837  14.696  0.00  0.00    -0.252 OA
ATOM      5  N   UNL     1      14.165   8.990  16.993  0.00  0.00    -0.278 N 
ATOM      6  N   UNL     1      12.966   8.374  19.443  0.00  0.00    -0.173 NA
ATOM      7  N   UNL     1      14.276  10.890  15.800  0.00  0.00    -0.278 N 
ATOM      9  C   UNL     1      14.021  10.045  17.977  0.00  0.00    +0.111 C 
ATOM     10  C   UNL     1      12.833   9.763  18.891  0.00  0.00    +0.133 C 
ATOM     11  C   UNL     1      13.888  11.312  17.135  0.00  0.00    +0.133 C 
ATOM     12  C   UNL     1      14.172   7.605  17.424  0.00  0.00    +0.127 C 
ATOM     13  C   UNL     1      12.993   7.340  18.355  0.00  0.00    +0.128 C 
ATOM     14  C   UNL     1      14.390   9.489  15.704  0.00  0.00    +0.306 C 
ENDROOT
BRANCH   6   1
ATOM      1  S   UNL     1      11.937   8.013  20.765  0.00  0.00    +0.061 S 
ATOM      3  O   UNL     1      12.449   6.851  21.457  0.00  0.00    -0.153 OA
ATOM      4  O   UNL     1      10.561   8.070  20.318  0.00  0.00    -0.153 OA
BRANCH   1  16
ATOM     16  C   UNL     1      12.237   9.425  21.782  0.00  0.00    +0.105 A 
ATOM     18  C   UNL     1      11.175  10.239  22.175  0.00  0.00    +0.028 A 
ATOM     19  C   UNL     1      13.536   9.728  22.189  0.00  0.00    +0.028 A 
ATOM     21  C   UNL     1      11.411  11.357  22.975  0.00  0.00    +0.002 A 
ATOM     22  C   UNL     1      13.773  10.846  22.989  0.00  0.00    +0.002 A 
ATOM     23  C   UNL     1      12.711  11.661  23.381  0.00  0.00    +0.000 A 
ENDBRANCH   1  16
ENDBRANCH   6   1
BRANCH   7  15
ATOM     15  C   UNL     1      14.388  11.825  14.704  0.00  0.00    +0.164 C 
BRANCH  15  17
ATOM      8  N   UNL     1      16.042  12.135  12.952  0.00  0.00    -0.258 NA
ATOM     17  C   UNL     1      15.815  12.026  14.280  0.00  0.00    +0.059 A 
ATOM     20  C   UNL     1      16.806  12.090  15.245  0.00  0.00    +0.025 A 
ATOM     24  C   UNL     1      18.117  12.277  14.819  0.00  0.00    +0.003 A 
ATOM     25  C   UNL     1      17.328  12.318  12.576  0.00  0.00    +0.111 A 
ATOM     26  C   UNL     1      18.391  12.395  13.461  0.00  0.00    +0.020 A 
ENDBRANCH  15  17
ENDBRANCH   7  15
TORSDOF 4
ENDMDL
MODEL 9
REMARK VINA RESULT:      -6.0     15.047     17.436
REMARK  Name = 75536981
REMARK  4 active torsions:
REMARK  status: ('A' for Active; 'I' for Inactive)
REMARK    1  A    between atoms: S_1  and  N_6
REMARK    2  A    between atoms: S_1  and  C_16
REMARK    3  A    between atoms: N_7  and  C_15
REMARK    4  A    between atoms: C_15  and  C_17
REMARK                            x       y       z     vdW  Elec       q    Type
REMARK                         _______ _______ _______ _____ _____    ______ ____
ROOT
ATOM      2  O   UNL     1      11.739   9.450   7.330  0.00  0.00    -0.252 OA
ATOM      5  N   UNL     1      13.928   8.947   6.642  0.00  0.00    -0.278 N 
ATOM      6  N   UNL     1      16.256   9.080   5.099  0.00  0.00    -0.173 NA
ATOM      7  N   UNL     1      12.560   7.244   7.169  0.00  0.00    -0.278 N 
ATOM      9  C   UNL     1      14.765   7.766   6.550  0.00  0.00    +0.111 C 
ATOM     10  C   UNL     1      15.545   7.766   5.239  0.00  0.00    +0.133 C 
ATOM     11  C   UNL     1      13.781   6.609   6.704  0.00  0.00    +0.133 C 
ATOM     12  C   UNL     1      14.503  10.255   6.393  0.00  0.00    +0.127 C 
ATOM     13  C   UNL     1      15.299  10.236   5.091  0.00  0.00    +0.128 C 
ATOM     14  C   UNL     1      12.631   8.649   7.081  0.00  0.00    +0.306 C 
ENDROOT
BRANCH   6   1
ATOM      1  S   UNL     1      17.467   9.128   3.887  0.00  0.00    +0.061 S 
ATOM      3  O   UNL     1      17.740  10.507   3.548  0.00  0.00    -0.153 OA
ATOM      4  O   UNL     1      17.145   8.157   2.863  0.00  0.00    -0.153 OA
BRANCH   1  16
ATOM     16  C   UNL     1      18.844   8.514   4.805  0.00  0.00    +0.105 A 
ATOM     18  C   UNL     1      18.996   8.857   6.148  0.00  0.00    +0.028 A 
ATOM     19  C   UNL     1      19.783   7.689   4.185  0.00  0.00    +0.028 A 
ATOM     21  C   UNL     1      20.086   8.375   6.873  0.00  0.00    +0.002 A 
ATOM     22  C   UNL     1      20.873   7.207   4.910  0.00  0.00    +0.002 A 
ATOM     23  C   UNL     1      21.026   7.550   6.253  0.00  0.00    +0.000 A 
ENDBRANCH   1  16
ENDBRANCH   6   1
BRANCH   7  15
ATOM     15  C   UNL     1      11.392   6.479   7.542  0.00  0.00    +0.164 C 
BRANCH  15  17
ATOM      8  N   UNL     1      10.529   6.320   5.276  0.00  0.00    -0.258 NA
ATOM     17  C   UNL     1      10.269   6.654   6.560  0.00  0.00    +0.059 A 
ATOM     20  C   UNL     1       9.048   7.136   7.004  0.00  0.00    +0.025 A 
ATOM     24  C   UNL     1       8.030   7.286   6.069  0.00  0.00    +0.003 A 
ATOM     25  C   UNL     1       9.515   6.477   4.397  0.00  0.00    +0.111 A 
ATOM     26  C   UNL     1       8.259   6.951   4.739  0.00  0.00    +0.020 A 
ENDBRANCH  15  17
ENDBRANCH   7  15
TORSDOF 4
ENDMDL
MODEL 10
REMARK VINA RESULT:      -6.0     28.172     30.738
REMARK  Name = 75536981
REMARK  4 active torsions:
REMARK  status: ('A' for Active; 'I' for Inactive)
REMARK    1  A    between atoms: S_1  and  N_6
REMARK    2  A    between atoms: S_1  and  C_16
REMARK    3  A    between atoms: N_7  and  C_15
REMARK    4  A    between atoms: C_15  and  C_17
REMARK                            x       y       z     vdW  Elec       q    Type
REMARK                         _______ _______ _______ _____ _____    ______ ____
ROOT
ATOM      2  O   UNL     1      -9.974 -11.907  16.407  0.00  0.00    -0.252 OA
ATOM      5  N   UNL     1      -7.897 -11.139  15.624  0.00  0.00    -0.278 N 
ATOM      6  N   UNL     1      -5.179 -11.223  14.968  0.00  0.00    -0.173 NA
ATOM      7  N   UNL     1      -9.081  -9.803  16.988  0.00  0.00    -0.278 N 
ATOM      9  C   UNL     1      -7.133  -9.906  15.679  0.00  0.00    +0.111 C 
ATOM     10  C   UNL     1      -5.663 -10.203  15.956  0.00  0.00    +0.133 C 
ATOM     11  C   UNL     1      -7.834  -9.093  16.765  0.00  0.00    +0.133 C 
ATOM     12  C   UNL     1      -7.433 -12.233  14.792  0.00  0.00    +0.127 C 
ATOM     13  C   UNL     1      -5.956 -12.504  15.062  0.00  0.00    +0.128 C 
ATOM     14  C   UNL     1      -9.095 -11.057  16.345  0.00  0.00    +0.306 C 
ENDROOT
BRANCH   6   1
ATOM      1  S   UNL     1      -3.478 -11.406  14.882  0.00  0.00    +0.061 S 
ATOM      3  O   UNL     1      -3.159 -12.816  14.818  0.00  0.00    -0.153 OA
ATOM      4  O   UNL     1      -2.863 -10.545  15.870  0.00  0.00    -0.153 OA
BRANCH   1  16
ATOM     16  C   UNL     1      -3.174 -10.710  13.289  0.00  0.00    +0.105 A 
ATOM     18  C   UNL     1      -1.865 -10.477  12.868  0.00  0.00    +0.028 A 
ATOM     19  C   UNL     1      -4.243 -10.390  12.452  0.00  0.00    +0.028 A 
ATOM     21  C   UNL     1      -1.624  -9.923  11.611  0.00  0.00    +0.002 A 
ATOM     22  C   UNL     1      -4.002  -9.836  11.194  0.00  0.00    +0.002 A 
ATOM     23  C   UNL     1      -2.693  -9.602  10.774  0.00  0.00    +0.000 A 
ENDBRANCH   1  16
ENDBRANCH   6   1
BRANCH   7  15
ATOM     15  C   UNL     1     -10.100  -9.300  17.881  0.00  0.00    +0.164 C 
BRANCH  15  17
ATOM      8  N   UNL     1     -10.578  -7.104  16.957  0.00  0.00    -0.258 NA
ATOM     17  C   UNL     1     -11.038  -8.354  17.187  0.00  0.00    +0.059 A 
ATOM     20  C   UNL     1     -12.300  -8.796  16.823  0.00  0.00    +0.025 A 
ATOM     24  C   UNL     1     -13.144  -7.896  16.182  0.00  0.00    +0.003 A 
ATOM     25  C   UNL     1     -11.425  -6.259  16.330  0.00  0.00    +0.111 A 
ATOM     26  C   UNL     1     -12.705  -6.601  15.926  0.00  0.00    +0.020 A 
ENDBRANCH  15  17
ENDBRANCH   7  15
TORSDOF 4
ENDMDL
