REMARK  Name = 75536968
REMARK  3 active torsions:
REMARK  status: ('A' for Active; 'I' for Inactive)
REMARK    1  A    between atoms: N_6  and  C_14
REMARK    2  A    between atoms: C_14  and  C_15
REMARK    3  A    between atoms: C_14  and  C_16
REMARK                            x       y       z     vdW  Elec       q    Type
REMARK                         _______ _______ _______ _____ _____    ______ ____
ROOT
ATOM      1  O   UNL     1       4.534  -0.697   0.334  0.00  0.00    -0.253 OA
ATOM      2  O   UNL     1      -2.275  -1.912  -0.052  0.00  0.00    -0.253 OA
ATOM      3  N   UNL     1       2.220  -0.278   0.231  0.00  0.00    -0.278 N 
ATOM      4  N   UNL     1      -0.435  -0.590  -0.537  0.00  0.00    -0.282 N 
ATOM      5  N   UNL     1       3.640   1.456   0.068  0.00  0.00    -0.297 N 
ATOM      6  N   UNL     1      -2.572   0.358  -0.182  0.00  0.00    -0.297 N 
ATOM      7  C   UNL     1       1.366   0.898   0.207  0.00  0.00    +0.112 C 
ATOM      8  C   UNL     1       0.232   0.704  -0.794  0.00  0.00    +0.133 C 
ATOM      9  C   UNL     1       1.631  -1.599   0.359  0.00  0.00    +0.128 C 
ATOM     10  C   UNL     1       2.330   2.033  -0.127  0.00  0.00    +0.129 C 
ATOM     11  C   UNL     1       0.467  -1.751  -0.620  0.00  0.00    +0.128 C 
ATOM     12  C   UNL     1       3.578   0.059   0.228  0.00  0.00    +0.303 C 
ATOM     13  C   UNL     1      -1.793  -0.791  -0.246  0.00  0.00    +0.303 C 
ATOM     17  H   UNL     1       4.509   1.979   0.014  0.00  0.00    +0.150 HD
ATOM     18  H   UNL     1      -2.150   1.276  -0.202  0.00  0.00    +0.150 HD
ENDROOT
BRANCH   6  14
ATOM     14  C   UNL     1      -3.986   0.308   0.114  0.00  0.00    +0.068 C 
ATOM     15  C   UNL     1      -4.220   0.362   1.618  0.00  0.00    +0.027 C 
ATOM     16  C   UNL     1      -4.716   1.438  -0.600  0.00  0.00    +0.027 C 
ENDBRANCH   6  14
TORSDOF 1
