MODEL 1
REMARK VINA RESULT:      -6.6      0.000      0.000
REMARK  Name = 51137977
REMARK  9 active torsions:
REMARK  status: ('A' for Active; 'I' for Inactive)
REMARK    1  A    between atoms: O_2  and  C_28
REMARK    2  A    between atoms: O_2  and  C_29
REMARK    3  A    between atoms: N_5  and  C_23
REMARK    4  A    between atoms: C_7  and  C_11
REMARK    5  A    between atoms: C_8  and  C_14
REMARK    6  A    between atoms: C_11  and  C_17
REMARK    7  A    between atoms: C_17  and  C_25
REMARK    8  A    between atoms: C_17  and  C_26
REMARK    9  A    between atoms: C_23  and  C_28
REMARK                            x       y       z     vdW  Elec       q    Type
REMARK                         _______ _______ _______ _____ _____    ______ ____
ROOT
ATOM      3  N   UNL     1      14.982   9.167  20.230  0.00  0.00    -0.299 NA
ATOM      6  N   UNL     1      10.507  10.066  22.390  0.00  0.00    -0.360 N 
ATOM      7  C   UNL     1      14.229   7.910  20.124  0.00  0.00    +0.085 C 
ATOM      8  C   UNL     1      14.319  10.324  19.643  0.00  0.00    +0.145 C 
ATOM      9  C   UNL     1      13.575  11.139  20.698  0.00  0.00    +0.065 C 
ATOM     10  C   UNL     1      12.894   7.864  20.875  0.00  0.00    -0.021 A 
ATOM     12  C   UNL     1      12.186   9.002  21.358  0.00  0.00    +0.008 A 
ATOM     13  C   UNL     1      12.423  10.420  21.315  0.00  0.00    -0.020 A 
ATOM     20  C   UNL     1      10.965   8.824  22.018  0.00  0.00    +0.047 A 
ATOM     21  C   UNL     1      11.372  11.032  21.968  0.00  0.00    +0.087 A 
ATOM     22  C   UNL     1      12.255   6.610  21.046  0.00  0.00    +0.006 A 
ATOM     24  C   UNL     1      10.374   7.575  22.218  0.00  0.00    +0.026 A 
ATOM     27  C   UNL     1      11.037   6.467  21.707  0.00  0.00    +0.002 A 
ATOM     30  H   UNL     1      15.254   9.349  21.195  0.00  0.00    +0.123 HD
ATOM     31  H   UNL     1       9.645  10.237  22.889  0.00  0.00    +0.165 HD
ENDROOT
BRANCH   8  14
ATOM      1  O   UNL     1      16.437  11.365  19.738  0.00  0.00    -0.274 OA
ATOM      4  N   UNL     1      15.223  11.652  17.778  0.00  0.00    -0.298 N 
ATOM      5  N   UNL     1      15.308  12.082  14.947  0.00  0.00    -0.297 NA
ATOM     14  C   UNL     1      15.423  11.157  19.067  0.00  0.00    +0.233 C 
ATOM     15  C   UNL     1      14.030  11.421  16.958  0.00  0.00    +0.123 C 
ATOM     16  C   UNL     1      16.188  12.583  17.197  0.00  0.00    +0.123 C 
ATOM     18  C   UNL     1      14.410  11.068  15.519  0.00  0.00    +0.103 C 
ATOM     19  C   UNL     1      16.529  12.202  15.757  0.00  0.00    +0.103 C 
BRANCH   5  23
ATOM     23  C   UNL     1      15.641  11.751  13.562  0.00  0.00    +0.112 C 
BRANCH  23  28
ATOM     28  C   UNL     1      14.837  12.609  12.597  0.00  0.00    +0.174 C 
BRANCH  28   2
ATOM      2  O   UNL     1      13.691  11.877  12.183  0.00  0.00    -0.382 OA
ATOM     29  C   UNL     1      12.494  12.606  12.421  0.00  0.00    +0.194 C 
ENDBRANCH  28   2
ENDBRANCH  23  28
ENDBRANCH   5  23
ENDBRANCH   8  14
BRANCH   7  11
ATOM     11  C   UNL     1      15.213   6.827  20.603  0.00  0.00    +0.026 C 
BRANCH  11  17
ATOM     17  C   UNL     1      16.617   6.991  20.013  0.00  0.00    -0.015 C 
ATOM     25  C   UNL     1      16.833   5.936  18.924  0.00  0.00    +0.007 C 
ATOM     26  C   UNL     1      17.717   6.875  21.069  0.00  0.00    +0.007 C 
ENDBRANCH  11  17
ENDBRANCH   7  11
TORSDOF 6
ENDMDL
MODEL 2
REMARK VINA RESULT:      -6.4     26.666     30.186
REMARK  Name = 51137977
REMARK  9 active torsions:
REMARK  status: ('A' for Active; 'I' for Inactive)
REMARK    1  A    between atoms: O_2  and  C_28
REMARK    2  A    between atoms: O_2  and  C_29
REMARK    3  A    between atoms: N_5  and  C_23
REMARK    4  A    between atoms: C_7  and  C_11
REMARK    5  A    between atoms: C_8  and  C_14
REMARK    6  A    between atoms: C_11  and  C_17
REMARK    7  A    between atoms: C_17  and  C_25
REMARK    8  A    between atoms: C_17  and  C_26
REMARK    9  A    between atoms: C_23  and  C_28
REMARK                            x       y       z     vdW  Elec       q    Type
REMARK                         _______ _______ _______ _____ _____    ______ ____
ROOT
ATOM      3  N   UNL     1      -6.244 -11.845  15.557  0.00  0.00    -0.299 NA
ATOM      6  N   UNL     1      -2.779 -10.151  12.297  0.00  0.00    -0.360 N 
ATOM      7  C   UNL     1      -5.109 -11.400  16.377  0.00  0.00    +0.085 C 
ATOM      8  C   UNL     1      -6.787 -10.828  14.668  0.00  0.00    +0.145 C 
ATOM      9  C   UNL     1      -6.223 -10.958  13.255  0.00  0.00    +0.065 C 
ATOM     10  C   UNL     1      -3.842 -11.008  15.610  0.00  0.00    -0.021 A 
ATOM     12  C   UNL     1      -3.784 -10.718  14.216  0.00  0.00    +0.008 A 
ATOM     13  C   UNL     1      -4.760 -10.680  13.162  0.00  0.00    -0.020 A 
ATOM     20  C   UNL     1      -2.561 -10.357  13.639  0.00  0.00    +0.047 A 
ATOM     21  C   UNL     1      -4.097 -10.336  12.000  0.00  0.00    +0.087 A 
ATOM     22  C   UNL     1      -2.636 -10.837  16.336  0.00  0.00    +0.006 A 
ATOM     24  C   UNL     1      -1.373 -10.240  14.362  0.00  0.00    +0.026 A 
ATOM     27  C   UNL     1      -1.435 -10.475  15.730  0.00  0.00    +0.002 A 
ATOM     30  H   UNL     1      -6.012 -12.695  15.045  0.00  0.00    +0.123 HD
ATOM     31  H   UNL     1      -2.067  -9.884  11.632  0.00  0.00    +0.165 HD
ENDROOT
BRANCH   8  14
ATOM      1  O   UNL     1      -8.717 -11.882  13.807  0.00  0.00    -0.274 OA
ATOM      4  N   UNL     1      -9.040 -10.393  15.560  0.00  0.00    -0.298 N 
ATOM      5  N   UNL     1     -10.634  -9.670  17.828  0.00  0.00    -0.297 NA
ATOM     14  C   UNL     1      -8.263 -11.086  14.633  0.00  0.00    +0.233 C 
ATOM     15  C   UNL     1      -8.528  -9.443  16.552  0.00  0.00    +0.123 C 
ATOM     16  C   UNL     1     -10.498 -10.485  15.503  0.00  0.00    +0.123 C 
ATOM     18  C   UNL     1      -9.166  -9.678  17.922  0.00  0.00    +0.103 C 
ATOM     19  C   UNL     1     -11.095 -10.706  16.892  0.00  0.00    +0.103 C 
BRANCH   5  23
ATOM     23  C   UNL     1     -11.234  -9.865  19.147  0.00  0.00    +0.112 C 
BRANCH  23  28
ATOM     28  C   UNL     1     -10.269 -10.589  20.073  0.00  0.00    +0.174 C 
BRANCH  28   2
ATOM      2  O   UNL     1     -10.695 -11.939  20.210  0.00  0.00    -0.382 OA
ATOM     29  C   UNL     1      -9.609 -12.845  20.066  0.00  0.00    +0.194 C 
ENDBRANCH  28   2
ENDBRANCH  23  28
ENDBRANCH   5  23
ENDBRANCH   8  14
BRANCH   7  11
ATOM     11  C   UNL     1      -4.867 -12.555  17.365  0.00  0.00    +0.026 C 
BRANCH  11  17
ATOM     17  C   UNL     1      -5.014 -12.130  18.829  0.00  0.00    -0.015 C 
ATOM     25  C   UNL     1      -5.548 -10.696  18.888  0.00  0.00    +0.007 C 
ATOM     26  C   UNL     1      -3.699 -12.223  19.605  0.00  0.00    +0.007 C 
ENDBRANCH  11  17
ENDBRANCH   7  11
TORSDOF 6
ENDMDL
MODEL 3
REMARK VINA RESULT:      -6.4     28.721     31.233
REMARK  Name = 51137977
REMARK  9 active torsions:
REMARK  status: ('A' for Active; 'I' for Inactive)
REMARK    1  A    between atoms: O_2  and  C_28
REMARK    2  A    between atoms: O_2  and  C_29
REMARK    3  A    between atoms: N_5  and  C_23
REMARK    4  A    between atoms: C_7  and  C_11
REMARK    5  A    between atoms: C_8  and  C_14
REMARK    6  A    between atoms: C_11  and  C_17
REMARK    7  A    between atoms: C_17  and  C_25
REMARK    8  A    between atoms: C_17  and  C_26
REMARK    9  A    between atoms: C_23  and  C_28
REMARK                            x       y       z     vdW  Elec       q    Type
REMARK                         _______ _______ _______ _____ _____    ______ ____
ROOT
ATOM      3  N   UNL     1     -13.190   8.466  31.898  0.00  0.00    -0.299 NA
ATOM      6  N   UNL     1     -11.453   9.253  36.574  0.00  0.00    -0.360 N 
ATOM      7  C   UNL     1     -11.770   8.807  31.743  0.00  0.00    +0.085 C 
ATOM      8  C   UNL     1     -13.451   7.330  32.771  0.00  0.00    +0.145 C 
ATOM      9  C   UNL     1     -13.810   7.780  34.185  0.00  0.00    +0.065 C 
ATOM     10  C   UNL     1     -11.051   9.274  33.013  0.00  0.00    -0.021 A 
ATOM     12  C   UNL     1     -11.528   9.083  34.342  0.00  0.00    +0.008 A 
ATOM     13  C   UNL     1     -12.692   8.457  34.906  0.00  0.00    -0.020 A 
ATOM     20  C   UNL     1     -10.765   9.547  35.420  0.00  0.00    +0.047 A 
ATOM     21  C   UNL     1     -12.609   8.593  36.277  0.00  0.00    +0.087 A 
ATOM     22  C   UNL     1      -9.774   9.877  32.886  0.00  0.00    +0.006 A 
ATOM     24  C   UNL     1      -9.530  10.181  35.273  0.00  0.00    +0.026 A 
ATOM     27  C   UNL     1      -9.040  10.327  33.982  0.00  0.00    +0.002 A 
ATOM     30  H   UNL     1     -13.732   9.281  32.183  0.00  0.00    +0.123 HD
ATOM     31  H   UNL     1     -11.137   9.479  37.507  0.00  0.00    +0.165 HD
ENDROOT
BRANCH   8  14
ATOM      1  O   UNL     1     -15.536   7.300  31.665  0.00  0.00    -0.274 OA
ATOM      4  N   UNL     1     -14.615   5.237  32.205  0.00  0.00    -0.298 N 
ATOM      5  N   UNL     1     -14.391   2.462  31.531  0.00  0.00    -0.297 NA
ATOM     14  C   UNL     1     -14.629   6.631  32.164  0.00  0.00    +0.233 C 
ATOM     15  C   UNL     1     -13.551   4.417  32.792  0.00  0.00    +0.123 C 
ATOM     16  C   UNL     1     -15.786   4.484  31.758  0.00  0.00    +0.123 C 
ATOM     18  C   UNL     1     -13.194   3.242  31.878  0.00  0.00    +0.103 C 
ATOM     19  C   UNL     1     -15.384   3.314  30.861  0.00  0.00    +0.103 C 
BRANCH   5  23
ATOM     23  C   UNL     1     -14.033   1.325  30.683  0.00  0.00    +0.112 C 
BRANCH  23  28
ATOM     28  C   UNL     1     -15.244   0.439  30.436  0.00  0.00    +0.174 C 
BRANCH  28   2
ATOM      2  O   UNL     1     -14.797  -0.812  29.930  0.00  0.00    -0.382 OA
ATOM     29  C   UNL     1     -13.457  -0.736  29.462  0.00  0.00    +0.194 C 
ENDBRANCH  28   2
ENDBRANCH  23  28
ENDBRANCH   5  23
ENDBRANCH   8  14
BRANCH   7  11
ATOM     11  C   UNL     1     -11.745   9.867  30.627  0.00  0.00    +0.026 C 
BRANCH  11  17
ATOM     17  C   UNL     1     -13.040  10.679  30.543  0.00  0.00    -0.015 C 
ATOM     25  C   UNL     1     -13.391  10.921  29.072  0.00  0.00    +0.007 C 
ATOM     26  C   UNL     1     -12.947  12.017  31.278  0.00  0.00    +0.007 C 
ENDBRANCH  11  17
ENDBRANCH   7  11
TORSDOF 6
ENDMDL
MODEL 4
REMARK VINA RESULT:      -6.3     26.595     28.763
REMARK  Name = 51137977
REMARK  9 active torsions:
REMARK  status: ('A' for Active; 'I' for Inactive)
REMARK    1  A    between atoms: O_2  and  C_28
REMARK    2  A    between atoms: O_2  and  C_29
REMARK    3  A    between atoms: N_5  and  C_23
REMARK    4  A    between atoms: C_7  and  C_11
REMARK    5  A    between atoms: C_8  and  C_14
REMARK    6  A    between atoms: C_11  and  C_17
REMARK    7  A    between atoms: C_17  and  C_25
REMARK    8  A    between atoms: C_17  and  C_26
REMARK    9  A    between atoms: C_23  and  C_28
REMARK                            x       y       z     vdW  Elec       q    Type
REMARK                         _______ _______ _______ _____ _____    ______ ____
ROOT
ATOM      3  N   UNL     1      -4.907 -11.333  12.887  0.00  0.00    -0.299 NA
ATOM      6  N   UNL     1      -1.821 -11.056  16.874  0.00  0.00    -0.360 N 
ATOM      7  C   UNL     1      -5.772 -11.058  14.042  0.00  0.00    +0.085 C 
ATOM      8  C   UNL     1      -3.841 -10.362  12.681  0.00  0.00    +0.145 C 
ATOM      9  C   UNL     1      -2.522 -10.840  13.285  0.00  0.00    +0.065 C 
ATOM     10  C   UNL     1      -5.093 -11.109  15.414  0.00  0.00    -0.021 A 
ATOM     12  C   UNL     1      -3.686 -11.060  15.635  0.00  0.00    +0.008 A 
ATOM     13  C   UNL     1      -2.542 -10.946  14.773  0.00  0.00    -0.020 A 
ATOM     20  C   UNL     1      -3.193 -11.101  16.945  0.00  0.00    +0.047 A 
ATOM     21  C   UNL     1      -1.419 -10.957  15.575  0.00  0.00    +0.087 A 
ATOM     22  C   UNL     1      -5.908 -11.130  16.574  0.00  0.00    +0.006 A 
ATOM     24  C   UNL     1      -4.012 -11.168  18.073  0.00  0.00    +0.026 A 
ATOM     27  C   UNL     1      -5.385 -11.169  17.865  0.00  0.00    +0.002 A 
ATOM     30  H   UNL     1      -4.537 -12.282  12.926  0.00  0.00    +0.123 HD
ATOM     31  H   UNL     1      -1.202 -11.076  17.673  0.00  0.00    +0.165 HD
ENDROOT
BRANCH   8  14
ATOM      1  O   UNL     1      -2.797 -10.890  10.630  0.00  0.00    -0.274 OA
ATOM      4  N   UNL     1      -4.595  -9.422  10.535  0.00  0.00    -0.298 N 
ATOM      5  N   UNL     1      -6.779  -8.405   8.985  0.00  0.00    -0.297 NA
ATOM     14  C   UNL     1      -3.690 -10.254  11.194  0.00  0.00    +0.233 C 
ATOM     15  C   UNL     1      -5.665  -8.655  11.179  0.00  0.00    +0.123 C 
ATOM     16  C   UNL     1      -4.432  -9.156   9.106  0.00  0.00    +0.123 C 
ATOM     18  C   UNL     1      -6.974  -8.772  10.395  0.00  0.00    +0.103 C 
ATOM     19  C   UNL     1      -5.763  -9.269   8.365  0.00  0.00    +0.103 C 
BRANCH   5  23
ATOM     23  C   UNL     1      -8.042  -8.490   8.253  0.00  0.00    +0.112 C 
BRANCH  23  28
ATOM     28  C   UNL     1      -8.208  -7.294   7.328  0.00  0.00    +0.174 C 
BRANCH  28   2
ATOM      2  O   UNL     1      -7.979  -6.106   8.075  0.00  0.00    -0.382 OA
ATOM     29  C   UNL     1      -9.199  -5.461   8.415  0.00  0.00    +0.194 C 
ENDBRANCH  28   2
ENDBRANCH  23  28
ENDBRANCH   5  23
ENDBRANCH   8  14
BRANCH   7  11
ATOM     11  C   UNL     1      -6.923 -12.072  13.915  0.00  0.00    +0.026 C 
BRANCH  11  17
ATOM     17  C   UNL     1      -8.298 -11.406  13.803  0.00  0.00    -0.015 C 
ATOM     25  C   UNL     1      -8.121  -9.885  13.784  0.00  0.00    +0.007 C 
ATOM     26  C   UNL     1      -9.239 -11.802  14.942  0.00  0.00    +0.007 C 
ENDBRANCH  11  17
ENDBRANCH   7  11
TORSDOF 6
ENDMDL
MODEL 5
REMARK VINA RESULT:      -6.0      2.736      6.802
REMARK  Name = 51137977
REMARK  9 active torsions:
REMARK  status: ('A' for Active; 'I' for Inactive)
REMARK    1  A    between atoms: O_2  and  C_28
REMARK    2  A    between atoms: O_2  and  C_29
REMARK    3  A    between atoms: N_5  and  C_23
REMARK    4  A    between atoms: C_7  and  C_11
REMARK    5  A    between atoms: C_8  and  C_14
REMARK    6  A    between atoms: C_11  and  C_17
REMARK    7  A    between atoms: C_17  and  C_25
REMARK    8  A    between atoms: C_17  and  C_26
REMARK    9  A    between atoms: C_23  and  C_28
REMARK                            x       y       z     vdW  Elec       q    Type
REMARK                         _______ _______ _______ _____ _____    ______ ____
ROOT
ATOM      3  N   UNL     1      13.626   9.435  19.119  0.00  0.00    -0.299 NA
ATOM      6  N   UNL     1      10.552  10.700  22.921  0.00  0.00    -0.360 N 
ATOM      7  C   UNL     1      13.709  10.898  19.228  0.00  0.00    +0.085 C 
ATOM      8  C   UNL     1      13.951   8.715  20.342  0.00  0.00    +0.145 C 
ATOM      9  C   UNL     1      12.695   8.334  21.121  0.00  0.00    +0.065 C 
ATOM     10  C   UNL     1      12.720  11.553  20.198  0.00  0.00    -0.021 A 
ATOM     12  C   UNL     1      11.995  10.870  21.216  0.00  0.00    +0.008 A 
ATOM     13  C   UNL     1      11.940   9.503  21.659  0.00  0.00    -0.020 A 
ATOM     20  C   UNL     1      11.131  11.591  22.048  0.00  0.00    +0.047 A 
ATOM     21  C   UNL     1      11.036   9.444  22.700  0.00  0.00    +0.087 A 
ATOM     22  C   UNL     1      12.555  12.961  20.149  0.00  0.00    +0.006 A 
ATOM     24  C   UNL     1      10.946  12.972  21.954  0.00  0.00    +0.026 A 
ATOM     27  C   UNL     1      11.686  13.649  20.993  0.00  0.00    +0.002 A 
ATOM     30  H   UNL     1      12.719   9.148  18.753  0.00  0.00    +0.123 HD
ATOM     31  H   UNL     1       9.880  10.945  23.634  0.00  0.00    +0.165 HD
ENDROOT
BRANCH   8  14
ATOM      1  O   UNL     1      14.125   6.769  19.015  0.00  0.00    -0.274 OA
ATOM      4  N   UNL     1      15.864   7.173  20.501  0.00  0.00    -0.298 N 
ATOM      5  N   UNL     1      18.652   6.845  21.074  0.00  0.00    -0.297 NA
ATOM     14  C   UNL     1      14.646   7.466  19.889  0.00  0.00    +0.233 C 
ATOM     15  C   UNL     1      16.506   7.983  21.540  0.00  0.00    +0.123 C 
ATOM     16  C   UNL     1      16.537   5.908  20.214  0.00  0.00    +0.123 C 
ATOM     18  C   UNL     1      18.002   8.150  21.263  0.00  0.00    +0.103 C 
ATOM     19  C   UNL     1      18.029   6.118  19.958  0.00  0.00    +0.103 C 
BRANCH   5  23
ATOM     23  C   UNL     1      20.085   7.014  20.840  0.00  0.00    +0.112 C 
BRANCH  23  28
ATOM     28  C   UNL     1      20.667   8.043  21.797  0.00  0.00    +0.174 C 
BRANCH  28   2
ATOM      2  O   UNL     1      21.562   7.384  22.685  0.00  0.00    -0.382 OA
ATOM     29  C   UNL     1      21.613   5.987  22.430  0.00  0.00    +0.194 C 
ENDBRANCH  28   2
ENDBRANCH  23  28
ENDBRANCH   5  23
ENDBRANCH   8  14
BRANCH   7  11
ATOM     11  C   UNL     1      13.543  11.405  17.784  0.00  0.00    +0.026 C 
BRANCH  11  17
ATOM     17  C   UNL     1      14.005  10.388  16.736  0.00  0.00    -0.015 C 
ATOM     25  C   UNL     1      15.067  11.032  15.841  0.00  0.00    +0.007 C 
ATOM     26  C   UNL     1      12.854   9.863  15.876  0.00  0.00    +0.007 C 
ENDBRANCH  11  17
ENDBRANCH   7  11
TORSDOF 6
ENDMDL
MODEL 6
REMARK VINA RESULT:      -6.0     27.632     29.856
REMARK  Name = 51137977
REMARK  9 active torsions:
REMARK  status: ('A' for Active; 'I' for Inactive)
REMARK    1  A    between atoms: O_2  and  C_28
REMARK    2  A    between atoms: O_2  and  C_29
REMARK    3  A    between atoms: N_5  and  C_23
REMARK    4  A    between atoms: C_7  and  C_11
REMARK    5  A    between atoms: C_8  and  C_14
REMARK    6  A    between atoms: C_11  and  C_17
REMARK    7  A    between atoms: C_17  and  C_25
REMARK    8  A    between atoms: C_17  and  C_26
REMARK    9  A    between atoms: C_23  and  C_28
REMARK                            x       y       z     vdW  Elec       q    Type
REMARK                         _______ _______ _______ _____ _____    ______ ____
ROOT
ATOM      3  N   UNL     1      -6.508 -11.099  13.305  0.00  0.00    -0.299 NA
ATOM      6  N   UNL     1      -6.290  -8.356   9.070  0.00  0.00    -0.360 N 
ATOM      7  C   UNL     1      -5.089 -10.769  13.117  0.00  0.00    +0.085 C 
ATOM      8  C   UNL     1      -7.398  -9.948  13.358  0.00  0.00    +0.145 C 
ATOM      9  C   UNL     1      -8.046  -9.676  12.002  0.00  0.00    +0.065 C 
ATOM     10  C   UNL     1      -4.730 -10.090  11.791  0.00  0.00    -0.021 A 
ATOM     12  C   UNL     1      -5.660  -9.464  10.912  0.00  0.00    +0.008 A 
ATOM     13  C   UNL     1      -7.082  -9.255  10.945  0.00  0.00    -0.020 A 
ATOM     20  C   UNL     1      -5.198  -8.864   9.734  0.00  0.00    +0.047 A 
ATOM     21  C   UNL     1      -7.425  -8.580   9.791  0.00  0.00    +0.087 A 
ATOM     22  C   UNL     1      -3.363  -9.995  11.426  0.00  0.00    +0.006 A 
ATOM     24  C   UNL     1      -3.851  -8.823   9.369  0.00  0.00    +0.026 A 
ATOM     27  C   UNL     1      -2.936  -9.390  10.246  0.00  0.00    +0.002 A 
ATOM     30  H   UNL     1      -6.821 -11.774  12.607  0.00  0.00    +0.123 HD
ATOM     31  H   UNL     1      -6.251  -7.871   8.184  0.00  0.00    +0.165 HD
ENDROOT
BRANCH   8  14
ATOM      1  O   UNL     1      -9.517 -10.811  13.939  0.00  0.00    -0.274 OA
ATOM      4  N   UNL     1      -8.176 -10.081  15.689  0.00  0.00    -0.298 N 
ATOM      5  N   UNL     1      -7.472 -10.370  18.451  0.00  0.00    -0.297 NA
ATOM     14  C   UNL     1      -8.462 -10.320  14.345  0.00  0.00    +0.233 C 
ATOM     15  C   UNL     1      -6.931  -9.499  16.200  0.00  0.00    +0.123 C 
ATOM     16  C   UNL     1      -9.210 -10.289  16.702  0.00  0.00    +0.123 C 
ATOM     18  C   UNL     1      -6.425 -10.267  17.423  0.00  0.00    +0.103 C 
ATOM     19  C   UNL     1      -8.660 -11.046  17.910  0.00  0.00    +0.103 C 
BRANCH   5  23
ATOM     23  C   UNL     1      -6.968 -11.079  19.627  0.00  0.00    +0.112 C 
BRANCH  23  28
ATOM     28  C   UNL     1      -5.863 -12.048  19.236  0.00  0.00    +0.174 C 
BRANCH  28   2
ATOM      2  O   UNL     1      -4.722 -11.788  20.044  0.00  0.00    -0.382 OA
ATOM     29  C   UNL     1      -3.524 -12.198  19.398  0.00  0.00    +0.194 C 
ENDBRANCH  28   2
ENDBRANCH  23  28
ENDBRANCH   5  23
ENDBRANCH   8  14
BRANCH   7  11
ATOM     11  C   UNL     1      -4.350 -12.105  13.314  0.00  0.00    +0.026 C 
BRANCH  11  17
ATOM     17  C   UNL     1      -3.580 -12.173  14.637  0.00  0.00    -0.015 C 
ATOM     25  C   UNL     1      -4.412 -12.943  15.666  0.00  0.00    +0.007 C 
ATOM     26  C   UNL     1      -3.230 -10.790  15.188  0.00  0.00    +0.007 C 
ENDBRANCH  11  17
ENDBRANCH   7  11
TORSDOF 6
ENDMDL
MODEL 7
REMARK VINA RESULT:      -5.8      9.703     15.195
REMARK  Name = 51137977
REMARK  9 active torsions:
REMARK  status: ('A' for Active; 'I' for Inactive)
REMARK    1  A    between atoms: O_2  and  C_28
REMARK    2  A    between atoms: O_2  and  C_29
REMARK    3  A    between atoms: N_5  and  C_23
REMARK    4  A    between atoms: C_7  and  C_11
REMARK    5  A    between atoms: C_8  and  C_14
REMARK    6  A    between atoms: C_11  and  C_17
REMARK    7  A    between atoms: C_17  and  C_25
REMARK    8  A    between atoms: C_17  and  C_26
REMARK    9  A    between atoms: C_23  and  C_28
REMARK                            x       y       z     vdW  Elec       q    Type
REMARK                         _______ _______ _______ _____ _____    ______ ____
ROOT
ATOM      3  N   UNL     1       8.682   7.927   5.259  0.00  0.00    -0.299 NA
ATOM      6  N   UNL     1       9.942   6.756   0.511  0.00  0.00    -0.360 N 
ATOM      7  C   UNL     1       9.585   6.773   5.360  0.00  0.00    +0.085 C 
ATOM      8  C   UNL     1       9.235   9.071   4.547  0.00  0.00    +0.145 C 
ATOM      9  C   UNL     1       8.788   9.093   3.087  0.00  0.00    +0.065 C 
ATOM     10  C   UNL     1       9.968   6.105   4.035  0.00  0.00    -0.021 A 
ATOM     12  C   UNL     1       9.812   6.692   2.746  0.00  0.00    +0.008 A 
ATOM     13  C   UNL     1       9.317   7.957   2.277  0.00  0.00    -0.020 A 
ATOM     20  C   UNL     1      10.217   5.979   1.611  0.00  0.00    +0.047 A 
ATOM     21  C   UNL     1       9.407   7.949   0.899  0.00  0.00    +0.087 A 
ATOM     22  C   UNL     1      10.602   4.837   4.073  0.00  0.00    +0.006 A 
ATOM     24  C   UNL     1      10.796   4.710   1.666  0.00  0.00    +0.026 A 
ATOM     27  C   UNL     1      10.994   4.154   2.923  0.00  0.00    +0.002 A 
ATOM     30  H   UNL     1       7.781   7.652   4.870  0.00  0.00    +0.123 HD
ATOM     31  H   UNL     1      10.128   6.488  -0.445  0.00  0.00    +0.165 HD
ENDROOT
BRANCH   8  14
ATOM      1  O   UNL     1       7.565  10.694   4.937  0.00  0.00    -0.274 OA
ATOM      4  N   UNL     1       9.488  10.850   6.230  0.00  0.00    -0.298 N 
ATOM      5  N   UNL     1      10.640  11.659   8.725  0.00  0.00    -0.297 NA
ATOM     14  C   UNL     1       8.682  10.274   5.248  0.00  0.00    +0.233 C 
ATOM     15  C   UNL     1      10.818  10.373   6.620  0.00  0.00    +0.123 C 
ATOM     16  C   UNL     1       9.082  12.102   6.864  0.00  0.00    +0.123 C 
ATOM     18  C   UNL     1      10.971  10.350   8.142  0.00  0.00    +0.103 C 
ATOM     19  C   UNL     1       9.263  12.042   8.380  0.00  0.00    +0.103 C 
BRANCH   5  23
ATOM     23  C   UNL     1      10.818  11.634  10.176  0.00  0.00    +0.112 C 
BRANCH  23  28
ATOM     28  C   UNL     1      12.003  12.495  10.586  0.00  0.00    +0.174 C 
BRANCH  28   2
ATOM      2  O   UNL     1      12.615  11.913  11.730  0.00  0.00    -0.382 OA
ATOM     29  C   UNL     1      11.917  12.251  12.922  0.00  0.00    +0.194 C 
ENDBRANCH  28   2
ENDBRANCH  23  28
ENDBRANCH   5  23
ENDBRANCH   8  14
BRANCH   7  11
ATOM     11  C   UNL     1       8.874   5.806   6.323  0.00  0.00    +0.026 C 
BRANCH  11  17
ATOM     17  C   UNL     1       9.578   5.685   7.678  0.00  0.00    -0.015 C 
ATOM     25  C   UNL     1      10.910   6.439   7.624  0.00  0.00    +0.007 C 
ATOM     26  C   UNL     1       9.824   4.233   8.088  0.00  0.00    +0.007 C 
ENDBRANCH  11  17
ENDBRANCH   7  11
TORSDOF 6
ENDMDL
MODEL 8
REMARK VINA RESULT:      -5.8     13.979     17.571
REMARK  Name = 51137977
REMARK  9 active torsions:
REMARK  status: ('A' for Active; 'I' for Inactive)
REMARK    1  A    between atoms: O_2  and  C_28
REMARK    2  A    between atoms: O_2  and  C_29
REMARK    3  A    between atoms: N_5  and  C_23
REMARK    4  A    between atoms: C_7  and  C_11
REMARK    5  A    between atoms: C_8  and  C_14
REMARK    6  A    between atoms: C_11  and  C_17
REMARK    7  A    between atoms: C_17  and  C_25
REMARK    8  A    between atoms: C_17  and  C_26
REMARK    9  A    between atoms: C_23  and  C_28
REMARK                            x       y       z     vdW  Elec       q    Type
REMARK                         _______ _______ _______ _____ _____    ______ ____
ROOT
ATOM      3  N   UNL     1      19.731  -2.311  24.817  0.00  0.00    -0.299 NA
ATOM      6  N   UNL     1      22.142  -6.603  23.690  0.00  0.00    -0.360 N 
ATOM      7  C   UNL     1      18.735  -3.166  24.156  0.00  0.00    +0.085 C 
ATOM      8  C   UNL     1      20.359  -2.904  25.989  0.00  0.00    +0.145 C 
ATOM      9  C   UNL     1      21.707  -3.535  25.646  0.00  0.00    +0.065 C 
ATOM     10  C   UNL     1      19.268  -4.467  23.547  0.00  0.00    -0.021 A 
ATOM     12  C   UNL     1      20.527  -5.061  23.854  0.00  0.00    +0.008 A 
ATOM     13  C   UNL     1      21.607  -4.714  24.736  0.00  0.00    -0.020 A 
ATOM     20  C   UNL     1      20.890  -6.263  23.235  0.00  0.00    +0.047 A 
ATOM     21  C   UNL     1      22.580  -5.683  24.596  0.00  0.00    +0.087 A 
ATOM     22  C   UNL     1      18.431  -5.196  22.666  0.00  0.00    +0.006 A 
ATOM     24  C   UNL     1      20.070  -6.942  22.333  0.00  0.00    +0.026 A 
ATOM     27  C   UNL     1      18.823  -6.392  22.067  0.00  0.00    +0.002 A 
ATOM     30  H   UNL     1      20.430  -1.985  24.151  0.00  0.00    +0.123 HD
ATOM     31  H   UNL     1      22.655  -7.426  23.405  0.00  0.00    +0.165 HD
ENDROOT
BRANCH   8  14
ATOM      1  O   UNL     1      20.952  -0.675  26.494  0.00  0.00    -0.274 OA
ATOM      4  N   UNL     1      20.335  -2.018  28.285  0.00  0.00    -0.298 N 
ATOM      5  N   UNL     1      19.175  -2.140  30.902  0.00  0.00    -0.297 NA
ATOM     14  C   UNL     1      20.578  -1.764  26.936  0.00  0.00    +0.233 C 
ATOM     15  C   UNL     1      19.890  -3.301  28.839  0.00  0.00    +0.123 C 
ATOM     16  C   UNL     1      20.653  -1.002  29.287  0.00  0.00    +0.123 C 
ATOM     18  C   UNL     1      18.772  -3.100  29.864  0.00  0.00    +0.103 C 
ATOM     19  C   UNL     1      19.518  -0.844  30.298  0.00  0.00    +0.103 C 
BRANCH   5  23
ATOM     23  C   UNL     1      18.111  -1.979  31.893  0.00  0.00    +0.112 C 
BRANCH  23  28
ATOM     28  C   UNL     1      17.132  -0.899  31.459  0.00  0.00    +0.174 C 
BRANCH  28   2
ATOM      2  O   UNL     1      16.820  -0.089  32.584  0.00  0.00    -0.382 OA
ATOM     29  C   UNL     1      17.170   1.271  32.360  0.00  0.00    +0.194 C 
ENDBRANCH  28   2
ENDBRANCH  23  28
ENDBRANCH   5  23
ENDBRANCH   8  14
BRANCH   7  11
ATOM     11  C   UNL     1      18.072  -2.252  23.110  0.00  0.00    +0.026 C 
BRANCH  11  17
ATOM     17  C   UNL     1      16.644  -1.850  23.486  0.00  0.00    -0.015 C 
ATOM     25  C   UNL     1      16.501  -1.860  25.011  0.00  0.00    +0.007 C 
ATOM     26  C   UNL     1      15.589  -2.765  22.863  0.00  0.00    +0.007 C 
ENDBRANCH  11  17
ENDBRANCH   7  11
TORSDOF 6
ENDMDL
MODEL 9
REMARK VINA RESULT:      -5.8     25.023     28.787
REMARK  Name = 51137977
REMARK  9 active torsions:
REMARK  status: ('A' for Active; 'I' for Inactive)
REMARK    1  A    between atoms: O_2  and  C_28
REMARK    2  A    between atoms: O_2  and  C_29
REMARK    3  A    between atoms: N_5  and  C_23
REMARK    4  A    between atoms: C_7  and  C_11
REMARK    5  A    between atoms: C_8  and  C_14
REMARK    6  A    between atoms: C_11  and  C_17
REMARK    7  A    between atoms: C_17  and  C_25
REMARK    8  A    between atoms: C_17  and  C_26
REMARK    9  A    between atoms: C_23  and  C_28
REMARK                            x       y       z     vdW  Elec       q    Type
REMARK                         _______ _______ _______ _____ _____    ______ ____
ROOT
ATOM      3  N   UNL     1     -12.220   8.796  21.270  0.00  0.00    -0.299 NA
ATOM      6  N   UNL     1     -10.062   9.358  16.739  0.00  0.00    -0.360 N 
ATOM      7  C   UNL     1     -12.489  10.183  20.870  0.00  0.00    +0.085 C 
ATOM      8  C   UNL     1     -12.679   7.790  20.322  0.00  0.00    +0.145 C 
ATOM      9  C   UNL     1     -11.552   7.329  19.402  0.00  0.00    +0.065 C 
ATOM     10  C   UNL     1     -11.777  10.664  19.602  0.00  0.00    -0.021 A 
ATOM     12  C   UNL     1     -11.177   9.816  18.626  0.00  0.00    +0.008 A 
ATOM     13  C   UNL     1     -11.048   8.392  18.484  0.00  0.00    -0.020 A 
ATOM     20  C   UNL     1     -10.569  10.384  17.501  0.00  0.00    +0.047 A 
ATOM     21  C   UNL     1     -10.349   8.157  17.317  0.00  0.00    +0.087 A 
ATOM     22  C   UNL     1     -11.768  12.053  19.314  0.00  0.00    +0.006 A 
ATOM     24  C   UNL     1     -10.529  11.758  17.259  0.00  0.00    +0.026 A 
ATOM     27  C   UNL     1     -11.153  12.586  18.183  0.00  0.00    +0.002 A 
ATOM     30  H   UNL     1     -11.234   8.666  21.495  0.00  0.00    +0.123 HD
ATOM     31  H   UNL     1      -9.564   9.478  15.868  0.00  0.00    +0.165 HD
ENDROOT
BRANCH   8  14
ATOM      1  O   UNL     1     -12.306   5.793  21.525  0.00  0.00    -0.274 OA
ATOM      4  N   UNL     1     -14.486   6.593  21.489  0.00  0.00    -0.298 N 
ATOM      5  N   UNL     1     -16.999   6.763  22.853  0.00  0.00    -0.297 NA
ATOM     14  C   UNL     1     -13.131   6.635  21.163  0.00  0.00    +0.233 C 
ATOM     15  C   UNL     1     -15.488   7.579  21.074  0.00  0.00    +0.123 C 
ATOM     16  C   UNL     1     -15.031   5.432  22.190  0.00  0.00    +0.123 C 
ATOM     18  C   UNL     1     -16.403   7.959  22.240  0.00  0.00    +0.103 C 
ATOM     19  C   UNL     1     -15.949   5.855  23.336  0.00  0.00    +0.103 C 
BRANCH   5  23
ATOM     23  C   UNL     1     -17.896   7.139  23.946  0.00  0.00    +0.112 C 
BRANCH  23  28
ATOM     28  C   UNL     1     -18.272   5.921  24.774  0.00  0.00    +0.174 C 
BRANCH  28   2
ATOM      2  O   UNL     1     -18.019   6.205  26.144  0.00  0.00    -0.382 OA
ATOM     29  C   UNL     1     -17.341   5.131  26.782  0.00  0.00    +0.194 C 
ENDBRANCH  28   2
ENDBRANCH  23  28
ENDBRANCH   5  23
ENDBRANCH   8  14
BRANCH   7  11
ATOM     11  C   UNL     1     -12.120  11.022  22.108  0.00  0.00    +0.026 C 
BRANCH  11  17
ATOM     17  C   UNL     1     -12.764  10.502  23.396  0.00  0.00    -0.015 C 
ATOM     25  C   UNL     1     -14.247  10.885  23.410  0.00  0.00    +0.007 C 
ATOM     26  C   UNL     1     -12.080  11.038  24.655  0.00  0.00    +0.007 C 
ENDBRANCH  11  17
ENDBRANCH   7  11
TORSDOF 6
ENDMDL
MODEL 10
REMARK VINA RESULT:      -5.7     27.029     30.631
REMARK  Name = 51137977
REMARK  9 active torsions:
REMARK  status: ('A' for Active; 'I' for Inactive)
REMARK    1  A    between atoms: O_2  and  C_28
REMARK    2  A    between atoms: O_2  and  C_29
REMARK    3  A    between atoms: N_5  and  C_23
REMARK    4  A    between atoms: C_7  and  C_11
REMARK    5  A    between atoms: C_8  and  C_14
REMARK    6  A    between atoms: C_11  and  C_17
REMARK    7  A    between atoms: C_17  and  C_25
REMARK    8  A    between atoms: C_17  and  C_26
REMARK    9  A    between atoms: C_23  and  C_28
REMARK                            x       y       z     vdW  Elec       q    Type
REMARK                         _______ _______ _______ _____ _____    ______ ____
ROOT
ATOM      3  N   UNL     1      -6.189  -9.592  15.029  0.00  0.00    -0.299 NA
ATOM      6  N   UNL     1      -1.444 -11.304  15.253  0.00  0.00    -0.360 N 
ATOM      7  C   UNL     1      -5.927 -10.209  13.722  0.00  0.00    +0.085 C 
ATOM      8  C   UNL     1      -5.984 -10.473  16.170  0.00  0.00    +0.145 C 
ATOM      9  C   UNL     1      -4.605 -10.273  16.793  0.00  0.00    +0.065 C 
ATOM     10  C   UNL     1      -4.481 -10.647  13.467  0.00  0.00    -0.021 A 
ATOM     12  C   UNL     1      -3.486 -10.818  14.473  0.00  0.00    +0.008 A 
ATOM     13  C   UNL     1      -3.476 -10.675  15.903  0.00  0.00    -0.020 A 
ATOM     20  C   UNL     1      -2.202 -11.238  14.107  0.00  0.00    +0.047 A 
ATOM     21  C   UNL     1      -2.201 -10.974  16.338  0.00  0.00    +0.087 A 
ATOM     22  C   UNL     1      -4.100 -10.991  12.145  0.00  0.00    +0.006 A 
ATOM     24  C   UNL     1      -1.832 -11.526  12.792  0.00  0.00    +0.026 A 
ATOM     27  C   UNL     1      -2.811 -11.407  11.815  0.00  0.00    +0.002 A 
ATOM     30  H   UNL     1      -5.664  -8.725  15.135  0.00  0.00    +0.123 HD
ATOM     31  H   UNL     1      -0.471 -11.577  15.285  0.00  0.00    +0.165 HD
ENDROOT
BRANCH   8  14
ATOM      1  O   UNL     1      -7.554  -8.964  17.083  0.00  0.00    -0.274 OA
ATOM      4  N   UNL     1      -7.360 -11.026  18.134  0.00  0.00    -0.298 N 
ATOM      5  N   UNL     1      -8.663 -13.066  19.666  0.00  0.00    -0.297 NA
ATOM     14  C   UNL     1      -7.034 -10.079  17.164  0.00  0.00    +0.233 C 
ATOM     15  C   UNL     1      -6.760 -12.357  18.255  0.00  0.00    +0.123 C 
ATOM     16  C   UNL     1      -8.274 -10.671  19.219  0.00  0.00    +0.123 C 
ATOM     18  C   UNL     1      -7.829 -13.423  18.509  0.00  0.00    +0.103 C 
ATOM     19  C   UNL     1      -9.314 -11.766  19.449  0.00  0.00    +0.103 C 
BRANCH   5  23
ATOM     23  C   UNL     1      -9.661 -14.105  19.919  0.00  0.00    +0.112 C 
BRANCH  23  28
ATOM     28  C   UNL     1      -9.528 -14.643  21.335  0.00  0.00    +0.174 C 
BRANCH  28   2
ATOM      2  O   UNL     1      -8.962 -15.946  21.276  0.00  0.00    -0.382 OA
ATOM     29  C   UNL     1      -9.825 -16.915  21.858  0.00  0.00    +0.194 C 
ENDBRANCH  28   2
ENDBRANCH  23  28
ENDBRANCH   5  23
ENDBRANCH   8  14
BRANCH   7  11
ATOM     11  C   UNL     1      -6.419  -9.172  12.697  0.00  0.00    +0.026 C 
BRANCH  11  17
ATOM     17  C   UNL     1      -7.542  -9.702  11.801  0.00  0.00    -0.015 C 
ATOM     25  C   UNL     1      -7.957 -11.095  12.283  0.00  0.00    +0.007 C 
ATOM     26  C   UNL     1      -7.141  -9.764  10.326  0.00  0.00    +0.007 C 
ENDBRANCH  11  17
ENDBRANCH   7  11
TORSDOF 6
ENDMDL
