MODEL 1
REMARK VINA RESULT:      -6.7      0.000      0.000
REMARK  Name = 71693204
REMARK  15 active torsions:
REMARK  status: ('A' for Active; 'I' for Inactive)
REMARK    1  A    between atoms: O_2  and  C_32
REMARK    2  A    between atoms: O_2  and  C_33
REMARK    3  A    between atoms: O_3  and  C_31
REMARK    4  A    between atoms: N_6  and  C_16
REMARK    5  A    between atoms: C_9  and  C_13
REMARK    6  A    between atoms: C_10  and  C_16
REMARK    7  A    between atoms: C_12  and  C_17
REMARK    8  A    between atoms: C_13  and  C_18
REMARK    9  A    between atoms: C_13  and  C_19
REMARK   10  A    between atoms: C_14  and  C_20
REMARK   11  A    between atoms: C_17  and  C_21
REMARK   12  A    between atoms: C_22  and  C_25
REMARK   13  A    between atoms: C_25  and  C_28
REMARK   14  A    between atoms: C_28  and  C_31
REMARK   15  A    between atoms: C_29  and  C_32
REMARK                            x       y       z     vdW  Elec       q    Type
REMARK                         _______ _______ _______ _____ _____    ______ ____
ROOT
ATOM      9  C   UNL     1      12.162   7.514  20.502  0.00  0.00    +0.000 C 
ATOM     10  C   UNL     1      11.849   8.915  19.922  0.00  0.00    +0.032 C 
ATOM     11  C   UNL     1      13.396   7.573  21.414  0.00  0.00    +0.012 C 
ATOM     12  C   UNL     1      14.645   8.084  20.670  0.00  0.00    +0.022 C 
ATOM     14  C   UNL     1      14.346   9.325  19.854  0.00  0.00    -0.073 C 
ATOM     15  C   UNL     1      13.090   9.688  19.541  0.00  0.00    -0.022 C 
ATOM     20  C   UNL     1      15.524  10.165  19.444  0.00  0.00    +0.039 C 
ENDROOT
BRANCH   9  13
ATOM     13  C   UNL     1      10.971   6.940  21.277  0.00  0.00    -0.013 C 
ATOM     18  C   UNL     1      10.626   7.837  22.461  0.00  0.00    +0.007 C 
ATOM     19  C   UNL     1      11.275   5.521  21.745  0.00  0.00    +0.007 C 
ENDBRANCH   9  13
BRANCH  10  16
ATOM     16  C   UNL     1      10.915   8.817  18.710  0.00  0.00    +0.112 C 
BRANCH  16   6
ATOM      1  O   UNL     1      10.239   8.278  15.950  0.00  0.00    -0.276 OA
ATOM      6  N   UNL     1      11.537   9.364  17.545  0.00  0.00    -0.315 N 
ATOM     22  C   UNL     1      11.149   9.050  16.242  0.00  0.00    +0.214 C 
ATOM     34  H   UNL     1      12.266  10.061  17.675  0.00  0.00    +0.149 HD
BRANCH  22  25
ATOM     25  C   UNL     1      11.987   9.778  15.206  0.00  0.00    +0.107 C 
BRANCH  25  28
ATOM     28  C   UNL     1      13.418  10.015  15.676  0.00  0.00    +0.129 C 
BRANCH  28  31
ATOM      4  O   UNL     1      14.200   7.858  16.485  0.00  0.00    -0.251 OA
ATOM     31  C   UNL     1      14.240   8.748  15.647  0.00  0.00    +0.305 C 
BRANCH  31   3
ATOM      3  O   UNL     1      15.051   8.707  14.558  0.00  0.00    -0.481 OA
ATOM     36  H   UNL     1      15.021   9.544  14.047  0.00  0.00    +0.295 HD
ENDBRANCH  31   3
ENDBRANCH  28  31
ENDBRANCH  25  28
ENDBRANCH  22  25
ENDBRANCH  16   6
ENDBRANCH  10  16
BRANCH  12  17
ATOM     17  C   UNL     1      15.255   6.985  19.794  0.00  0.00    +0.082 C 
BRANCH  17  21
ATOM      7  N   UNL     1      17.182   7.148  21.381  0.00  0.00    -0.342 N 
ATOM      8  N   UNL     1      17.531   5.932  19.555  0.00  0.00    -0.232 NA
ATOM     21  C   UNL     1      16.663   6.667  20.212  0.00  0.00    +0.109 A 
ATOM     23  C   UNL     1      18.471   6.694  21.485  0.00  0.00    +0.067 A 
ATOM     24  C   UNL     1      18.665   5.937  20.333  0.00  0.00    +0.089 A 
ATOM     26  C   UNL     1      19.455   6.874  22.459  0.00  0.00    +0.042 A 
ATOM     27  C   UNL     1      19.908   5.316  20.122  0.00  0.00    +0.030 A 
ATOM     29  C   UNL     1      20.686   6.248  22.233  0.00  0.00    +0.061 A 
ATOM     30  C   UNL     1      20.910   5.483  21.086  0.00  0.00    +0.017 A 
ATOM     35  H   UNL     1      16.703   7.734  22.053  0.00  0.00    +0.167 HD
BRANCH  29  32
ATOM      5  O   UNL     1      22.520   7.368  23.264  0.00  0.00    -0.245 OA
ATOM     32  C   UNL     1      21.751   6.399  23.212  0.00  0.00    +0.339 C 
BRANCH  32   2
ATOM      2  O   UNL     1      21.798   5.337  24.072  0.00  0.00    -0.464 OA
ATOM     33  C   UNL     1      22.489   5.538  25.310  0.00  0.00    +0.280 C 
ENDBRANCH  32   2
ENDBRANCH  29  32
ENDBRANCH  17  21
ENDBRANCH  12  17
TORSDOF 11
ENDMDL
MODEL 2
REMARK VINA RESULT:      -6.7      2.792      4.300
REMARK  Name = 71693204
REMARK  15 active torsions:
REMARK  status: ('A' for Active; 'I' for Inactive)
REMARK    1  A    between atoms: O_2  and  C_32
REMARK    2  A    between atoms: O_2  and  C_33
REMARK    3  A    between atoms: O_3  and  C_31
REMARK    4  A    between atoms: N_6  and  C_16
REMARK    5  A    between atoms: C_9  and  C_13
REMARK    6  A    between atoms: C_10  and  C_16
REMARK    7  A    between atoms: C_12  and  C_17
REMARK    8  A    between atoms: C_13  and  C_18
REMARK    9  A    between atoms: C_13  and  C_19
REMARK   10  A    between atoms: C_14  and  C_20
REMARK   11  A    between atoms: C_17  and  C_21
REMARK   12  A    between atoms: C_22  and  C_25
REMARK   13  A    between atoms: C_25  and  C_28
REMARK   14  A    between atoms: C_28  and  C_31
REMARK   15  A    between atoms: C_29  and  C_32
REMARK                            x       y       z     vdW  Elec       q    Type
REMARK                         _______ _______ _______ _____ _____    ______ ____
ROOT
ATOM      9  C   UNL     1      14.375  11.132  21.698  0.00  0.00    +0.000 C 
ATOM     10  C   UNL     1      13.384  11.702  20.654  0.00  0.00    +0.032 C 
ATOM     11  C   UNL     1      15.690  10.718  21.020  0.00  0.00    +0.012 C 
ATOM     12  C   UNL     1      15.471   9.657  19.925  0.00  0.00    +0.022 C 
ATOM     14  C   UNL     1      14.323  10.024  19.007  0.00  0.00    -0.073 C 
ATOM     15  C   UNL     1      13.407  10.950  19.343  0.00  0.00    -0.022 C 
ATOM     20  C   UNL     1      14.276   9.334  17.672  0.00  0.00    +0.039 C 
ENDROOT
BRANCH   9  13
ATOM     13  C   UNL     1      14.663  12.137  22.818  0.00  0.00    -0.013 C 
ATOM     18  C   UNL     1      16.065  12.717  22.664  0.00  0.00    +0.007 C 
ATOM     19  C   UNL     1      14.498  11.476  24.182  0.00  0.00    +0.007 C 
ENDBRANCH   9  13
BRANCH  10  16
ATOM     16  C   UNL     1      11.953  11.725  21.204  0.00  0.00    +0.112 C 
BRANCH  16   6
ATOM      1  O   UNL     1      11.145  10.271  23.571  0.00  0.00    -0.276 OA
ATOM      6  N   UNL     1      11.411  10.404  21.264  0.00  0.00    -0.315 N 
ATOM     22  C   UNL     1      11.045   9.771  22.453  0.00  0.00    +0.214 C 
ATOM     34  H   UNL     1      11.232   9.921  20.387  0.00  0.00    +0.149 HD
BRANCH  22  25
ATOM     25  C   UNL     1      10.501   8.375  22.212  0.00  0.00    +0.107 C 
BRANCH  25  28
ATOM     28  C   UNL     1      11.155   7.692  21.016  0.00  0.00    +0.129 C 
BRANCH  28  31
ATOM      4  O   UNL     1      10.763   5.331  21.454  0.00  0.00    -0.251 OA
ATOM     31  C   UNL     1      11.543   6.264  21.321  0.00  0.00    +0.305 C 
BRANCH  31   3
ATOM      3  O   UNL     1      12.889   6.128  21.435  0.00  0.00    -0.481 OA
ATOM     36  H   UNL     1      13.353   6.987  21.337  0.00  0.00    +0.295 HD
ENDBRANCH  31   3
ENDBRANCH  28  31
ENDBRANCH  25  28
ENDBRANCH  22  25
ENDBRANCH  16   6
ENDBRANCH  10  16
BRANCH  12  17
ATOM     17  C   UNL     1      15.264   8.267  20.535  0.00  0.00    +0.082 C 
BRANCH  17  21
ATOM      7  N   UNL     1      17.402   7.679  21.693  0.00  0.00    -0.342 N 
ATOM      8  N   UNL     1      17.027   6.642  19.765  0.00  0.00    -0.232 NA
ATOM     21  C   UNL     1      16.559   7.511  20.631  0.00  0.00    +0.109 A 
ATOM     23  C   UNL     1      18.487   6.864  21.500  0.00  0.00    +0.067 A 
ATOM     24  C   UNL     1      18.230   6.227  20.290  0.00  0.00    +0.089 A 
ATOM     26  C   UNL     1      19.637   6.636  22.257  0.00  0.00    +0.042 A 
ATOM     27  C   UNL     1      19.164   5.305  19.788  0.00  0.00    +0.030 A 
ATOM     29  C   UNL     1      20.556   5.714  21.743  0.00  0.00    +0.061 A 
ATOM     30  C   UNL     1      20.325   5.060  20.531  0.00  0.00    +0.017 A 
ATOM     35  H   UNL     1      17.254   8.294  22.484  0.00  0.00    +0.167 HD
BRANCH  29  32
ATOM      5  O   UNL     1      21.802   5.035  23.659  0.00  0.00    -0.245 OA
ATOM     32  C   UNL     1      21.774   5.435  22.488  0.00  0.00    +0.339 C 
BRANCH  32   2
ATOM      2  O   UNL     1      22.890   5.669  21.732  0.00  0.00    -0.464 OA
ATOM     33  C   UNL     1      24.059   6.116  22.427  0.00  0.00    +0.280 C 
ENDBRANCH  32   2
ENDBRANCH  29  32
ENDBRANCH  17  21
ENDBRANCH  12  17
TORSDOF 11
ENDMDL
MODEL 3
REMARK VINA RESULT:      -6.4     13.882     18.793
REMARK  Name = 71693204
REMARK  15 active torsions:
REMARK  status: ('A' for Active; 'I' for Inactive)
REMARK    1  A    between atoms: O_2  and  C_32
REMARK    2  A    between atoms: O_2  and  C_33
REMARK    3  A    between atoms: O_3  and  C_31
REMARK    4  A    between atoms: N_6  and  C_16
REMARK    5  A    between atoms: C_9  and  C_13
REMARK    6  A    between atoms: C_10  and  C_16
REMARK    7  A    between atoms: C_12  and  C_17
REMARK    8  A    between atoms: C_13  and  C_18
REMARK    9  A    between atoms: C_13  and  C_19
REMARK   10  A    between atoms: C_14  and  C_20
REMARK   11  A    between atoms: C_17  and  C_21
REMARK   12  A    between atoms: C_22  and  C_25
REMARK   13  A    between atoms: C_25  and  C_28
REMARK   14  A    between atoms: C_28  and  C_31
REMARK   15  A    between atoms: C_29  and  C_32
REMARK                            x       y       z     vdW  Elec       q    Type
REMARK                         _______ _______ _______ _____ _____    ______ ____
ROOT
ATOM      9  C   UNL     1       8.686   8.550   5.134  0.00  0.00    +0.000 C 
ATOM     10  C   UNL     1       8.435   7.791   6.460  0.00  0.00    +0.032 C 
ATOM     11  C   UNL     1       8.441   7.627   3.932  0.00  0.00    +0.012 C 
ATOM     12  C   UNL     1       9.348   6.381   3.960  0.00  0.00    +0.022 C 
ATOM     14  C   UNL     1       9.360   5.725   5.326  0.00  0.00    -0.073 C 
ATOM     15  C   UNL     1       8.936   6.365   6.430  0.00  0.00    -0.022 C 
ATOM     20  C   UNL     1       9.830   4.298   5.387  0.00  0.00    +0.039 C 
ENDROOT
BRANCH   9  13
ATOM     13  C   UNL     1       7.806   9.799   5.017  0.00  0.00    -0.013 C 
ATOM     18  C   UNL     1       6.797   9.633   3.885  0.00  0.00    +0.007 C 
ATOM     19  C   UNL     1       8.666  11.038   4.797  0.00  0.00    +0.007 C 
ENDBRANCH   9  13
BRANCH  10  16
ATOM     16  C   UNL     1       9.063   8.528   7.648  0.00  0.00    +0.112 C 
BRANCH  16   6
ATOM      1  O   UNL     1      10.734  10.886   7.516  0.00  0.00    -0.276 OA
ATOM      6  N   UNL     1      10.486   8.574   7.521  0.00  0.00    -0.315 N 
ATOM     22  C   UNL     1      11.220   9.759   7.464  0.00  0.00    +0.214 C 
ATOM     34  H   UNL     1      10.994   7.693   7.528  0.00  0.00    +0.149 HD
BRANCH  22  25
ATOM     25  C   UNL     1      12.710   9.503   7.329  0.00  0.00    +0.107 C 
BRANCH  25  28
ATOM     28  C   UNL     1      13.047   8.656   6.106  0.00  0.00    +0.129 C 
BRANCH  28  31
ATOM      4  O   UNL     1      14.825   7.091   6.668  0.00  0.00    -0.251 OA
ATOM     31  C   UNL     1      13.635   7.317   6.490  0.00  0.00    +0.305 C 
BRANCH  31   3
ATOM      3  O   UNL     1      12.672   6.369   6.618  0.00  0.00    -0.481 OA
ATOM     36  H   UNL     1      12.480   6.167   7.558  0.00  0.00    +0.295 HD
ENDBRANCH  31   3
ENDBRANCH  28  31
ENDBRANCH  25  28
ENDBRANCH  22  25
ENDBRANCH  16   6
ENDBRANCH  10  16
BRANCH  12  17
ATOM     17  C   UNL     1      10.769   6.721   3.502  0.00  0.00    +0.082 C 
BRANCH  17  21
ATOM      7  N   UNL     1      10.459   5.624   1.275  0.00  0.00    -0.342 N 
ATOM      8  N   UNL     1      12.338   5.123   2.350  0.00  0.00    -0.232 NA
ATOM     21  C   UNL     1      11.221   5.813   2.393  0.00  0.00    +0.109 A 
ATOM     23  C   UNL     1      11.128   4.752   0.455  0.00  0.00    +0.067 A 
ATOM     24  C   UNL     1      12.297   4.454   1.147  0.00  0.00    +0.089 A 
ATOM     26  C   UNL     1      10.819   4.216  -0.796  0.00  0.00    +0.042 A 
ATOM     27  C   UNL     1      13.227   3.569   0.574  0.00  0.00    +0.030 A 
ATOM     29  C   UNL     1      11.756   3.337  -1.352  0.00  0.00    +0.061 A 
ATOM     30  C   UNL     1      12.938   3.019  -0.680  0.00  0.00    +0.017 A 
ATOM     35  H   UNL     1       9.561   6.050   1.083  0.00  0.00    +0.167 HD
BRANCH  29  32
ATOM      5  O   UNL     1      12.297   2.728  -3.593  0.00  0.00    -0.245 OA
ATOM     32  C   UNL     1      11.489   2.746  -2.654  0.00  0.00    +0.339 C 
BRANCH  32   2
ATOM      2  O   UNL     1      10.233   2.209  -2.715  0.00  0.00    -0.464 OA
ATOM     33  C   UNL     1       9.498   2.420  -3.925  0.00  0.00    +0.280 C 
ENDBRANCH  32   2
ENDBRANCH  29  32
ENDBRANCH  17  21
ENDBRANCH  12  17
TORSDOF 11
ENDMDL
MODEL 4
REMARK VINA RESULT:      -6.2     13.645     17.469
REMARK  Name = 71693204
REMARK  15 active torsions:
REMARK  status: ('A' for Active; 'I' for Inactive)
REMARK    1  A    between atoms: O_2  and  C_32
REMARK    2  A    between atoms: O_2  and  C_33
REMARK    3  A    between atoms: O_3  and  C_31
REMARK    4  A    between atoms: N_6  and  C_16
REMARK    5  A    between atoms: C_9  and  C_13
REMARK    6  A    between atoms: C_10  and  C_16
REMARK    7  A    between atoms: C_12  and  C_17
REMARK    8  A    between atoms: C_13  and  C_18
REMARK    9  A    between atoms: C_13  and  C_19
REMARK   10  A    between atoms: C_14  and  C_20
REMARK   11  A    between atoms: C_17  and  C_21
REMARK   12  A    between atoms: C_22  and  C_25
REMARK   13  A    between atoms: C_25  and  C_28
REMARK   14  A    between atoms: C_28  and  C_31
REMARK   15  A    between atoms: C_29  and  C_32
REMARK                            x       y       z     vdW  Elec       q    Type
REMARK                         _______ _______ _______ _____ _____    ______ ____
ROOT
ATOM      9  C   UNL     1       9.100   8.217   5.041  0.00  0.00    +0.000 C 
ATOM     10  C   UNL     1       8.707   8.995   6.322  0.00  0.00    +0.032 C 
ATOM     11  C   UNL     1       8.555   6.783   5.097  0.00  0.00    +0.012 C 
ATOM     12  C   UNL     1       9.082   6.007   6.320  0.00  0.00    +0.022 C 
ATOM     14  C   UNL     1       8.973   6.822   7.592  0.00  0.00    -0.073 C 
ATOM     15  C   UNL     1       8.792   8.154   7.574  0.00  0.00    -0.022 C 
ATOM     20  C   UNL     1       9.031   6.063   8.889  0.00  0.00    +0.039 C 
ENDROOT
BRANCH   9  13
ATOM     13  C   UNL     1       8.595   8.915   3.774  0.00  0.00    -0.013 C 
ATOM     18  C   UNL     1       7.121   9.279   3.920  0.00  0.00    +0.007 C 
ATOM     19  C   UNL     1       8.814   8.027   2.554  0.00  0.00    +0.007 C 
ENDBRANCH   9  13
BRANCH  10  16
ATOM     16  C   UNL     1       9.567  10.253   6.491  0.00  0.00    +0.112 C 
BRANCH  16   6
ATOM      1  O   UNL     1      11.617  10.605   8.502  0.00  0.00    -0.276 OA
ATOM      6  N   UNL     1      10.956   9.936   6.374  0.00  0.00    -0.315 N 
ATOM     22  C   UNL     1      11.884  10.138   7.397  0.00  0.00    +0.214 C 
ATOM     34  H   UNL     1      11.274   9.490   5.518  0.00  0.00    +0.149 HD
BRANCH  22  25
ATOM     25  C   UNL     1      13.284   9.713   6.991  0.00  0.00    +0.107 C 
BRANCH  25  28
ATOM     28  C   UNL     1      13.277   8.523   6.038  0.00  0.00    +0.129 C 
BRANCH  28  31
ATOM      4  O   UNL     1      15.523   7.678   6.448  0.00  0.00    -0.251 OA
ATOM     31  C   UNL     1      14.314   7.490   6.416  0.00  0.00    +0.305 C 
BRANCH  31   3
ATOM      3  O   UNL     1      13.740   6.298   6.723  0.00  0.00    -0.481 OA
ATOM     36  H   UNL     1      13.329   6.309   7.614  0.00  0.00    +0.295 HD
ENDBRANCH  31   3
ENDBRANCH  28  31
ENDBRANCH  25  28
ENDBRANCH  22  25
ENDBRANCH  16   6
ENDBRANCH  10  16
BRANCH  12  17
ATOM     17  C   UNL     1      10.520   5.531   6.095  0.00  0.00    +0.082 C 
BRANCH  17  21
ATOM      7  N   UNL     1      11.872   5.891   4.021  0.00  0.00    -0.342 N 
ATOM      8  N   UNL     1      10.104   4.563   3.807  0.00  0.00    -0.232 NA
ATOM     21  C   UNL     1      10.802   5.305   4.636  0.00  0.00    +0.109 A 
ATOM     23  C   UNL     1      11.865   5.501   2.707  0.00  0.00    +0.067 A 
ATOM     24  C   UNL     1      10.753   4.673   2.598  0.00  0.00    +0.089 A 
ATOM     26  C   UNL     1      12.712   5.793   1.636  0.00  0.00    +0.042 A 
ATOM     27  C   UNL     1      10.449   4.092   1.355  0.00  0.00    +0.030 A 
ATOM     29  C   UNL     1      12.395   5.206   0.406  0.00  0.00    +0.061 A 
ATOM     30  C   UNL     1      11.285   4.371   0.266  0.00  0.00    +0.017 A 
ATOM     35  H   UNL     1      12.552   6.503   4.456  0.00  0.00    +0.167 HD
BRANCH  29  32
ATOM      5  O   UNL     1      12.816   5.762  -1.874  0.00  0.00    -0.245 OA
ATOM     32  C   UNL     1      13.241   5.473  -0.748  0.00  0.00    +0.339 C 
BRANCH  32   2
ATOM      2  O   UNL     1      14.568   5.368  -0.433  0.00  0.00    -0.464 OA
ATOM     33  C   UNL     1      15.288   4.283  -1.029  0.00  0.00    +0.280 C 
ENDBRANCH  32   2
ENDBRANCH  29  32
ENDBRANCH  17  21
ENDBRANCH  12  17
TORSDOF 11
ENDMDL
MODEL 5
REMARK VINA RESULT:      -6.2     26.473     30.462
REMARK  Name = 71693204
REMARK  15 active torsions:
REMARK  status: ('A' for Active; 'I' for Inactive)
REMARK    1  A    between atoms: O_2  and  C_32
REMARK    2  A    between atoms: O_2  and  C_33
REMARK    3  A    between atoms: O_3  and  C_31
REMARK    4  A    between atoms: N_6  and  C_16
REMARK    5  A    between atoms: C_9  and  C_13
REMARK    6  A    between atoms: C_10  and  C_16
REMARK    7  A    between atoms: C_12  and  C_17
REMARK    8  A    between atoms: C_13  and  C_18
REMARK    9  A    between atoms: C_13  and  C_19
REMARK   10  A    between atoms: C_14  and  C_20
REMARK   11  A    between atoms: C_17  and  C_21
REMARK   12  A    between atoms: C_22  and  C_25
REMARK   13  A    between atoms: C_25  and  C_28
REMARK   14  A    between atoms: C_28  and  C_31
REMARK   15  A    between atoms: C_29  and  C_32
REMARK                            x       y       z     vdW  Elec       q    Type
REMARK                         _______ _______ _______ _____ _____    ______ ____
ROOT
ATOM      9  C   UNL     1      -5.807 -10.660  17.745  0.00  0.00    +0.000 C 
ATOM     10  C   UNL     1      -5.177 -10.990  16.369  0.00  0.00    +0.032 C 
ATOM     11  C   UNL     1      -7.315 -10.950  17.728  0.00  0.00    +0.012 C 
ATOM     12  C   UNL     1      -8.052 -10.136  16.646  0.00  0.00    +0.022 C 
ATOM     14  C   UNL     1      -7.336 -10.196  15.313  0.00  0.00    -0.073 C 
ATOM     15  C   UNL     1      -6.056 -10.593  15.206  0.00  0.00    -0.022 C 
ATOM     20  C   UNL     1      -8.141  -9.832  14.095  0.00  0.00    +0.039 C 
ENDROOT
BRANCH   9  13
ATOM     13  C   UNL     1      -5.141 -11.446  18.879  0.00  0.00    -0.013 C 
ATOM     18  C   UNL     1      -4.910 -12.894  18.458  0.00  0.00    +0.007 C 
ATOM     19  C   UNL     1      -5.991 -11.380  20.143  0.00  0.00    +0.007 C 
ENDBRANCH   9  13
BRANCH  10  16
ATOM     16  C   UNL     1      -3.801 -10.332  16.219  0.00  0.00    +0.112 C 
BRANCH  16   6
ATOM      1  O   UNL     1      -1.223 -11.106  15.160  0.00  0.00    -0.276 OA
ATOM      6  N   UNL     1      -3.390 -10.322  14.850  0.00  0.00    -0.315 N 
ATOM     22  C   UNL     1      -2.121 -10.713  14.420  0.00  0.00    +0.214 C 
ATOM     34  H   UNL     1      -4.079 -10.068  14.146  0.00  0.00    +0.149 HD
BRANCH  22  25
ATOM     25  C   UNL     1      -1.968 -10.599  12.914  0.00  0.00    +0.107 C 
BRANCH  25  28
ATOM     28  C   UNL     1      -3.241 -10.980  12.168  0.00  0.00    +0.129 C 
BRANCH  28  31
ATOM      4  O   UNL     1      -3.011  -9.436  10.301  0.00  0.00    -0.251 OA
ATOM     31  C   UNL     1      -3.684  -9.895  11.213  0.00  0.00    +0.305 C 
BRANCH  31   3
ATOM      3  O   UNL     1      -4.946  -9.475  11.489  0.00  0.00    -0.481 OA
ATOM     36  H   UNL     1      -5.589 -10.217  11.479  0.00  0.00    +0.295 HD
ENDBRANCH  31   3
ENDBRANCH  28  31
ENDBRANCH  25  28
ENDBRANCH  22  25
ENDBRANCH  16   6
ENDBRANCH  10  16
BRANCH  12  17
ATOM     17  C   UNL     1      -8.261  -8.686  17.092  0.00  0.00    +0.082 C 
BRANCH  17  21
ATOM      7  N   UNL     1      -9.652  -7.090  15.758  0.00  0.00    -0.342 N 
ATOM      8  N   UNL     1     -10.774  -8.599  16.942  0.00  0.00    -0.232 NA
ATOM     21  C   UNL     1      -9.582  -8.150  16.617  0.00  0.00    +0.109 A 
ATOM     23  C   UNL     1     -10.976  -6.837  15.511  0.00  0.00    +0.067 A 
ATOM     24  C   UNL     1     -11.657  -7.791  16.261  0.00  0.00    +0.089 A 
ATOM     26  C   UNL     1     -11.618  -5.883  14.719  0.00  0.00    +0.042 A 
ATOM     27  C   UNL     1     -13.062  -7.812  16.233  0.00  0.00    +0.030 A 
ATOM     29  C   UNL     1     -13.017  -5.918  14.703  0.00  0.00    +0.061 A 
ATOM     30  C   UNL     1     -13.727  -6.864  15.446  0.00  0.00    +0.017 A 
ATOM     35  H   UNL     1      -8.867  -6.582  15.370  0.00  0.00    +0.167 HD
BRANCH  29  32
ATOM      5  O   UNL     1     -13.241  -3.924  13.415  0.00  0.00    -0.245 OA
ATOM     32  C   UNL     1     -13.743  -4.949  13.896  0.00  0.00    +0.339 C 
BRANCH  32   2
ATOM      2  O   UNL     1     -15.052  -5.309  13.734  0.00  0.00    -0.464 OA
ATOM     33  C   UNL     1     -15.518  -5.462  12.389  0.00  0.00    +0.280 C 
ENDBRANCH  32   2
ENDBRANCH  29  32
ENDBRANCH  17  21
ENDBRANCH  12  17
TORSDOF 11
ENDMDL
MODEL 6
REMARK VINA RESULT:      -6.1     26.508     30.769
REMARK  Name = 71693204
REMARK  15 active torsions:
REMARK  status: ('A' for Active; 'I' for Inactive)
REMARK    1  A    between atoms: O_2  and  C_32
REMARK    2  A    between atoms: O_2  and  C_33
REMARK    3  A    between atoms: O_3  and  C_31
REMARK    4  A    between atoms: N_6  and  C_16
REMARK    5  A    between atoms: C_9  and  C_13
REMARK    6  A    between atoms: C_10  and  C_16
REMARK    7  A    between atoms: C_12  and  C_17
REMARK    8  A    between atoms: C_13  and  C_18
REMARK    9  A    between atoms: C_13  and  C_19
REMARK   10  A    between atoms: C_14  and  C_20
REMARK   11  A    between atoms: C_17  and  C_21
REMARK   12  A    between atoms: C_22  and  C_25
REMARK   13  A    between atoms: C_25  and  C_28
REMARK   14  A    between atoms: C_28  and  C_31
REMARK   15  A    between atoms: C_29  and  C_32
REMARK                            x       y       z     vdW  Elec       q    Type
REMARK                         _______ _______ _______ _____ _____    ______ ____
ROOT
ATOM      9  C   UNL     1     -14.983   7.870  21.198  0.00  0.00    +0.000 C 
ATOM     10  C   UNL     1     -13.528   7.774  20.676  0.00  0.00    +0.032 C 
ATOM     11  C   UNL     1     -15.052   7.456  22.675  0.00  0.00    +0.012 C 
ATOM     12  C   UNL     1     -14.545   6.018  22.901  0.00  0.00    +0.022 C 
ATOM     14  C   UNL     1     -13.233   5.765  22.188  0.00  0.00    -0.073 C 
ATOM     15  C   UNL     1     -12.788   6.568  21.205  0.00  0.00    -0.022 C 
ATOM     20  C   UNL     1     -12.420   4.592  22.661  0.00  0.00    +0.039 C 
ENDROOT
BRANCH   9  13
ATOM     13  C   UNL     1     -15.558   9.280  21.027  0.00  0.00    -0.013 C 
ATOM     18  C   UNL     1     -14.847  10.259  21.956  0.00  0.00    +0.007 C 
ATOM     19  C   UNL     1     -17.060   9.278  21.291  0.00  0.00    +0.007 C 
ENDBRANCH   9  13
BRANCH  10  16
ATOM     16  C   UNL     1     -13.489   7.767  19.144  0.00  0.00    +0.112 C 
BRANCH  16   6
ATOM      1  O   UNL     1     -12.110  10.310  19.200  0.00  0.00    -0.276 OA
ATOM      6  N   UNL     1     -12.170   8.046  18.669  0.00  0.00    -0.315 N 
ATOM     22  C   UNL     1     -11.575   9.307  18.733  0.00  0.00    +0.214 C 
ATOM     34  H   UNL     1     -11.616   7.271  18.314  0.00  0.00    +0.149 HD
BRANCH  22  25
ATOM     25  C   UNL     1     -10.172   9.307  18.154  0.00  0.00    +0.107 C 
BRANCH  25  28
ATOM     28  C   UNL     1     -10.141   9.778  16.704  0.00  0.00    +0.129 C 
BRANCH  28  31
ATOM      4  O   UNL     1     -10.913   8.811  14.608  0.00  0.00    -0.251 OA
ATOM     31  C   UNL     1     -10.470   8.663  15.739  0.00  0.00    +0.305 C 
BRANCH  31   3
ATOM      3  O   UNL     1     -10.212   7.444  16.281  0.00  0.00    -0.481 OA
ATOM     36  H   UNL     1      -9.253   7.308  16.436  0.00  0.00    +0.295 HD
ENDBRANCH  31   3
ENDBRANCH  28  31
ENDBRANCH  25  28
ENDBRANCH  22  25
ENDBRANCH  16   6
ENDBRANCH  10  16
BRANCH  12  17
ATOM     17  C   UNL     1     -15.602   4.989  22.488  0.00  0.00    +0.082 C 
BRANCH  17  21
ATOM      7  N   UNL     1     -15.726   4.404  24.917  0.00  0.00    -0.342 N 
ATOM      8  N   UNL     1     -16.392   2.824  23.505  0.00  0.00    -0.232 NA
ATOM     21  C   UNL     1     -15.918   4.045  23.613  0.00  0.00    +0.109 A 
ATOM     23  C   UNL     1     -16.100   3.345  25.703  0.00  0.00    +0.067 A 
ATOM     24  C   UNL     1     -16.512   2.372  24.799  0.00  0.00    +0.089 A 
ATOM     26  C   UNL     1     -16.114   3.162  27.087  0.00  0.00    +0.042 A 
ATOM     27  C   UNL     1     -16.968   1.134  25.284  0.00  0.00    +0.030 A 
ATOM     29  C   UNL     1     -16.571   1.923  27.553  0.00  0.00    +0.061 A 
ATOM     30  C   UNL     1     -16.990   0.927  26.669  0.00  0.00    +0.017 A 
ATOM     35  H   UNL     1     -15.372   5.293  25.247  0.00  0.00    +0.167 HD
BRANCH  29  32
ATOM      5  O   UNL     1     -16.885   2.527  29.838  0.00  0.00    -0.245 OA
ATOM     32  C   UNL     1     -16.608   1.673  28.985  0.00  0.00    +0.339 C 
BRANCH  32   2
ATOM      2  O   UNL     1     -16.296   0.373  29.276  0.00  0.00    -0.464 OA
ATOM     33  C   UNL     1     -15.344   0.156  30.323  0.00  0.00    +0.280 C 
ENDBRANCH  32   2
ENDBRANCH  29  32
ENDBRANCH  17  21
ENDBRANCH  12  17
TORSDOF 11
ENDMDL
MODEL 7
REMARK VINA RESULT:      -6.0     27.302     29.658
REMARK  Name = 71693204
REMARK  15 active torsions:
REMARK  status: ('A' for Active; 'I' for Inactive)
REMARK    1  A    between atoms: O_2  and  C_32
REMARK    2  A    between atoms: O_2  and  C_33
REMARK    3  A    between atoms: O_3  and  C_31
REMARK    4  A    between atoms: N_6  and  C_16
REMARK    5  A    between atoms: C_9  and  C_13
REMARK    6  A    between atoms: C_10  and  C_16
REMARK    7  A    between atoms: C_12  and  C_17
REMARK    8  A    between atoms: C_13  and  C_18
REMARK    9  A    between atoms: C_13  and  C_19
REMARK   10  A    between atoms: C_14  and  C_20
REMARK   11  A    between atoms: C_17  and  C_21
REMARK   12  A    between atoms: C_22  and  C_25
REMARK   13  A    between atoms: C_25  and  C_28
REMARK   14  A    between atoms: C_28  and  C_31
REMARK   15  A    between atoms: C_29  and  C_32
REMARK                            x       y       z     vdW  Elec       q    Type
REMARK                         _______ _______ _______ _____ _____    ______ ____
ROOT
ATOM      9  C   UNL     1      -6.659  -9.576   9.752  0.00  0.00    +0.000 C 
ATOM     10  C   UNL     1      -5.659  -9.191   8.634  0.00  0.00    +0.032 C 
ATOM     11  C   UNL     1      -6.216  -8.980  11.096  0.00  0.00    +0.012 C 
ATOM     12  C   UNL     1      -4.812  -9.460  11.511  0.00  0.00    +0.022 C 
ATOM     14  C   UNL     1      -3.823  -9.360  10.368  0.00  0.00    -0.073 C 
ATOM     15  C   UNL     1      -4.219  -9.227   9.090  0.00  0.00    -0.022 C 
ATOM     20  C   UNL     1      -2.364  -9.372  10.732  0.00  0.00    +0.039 C 
ENDROOT
BRANCH   9  13
ATOM     13  C   UNL     1      -8.084  -9.116   9.424  0.00  0.00    -0.013 C 
ATOM     18  C   UNL     1      -8.086  -7.646   9.017  0.00  0.00    +0.007 C 
ATOM     19  C   UNL     1      -9.005  -9.348  10.617  0.00  0.00    +0.007 C 
ENDBRANCH   9  13
BRANCH  10  16
ATOM     16  C   UNL     1      -5.829 -10.093   7.405  0.00  0.00    +0.112 C 
BRANCH  16   6
ATOM      1  O   UNL     1      -8.374  -9.708   6.084  0.00  0.00    -0.276 OA
ATOM      6  N   UNL     1      -6.086  -9.313   6.236  0.00  0.00    -0.315 N 
ATOM     22  C   UNL     1      -7.350  -9.178   5.658  0.00  0.00    +0.214 C 
ATOM     34  H   UNL     1      -5.316  -8.784   5.835  0.00  0.00    +0.149 HD
BRANCH  22  25
ATOM     25  C   UNL     1      -7.324  -8.292   4.426  0.00  0.00    +0.107 C 
BRANCH  25  28
ATOM     28  C   UNL     1      -8.595  -8.415   3.593  0.00  0.00    +0.129 C 
BRANCH  28  31
ATOM      4  O   UNL     1     -10.294  -6.672   3.551  0.00  0.00    -0.251 OA
ATOM     31  C   UNL     1      -9.176  -7.064   3.244  0.00  0.00    +0.305 C 
BRANCH  31   3
ATOM      3  O   UNL     1      -8.295  -6.313   2.534  0.00  0.00    -0.481 OA
ATOM     36  H   UNL     1      -7.906  -6.815   1.786  0.00  0.00    +0.295 HD
ENDBRANCH  31   3
ENDBRANCH  28  31
ENDBRANCH  25  28
ENDBRANCH  22  25
ENDBRANCH  16   6
ENDBRANCH  10  16
BRANCH  12  17
ATOM     17  C   UNL     1      -4.859 -10.884  12.074  0.00  0.00    +0.082 C 
BRANCH  17  21
ATOM      7  N   UNL     1      -6.076 -10.798  14.258  0.00  0.00    -0.342 N 
ATOM      8  N   UNL     1      -3.863 -10.949  14.387  0.00  0.00    -0.232 NA
ATOM     21  C   UNL     1      -4.895 -10.879  13.576  0.00  0.00    +0.109 A 
ATOM     23  C   UNL     1      -5.789 -10.816  15.598  0.00  0.00    +0.067 A 
ATOM     24  C   UNL     1      -4.401 -10.911  15.653  0.00  0.00    +0.089 A 
ATOM     26  C   UNL     1      -6.599 -10.759  16.734  0.00  0.00    +0.042 A 
ATOM     27  C   UNL     1      -3.766 -10.952  16.906  0.00  0.00    +0.030 A 
ATOM     29  C   UNL     1      -5.949 -10.802  17.973  0.00  0.00    +0.061 A 
ATOM     30  C   UNL     1      -4.559 -10.897  18.059  0.00  0.00    +0.017 A 
ATOM     35  H   UNL     1      -7.000 -10.736  13.850  0.00  0.00    +0.167 HD
BRANCH  29  32
ATOM      5  O   UNL     1      -6.275 -10.854  20.334  0.00  0.00    -0.245 OA
ATOM     32  C   UNL     1      -6.741 -10.746  19.192  0.00  0.00    +0.339 C 
BRANCH  32   2
ATOM      2  O   UNL     1      -8.068 -10.559  18.921  0.00  0.00    -0.464 OA
ATOM     33  C   UNL     1      -8.993 -11.421  19.593  0.00  0.00    +0.280 C 
ENDBRANCH  32   2
ENDBRANCH  29  32
ENDBRANCH  17  21
ENDBRANCH  12  17
TORSDOF 11
ENDMDL
MODEL 8
REMARK VINA RESULT:      -6.0     26.385     30.007
REMARK  Name = 71693204
REMARK  15 active torsions:
REMARK  status: ('A' for Active; 'I' for Inactive)
REMARK    1  A    between atoms: O_2  and  C_32
REMARK    2  A    between atoms: O_2  and  C_33
REMARK    3  A    between atoms: O_3  and  C_31
REMARK    4  A    between atoms: N_6  and  C_16
REMARK    5  A    between atoms: C_9  and  C_13
REMARK    6  A    between atoms: C_10  and  C_16
REMARK    7  A    between atoms: C_12  and  C_17
REMARK    8  A    between atoms: C_13  and  C_18
REMARK    9  A    between atoms: C_13  and  C_19
REMARK   10  A    between atoms: C_14  and  C_20
REMARK   11  A    between atoms: C_17  and  C_21
REMARK   12  A    between atoms: C_22  and  C_25
REMARK   13  A    between atoms: C_25  and  C_28
REMARK   14  A    between atoms: C_28  and  C_31
REMARK   15  A    between atoms: C_29  and  C_32
REMARK                            x       y       z     vdW  Elec       q    Type
REMARK                         _______ _______ _______ _____ _____    ______ ____
ROOT
ATOM      9  C   UNL     1      -3.047 -12.333  13.775  0.00  0.00    +0.000 C 
ATOM     10  C   UNL     1      -1.915 -11.406  14.282  0.00  0.00    +0.032 C 
ATOM     11  C   UNL     1      -2.861 -12.641  12.282  0.00  0.00    +0.012 C 
ATOM     12  C   UNL     1      -2.855 -11.363  11.421  0.00  0.00    +0.022 C 
ATOM     14  C   UNL     1      -1.958 -10.293  12.008  0.00  0.00    -0.073 C 
ATOM     15  C   UNL     1      -1.536 -10.335  13.284  0.00  0.00    -0.022 C 
ATOM     20  C   UNL     1      -1.517  -9.195  11.080  0.00  0.00    +0.039 C 
ENDROOT
BRANCH   9  13
ATOM     13  C   UNL     1      -3.110 -13.641  14.571  0.00  0.00    -0.013 C 
ATOM     18  C   UNL     1      -2.262 -14.715  13.895  0.00  0.00    +0.007 C 
ATOM     19  C   UNL     1      -4.555 -14.106  14.717  0.00  0.00    +0.007 C 
ENDBRANCH   9  13
BRANCH  10  16
ATOM     16  C   UNL     1      -2.291 -10.751  15.616  0.00  0.00    +0.112 C 
BRANCH  16   6
ATOM      1  O   UNL     1      -4.351 -10.948  17.637  0.00  0.00    -0.276 OA
ATOM      6  N   UNL     1      -3.612 -10.208  15.560  0.00  0.00    -0.315 N 
ATOM     22  C   UNL     1      -4.550 -10.349  16.584  0.00  0.00    +0.214 C 
ATOM     34  H   UNL     1      -3.862  -9.642  14.753  0.00  0.00    +0.149 HD
BRANCH  22  25
ATOM     25  C   UNL     1      -5.867  -9.671  16.249  0.00  0.00    +0.107 C 
BRANCH  25  28
ATOM     28  C   UNL     1      -6.908  -9.846  17.349  0.00  0.00    +0.129 C 
BRANCH  28  31
ATOM      4  O   UNL     1      -9.341  -9.872  17.406  0.00  0.00    -0.251 OA
ATOM     31  C   UNL     1      -8.302  -9.517  16.866  0.00  0.00    +0.305 C 
BRANCH  31   3
ATOM      3  O   UNL     1      -8.272  -8.764  15.736  0.00  0.00    -0.481 OA
ATOM     36  H   UNL     1      -7.679  -9.150  15.055  0.00  0.00    +0.295 HD
ENDBRANCH  31   3
ENDBRANCH  28  31
ENDBRANCH  25  28
ENDBRANCH  22  25
ENDBRANCH  16   6
ENDBRANCH  10  16
BRANCH  12  17
ATOM     17  C   UNL     1      -4.276 -10.832  11.210  0.00  0.00    +0.082 C 
BRANCH  17  21
ATOM      7  N   UNL     1      -4.111 -11.728   8.879  0.00  0.00    -0.342 N 
ATOM      8  N   UNL     1      -5.490 -10.008   9.162  0.00  0.00    -0.232 NA
ATOM     21  C   UNL     1      -4.650 -10.826   9.754  0.00  0.00    +0.109 A 
ATOM     23  C   UNL     1      -4.639 -11.474   7.639  0.00  0.00    +0.067 A 
ATOM     24  C   UNL     1      -5.496 -10.397   7.842  0.00  0.00    +0.089 A 
ATOM     26  C   UNL     1      -4.446 -12.078   6.396  0.00  0.00    +0.042 A 
ATOM     27  C   UNL     1      -6.211  -9.875   6.750  0.00  0.00    +0.030 A 
ATOM     29  C   UNL     1      -5.166 -11.546   5.320  0.00  0.00    +0.061 A 
ATOM     30  C   UNL     1      -6.033 -10.465   5.493  0.00  0.00    +0.017 A 
ATOM     35  H   UNL     1      -3.444 -12.454   9.104  0.00  0.00    +0.167 HD
BRANCH  29  32
ATOM      5  O   UNL     1      -5.781 -11.944   3.051  0.00  0.00    -0.245 OA
ATOM     32  C   UNL     1      -5.006 -12.133   3.998  0.00  0.00    +0.339 C 
BRANCH  32   2
ATOM      2  O   UNL     1      -3.890 -12.920   3.930  0.00  0.00    -0.464 OA
ATOM     33  C   UNL     1      -2.900 -12.555   2.963  0.00  0.00    +0.280 C 
ENDBRANCH  32   2
ENDBRANCH  29  32
ENDBRANCH  17  21
ENDBRANCH  12  17
TORSDOF 11
ENDMDL
MODEL 9
REMARK VINA RESULT:      -5.9     27.929     29.862
REMARK  Name = 71693204
REMARK  15 active torsions:
REMARK  status: ('A' for Active; 'I' for Inactive)
REMARK    1  A    between atoms: O_2  and  C_32
REMARK    2  A    between atoms: O_2  and  C_33
REMARK    3  A    between atoms: O_3  and  C_31
REMARK    4  A    between atoms: N_6  and  C_16
REMARK    5  A    between atoms: C_9  and  C_13
REMARK    6  A    between atoms: C_10  and  C_16
REMARK    7  A    between atoms: C_12  and  C_17
REMARK    8  A    between atoms: C_13  and  C_18
REMARK    9  A    between atoms: C_13  and  C_19
REMARK   10  A    between atoms: C_14  and  C_20
REMARK   11  A    between atoms: C_17  and  C_21
REMARK   12  A    between atoms: C_22  and  C_25
REMARK   13  A    between atoms: C_25  and  C_28
REMARK   14  A    between atoms: C_28  and  C_31
REMARK   15  A    between atoms: C_29  and  C_32
REMARK                            x       y       z     vdW  Elec       q    Type
REMARK                         _______ _______ _______ _____ _____    ______ ____
ROOT
ATOM      9  C   UNL     1      -7.702 -11.785  16.834  0.00  0.00    +0.000 C 
ATOM     10  C   UNL     1      -7.833 -12.153  18.332  0.00  0.00    +0.032 C 
ATOM     11  C   UNL     1      -6.437 -12.416  16.235  0.00  0.00    +0.012 C 
ATOM     12  C   UNL     1      -5.158 -11.961  16.963  0.00  0.00    +0.022 C 
ATOM     14  C   UNL     1      -5.308 -12.044  18.468  0.00  0.00    -0.073 C 
ATOM     15  C   UNL     1      -6.510 -12.143  19.062  0.00  0.00    -0.022 C 
ATOM     20  C   UNL     1      -4.039 -12.056  19.276  0.00  0.00    +0.039 C 
ENDROOT
BRANCH   9  13
ATOM     13  C   UNL     1      -8.931 -12.223  16.030  0.00  0.00    -0.013 C 
ATOM     18  C   UNL     1      -8.816 -13.694  15.643  0.00  0.00    +0.007 C 
ATOM     19  C   UNL     1      -9.095 -11.349  14.791  0.00  0.00    +0.007 C 
ENDBRANCH   9  13
BRANCH  10  16
ATOM     16  C   UNL     1      -8.819 -11.222  19.047  0.00  0.00    +0.112 C 
BRANCH  16   6
ATOM      1  O   UNL     1     -11.172  -9.777  18.184  0.00  0.00    -0.276 OA
ATOM      6  N   UNL     1      -8.863  -9.944  18.408  0.00  0.00    -0.315 N 
ATOM     22  C   UNL     1     -10.047  -9.313  18.021  0.00  0.00    +0.214 C 
ATOM     34  H   UNL     1      -7.987  -9.444  18.277  0.00  0.00    +0.149 HD
BRANCH  22  25
ATOM     25  C   UNL     1      -9.789  -7.968  17.366  0.00  0.00    +0.107 C 
BRANCH  25  28
ATOM     28  C   UNL     1     -10.470  -7.842  16.008  0.00  0.00    +0.129 C 
BRANCH  28  31
ATOM      4  O   UNL     1     -11.440  -6.024  14.711  0.00  0.00    -0.251 OA
ATOM     31  C   UNL     1     -11.023  -6.454  15.779  0.00  0.00    +0.305 C 
BRANCH  31   3
ATOM      3  O   UNL     1     -11.006  -5.718  16.920  0.00  0.00    -0.481 OA
ATOM     36  H   UNL     1     -10.094  -5.583  17.254  0.00  0.00    +0.295 HD
ENDBRANCH  31   3
ENDBRANCH  28  31
ENDBRANCH  25  28
ENDBRANCH  22  25
ENDBRANCH  16   6
ENDBRANCH  10  16
BRANCH  12  17
ATOM     17  C   UNL     1      -4.747 -10.550  16.530  0.00  0.00    +0.082 C 
BRANCH  17  21
ATOM      7  N   UNL     1      -5.510  -9.921  14.231  0.00  0.00    -0.342 N 
ATOM      8  N   UNL     1      -3.510 -10.881  14.361  0.00  0.00    -0.232 NA
ATOM     21  C   UNL     1      -4.555 -10.467  15.042  0.00  0.00    +0.109 A 
ATOM     23  C   UNL     1      -5.052  -9.986  12.941  0.00  0.00    +0.067 A 
ATOM     24  C   UNL     1      -3.802 -10.589  13.048  0.00  0.00    +0.089 A 
ATOM     26  C   UNL     1      -5.607  -9.582  11.726  0.00  0.00    +0.042 A 
ATOM     27  C   UNL     1      -3.046 -10.811  11.884  0.00  0.00    +0.030 A 
ATOM     29  C   UNL     1      -4.840  -9.809  10.577  0.00  0.00    +0.061 A 
ATOM     30  C   UNL     1      -3.583 -10.413  10.654  0.00  0.00    +0.017 A 
ATOM     35  H   UNL     1      -6.397  -9.535  14.528  0.00  0.00    +0.167 HD
BRANCH  29  32
ATOM      5  O   UNL     1      -6.397  -8.743   9.120  0.00  0.00    -0.245 OA
ATOM     32  C   UNL     1      -5.366  -9.410   9.281  0.00  0.00    +0.339 C 
BRANCH  32   2
ATOM      2  O   UNL     1      -4.579  -9.862   8.258  0.00  0.00    -0.464 OA
ATOM     33  C   UNL     1      -5.216 -10.665   7.259  0.00  0.00    +0.280 C 
ENDBRANCH  32   2
ENDBRANCH  29  32
ENDBRANCH  17  21
ENDBRANCH  12  17
TORSDOF 11
ENDMDL
MODEL 10
REMARK VINA RESULT:      -5.8     26.962     29.690
REMARK  Name = 71693204
REMARK  15 active torsions:
REMARK  status: ('A' for Active; 'I' for Inactive)
REMARK    1  A    between atoms: O_2  and  C_32
REMARK    2  A    between atoms: O_2  and  C_33
REMARK    3  A    between atoms: O_3  and  C_31
REMARK    4  A    between atoms: N_6  and  C_16
REMARK    5  A    between atoms: C_9  and  C_13
REMARK    6  A    between atoms: C_10  and  C_16
REMARK    7  A    between atoms: C_12  and  C_17
REMARK    8  A    between atoms: C_13  and  C_18
REMARK    9  A    between atoms: C_13  and  C_19
REMARK   10  A    between atoms: C_14  and  C_20
REMARK   11  A    between atoms: C_17  and  C_21
REMARK   12  A    between atoms: C_22  and  C_25
REMARK   13  A    between atoms: C_25  and  C_28
REMARK   14  A    between atoms: C_28  and  C_31
REMARK   15  A    between atoms: C_29  and  C_32
REMARK                            x       y       z     vdW  Elec       q    Type
REMARK                         _______ _______ _______ _____ _____    ______ ____
ROOT
ATOM      9  C   UNL     1     -12.510  10.417  20.758  0.00  0.00    +0.000 C 
ATOM     10  C   UNL     1     -11.291  10.477  19.805  0.00  0.00    +0.032 C 
ATOM     11  C   UNL     1     -12.490   9.117  21.575  0.00  0.00    +0.012 C 
ATOM     12  C   UNL     1     -12.511   7.865  20.676  0.00  0.00    +0.022 C 
ATOM     14  C   UNL     1     -11.511   7.969  19.543  0.00  0.00    -0.073 C 
ATOM     15  C   UNL     1     -10.965   9.142  19.176  0.00  0.00    -0.022 C 
ATOM     20  C   UNL     1     -11.115   6.684  18.869  0.00  0.00    +0.039 C 
ENDROOT
BRANCH   9  13
ATOM     13  C   UNL     1     -12.553  11.623  21.703  0.00  0.00    -0.013 C 
ATOM     18  C   UNL     1     -12.410  11.167  23.152  0.00  0.00    +0.007 C 
ATOM     19  C   UNL     1     -13.846  12.406  21.508  0.00  0.00    +0.007 C 
ENDBRANCH   9  13
BRANCH  10  16
ATOM     16  C   UNL     1     -11.500  11.523  18.704  0.00  0.00    +0.112 C 
BRANCH  16   6
ATOM      1  O   UNL     1     -10.409  12.511  16.213  0.00  0.00    -0.276 OA
ATOM      6  N   UNL     1     -11.575  10.900  17.420  0.00  0.00    -0.315 N 
ATOM     22  C   UNL     1     -11.019  11.446  16.261  0.00  0.00    +0.214 C 
ATOM     34  H   UNL     1     -12.009   9.983  17.358  0.00  0.00    +0.149 HD
BRANCH  22  25
ATOM     25  C   UNL     1     -11.253  10.567  15.046  0.00  0.00    +0.107 C 
BRANCH  25  28
ATOM     28  C   UNL     1     -11.630   9.138  15.424  0.00  0.00    +0.129 C 
BRANCH  28  31
ATOM      4  O   UNL     1     -10.507   7.998  13.591  0.00  0.00    -0.251 OA
ATOM     31  C   UNL     1     -10.706   8.123  14.791  0.00  0.00    +0.305 C 
BRANCH  31   3
ATOM      3  O   UNL     1     -10.107   7.344  15.729  0.00  0.00    -0.481 OA
ATOM     36  H   UNL     1      -9.174   7.145  15.497  0.00  0.00    +0.295 HD
ENDBRANCH  31   3
ENDBRANCH  28  31
ENDBRANCH  25  28
ENDBRANCH  22  25
ENDBRANCH  16   6
ENDBRANCH  10  16
BRANCH  12  17
ATOM     17  C   UNL     1     -13.920   7.593  20.141  0.00  0.00    +0.082 C 
BRANCH  17  21
ATOM      7  N   UNL     1     -14.068   5.986  22.053  0.00  0.00    -0.342 N 
ATOM      8  N   UNL     1     -15.986   6.464  21.037  0.00  0.00    -0.232 NA
ATOM     21  C   UNL     1     -14.692   6.688  21.060  0.00  0.00    +0.109 A 
ATOM     23  C   UNL     1     -15.024   5.259  22.715  0.00  0.00    +0.067 A 
ATOM     24  C   UNL     1     -16.212   5.574  22.062  0.00  0.00    +0.089 A 
ATOM     26  C   UNL     1     -14.953   4.380  23.796  0.00  0.00    +0.042 A 
ATOM     27  C   UNL     1     -17.411   4.986  22.499  0.00  0.00    +0.030 A 
ATOM     29  C   UNL     1     -16.157   3.804  24.219  0.00  0.00    +0.061 A 
ATOM     30  C   UNL     1     -17.363   4.100  23.583  0.00  0.00    +0.017 A 
ATOM     35  H   UNL     1     -13.079   5.999  22.265  0.00  0.00    +0.167 HD
BRANCH  29  32
ATOM      5  O   UNL     1     -16.009   3.216  26.525  0.00  0.00    -0.245 OA
ATOM     32  C   UNL     1     -16.146   2.878  25.341  0.00  0.00    +0.339 C 
BRANCH  32   2
ATOM      2  O   UNL     1     -16.305   1.585  24.928  0.00  0.00    -0.464 OA
ATOM     33  C   UNL     1     -16.882   0.672  25.868  0.00  0.00    +0.280 C 
ENDBRANCH  32   2
ENDBRANCH  29  32
ENDBRANCH  17  21
ENDBRANCH  12  17
TORSDOF 11
ENDMDL
