MODEL 1
REMARK VINA RESULT:      -6.2      0.000      0.000
REMARK  Name = 40777334
REMARK  9 active torsions:
REMARK  status: ('A' for Active; 'I' for Inactive)
REMARK    1  A    between atoms: N_4  and  C_13
REMARK    2  A    between atoms: C_6  and  C_10
REMARK    3  A    between atoms: C_7  and  C_11
REMARK    4  A    between atoms: C_10  and  C_16
REMARK    5  A    between atoms: C_11  and  C_20
REMARK    6  A    between atoms: C_22  and  C_23
REMARK    7  A    between atoms: C_22  and  C_24
REMARK    8  A    between atoms: C_22  and  C_25
REMARK    9  A    between atoms: C_22  and  C_26
REMARK                            x       y       z     vdW  Elec       q    Type
REMARK                         _______ _______ _______ _____ _____    ______ ____
ROOT
ATOM      3  N   UNL     1      14.792   6.335  20.873  0.00  0.00    -0.316 NA
ATOM      6  C   UNL     1      14.054   8.545  19.062  0.00  0.00    +0.004 C 
ATOM      7  C   UNL     1      13.249   8.206  20.339  0.00  0.00    +0.012 C 
ATOM      8  C   UNL     1      15.496   8.038  19.228  0.00  0.00    +0.019 C 
ATOM      9  C   UNL     1      13.389   6.723  20.723  0.00  0.00    +0.085 C 
ATOM     12  C   UNL     1      15.555   6.570  19.648  0.00  0.00    +0.081 C 
ATOM     27  H   UNL     1      14.844   5.346  21.118  0.00  0.00    +0.122 HD
ENDROOT
BRANCH   6  10
ATOM     10  C   UNL     1      13.430   8.001  17.771  0.00  0.00    +0.099 C 
BRANCH  10  16
ATOM      1  O   UNL     1      12.191   9.041  15.972  0.00  0.00    -0.276 OA
ATOM      4  N   UNL     1      13.994  10.165  16.913  0.00  0.00    -0.312 N 
ATOM     16  C   UNL     1      13.113   9.102  16.781  0.00  0.00    +0.214 C 
ATOM     28  H   UNL     1      14.723  10.119  17.617  0.00  0.00    +0.149 HD
BRANCH   4  13
ATOM     13  C   UNL     1      13.927  11.354  16.093  0.00  0.00    +0.073 C 
ATOM     14  C   UNL     1      14.568  12.551  16.804  0.00  0.00    +0.022 C 
ATOM     15  C   UNL     1      14.566  11.114  14.721  0.00  0.00    +0.022 C 
ATOM     17  C   UNL     1      16.091  12.441  16.876  0.00  0.00    +0.002 C 
ATOM     18  C   UNL     1      16.089  11.006  14.797  0.00  0.00    +0.002 C 
ATOM     19  C   UNL     1      16.705  12.214  15.498  0.00  0.00    +0.000 C 
ENDBRANCH   4  13
ENDBRANCH  10  16
ENDBRANCH   6  10
BRANCH   7  11
ATOM     11  C   UNL     1      11.775   8.599  20.241  0.00  0.00    +0.064 C 
BRANCH  11  20
ATOM      2  O   UNL     1      10.593  10.556  23.022  0.00  0.00    -0.359 OA
ATOM      5  N   UNL     1      10.740   9.357  22.336  0.00  0.00    -0.083 NA
ATOM     20  C   UNL     1      11.427   9.670  21.234  0.00  0.00    +0.084 A 
ATOM     21  C   UNL     1      11.738  11.039  21.170  0.00  0.00    +0.071 A 
ATOM     23  C   UNL     1      11.192  11.551  22.317  0.00  0.00    +0.143 A 
BRANCH  23  22
ATOM     22  C   UNL     1      11.132  12.896  22.902  0.00  0.00    +0.023 C 
ATOM     24  C   UNL     1      12.549  13.563  22.992  0.00  0.00    +0.019 C 
ATOM     25  C   UNL     1      10.549  12.880  24.359  0.00  0.00    +0.019 C 
ATOM     26  C   UNL     1      10.248  13.949  22.135  0.00  0.00    +0.019 C 
ENDBRANCH  23  22
ENDBRANCH  11  20
ENDBRANCH   7  11
TORSDOF 6
ENDMDL
MODEL 2
REMARK VINA RESULT:      -6.1     13.124     16.846
REMARK  Name = 40777334
REMARK  9 active torsions:
REMARK  status: ('A' for Active; 'I' for Inactive)
REMARK    1  A    between atoms: N_4  and  C_13
REMARK    2  A    between atoms: C_6  and  C_10
REMARK    3  A    between atoms: C_7  and  C_11
REMARK    4  A    between atoms: C_10  and  C_16
REMARK    5  A    between atoms: C_11  and  C_20
REMARK    6  A    between atoms: C_22  and  C_23
REMARK    7  A    between atoms: C_22  and  C_24
REMARK    8  A    between atoms: C_22  and  C_25
REMARK    9  A    between atoms: C_22  and  C_26
REMARK                            x       y       z     vdW  Elec       q    Type
REMARK                         _______ _______ _______ _____ _____    ______ ____
ROOT
ATOM      3  N   UNL     1      16.215  10.582   4.933  0.00  0.00    -0.316 NA
ATOM      6  C   UNL     1      14.630   8.158   5.499  0.00  0.00    +0.004 C 
ATOM      7  C   UNL     1      14.484   8.964   4.187  0.00  0.00    +0.012 C 
ATOM      8  C   UNL     1      16.028   8.407   6.089  0.00  0.00    +0.019 C 
ATOM      9  C   UNL     1      14.866  10.441   4.382  0.00  0.00    +0.085 C 
ATOM     12  C   UNL     1      16.352   9.894   6.216  0.00  0.00    +0.081 C 
ATOM     27  H   UNL     1      16.428  11.571   5.055  0.00  0.00    +0.122 HD
ENDROOT
BRANCH   6  10
ATOM     10  C   UNL     1      13.540   8.454   6.537  0.00  0.00    +0.099 C 
BRANCH  10  16
ATOM      1  O   UNL     1      13.438   6.259   7.547  0.00  0.00    -0.276 OA
ATOM      4  N   UNL     1      11.484   7.251   6.775  0.00  0.00    -0.312 N 
ATOM     16  C   UNL     1      12.849   7.196   7.016  0.00  0.00    +0.214 C 
ATOM     28  H   UNL     1      11.092   8.075   6.332  0.00  0.00    +0.149 HD
BRANCH   4  13
ATOM     13  C   UNL     1      10.575   6.183   7.129  0.00  0.00    +0.073 C 
ATOM     14  C   UNL     1       9.315   6.734   7.807  0.00  0.00    +0.022 C 
ATOM     15  C   UNL     1      10.221   5.332   5.905  0.00  0.00    +0.022 C 
ATOM     17  C   UNL     1       8.397   7.465   6.828  0.00  0.00    +0.002 C 
ATOM     18  C   UNL     1       9.301   6.067   4.930  0.00  0.00    +0.002 C 
ATOM     19  C   UNL     1       8.050   6.595   5.624  0.00  0.00    +0.000 C 
ENDBRANCH   4  13
ENDBRANCH  10  16
ENDBRANCH   6  10
BRANCH   7  11
ATOM     11  C   UNL     1      13.094   8.847   3.562  0.00  0.00    +0.064 C 
BRANCH  11  20
ATOM      2  O   UNL     1      13.197   6.338   0.983  0.00  0.00    -0.359 OA
ATOM      5  N   UNL     1      13.467   7.609   1.473  0.00  0.00    -0.083 NA
ATOM     20  C   UNL     1      12.977   7.613   2.716  0.00  0.00    +0.084 A 
ATOM     21  C   UNL     1      12.391   6.383   3.061  0.00  0.00    +0.071 A 
ATOM     23  C   UNL     1      12.556   5.617   1.938  0.00  0.00    +0.143 A 
BRANCH  23  22
ATOM     22  C   UNL     1      12.193   4.238   1.586  0.00  0.00    +0.023 C 
ATOM     24  C   UNL     1      11.494   4.154   0.184  0.00  0.00    +0.019 C 
ATOM     25  C   UNL     1      11.200   3.606   2.623  0.00  0.00    +0.019 C 
ATOM     26  C   UNL     1      13.381   3.208   1.497  0.00  0.00    +0.019 C 
ENDBRANCH  23  22
ENDBRANCH  11  20
ENDBRANCH   7  11
TORSDOF 6
ENDMDL
MODEL 3
REMARK VINA RESULT:      -5.9     27.076     29.511
REMARK  Name = 40777334
REMARK  9 active torsions:
REMARK  status: ('A' for Active; 'I' for Inactive)
REMARK    1  A    between atoms: N_4  and  C_13
REMARK    2  A    between atoms: C_6  and  C_10
REMARK    3  A    between atoms: C_7  and  C_11
REMARK    4  A    between atoms: C_10  and  C_16
REMARK    5  A    between atoms: C_11  and  C_20
REMARK    6  A    between atoms: C_22  and  C_23
REMARK    7  A    between atoms: C_22  and  C_24
REMARK    8  A    between atoms: C_22  and  C_25
REMARK    9  A    between atoms: C_22  and  C_26
REMARK                            x       y       z     vdW  Elec       q    Type
REMARK                         _______ _______ _______ _____ _____    ______ ____
ROOT
ATOM      3  N   UNL     1      -3.356 -11.773  17.943  0.00  0.00    -0.316 NA
ATOM      6  C   UNL     1      -6.283 -11.635  17.599  0.00  0.00    +0.004 C 
ATOM      7  C   UNL     1      -5.291 -11.094  16.542  0.00  0.00    +0.012 C 
ATOM      8  C   UNL     1      -5.584 -12.718  18.436  0.00  0.00    +0.019 C 
ATOM      9  C   UNL     1      -3.954 -10.677  17.179  0.00  0.00    +0.085 C 
ATOM     12  C   UNL     1      -4.246 -12.246  19.002  0.00  0.00    +0.081 C 
ATOM     27  H   UNL     1      -2.478 -11.456  18.355  0.00  0.00    +0.122 HD
ENDROOT
BRANCH   6  10
ATOM     10  C   UNL     1      -6.884 -10.551  18.502  0.00  0.00    +0.099 C 
BRANCH  10  16
ATOM      1  O   UNL     1      -9.053 -11.071  19.439  0.00  0.00    -0.276 OA
ATOM      4  N   UNL     1      -8.927 -10.028  17.367  0.00  0.00    -0.312 N 
ATOM     16  C   UNL     1      -8.397 -10.593  18.518  0.00  0.00    +0.214 C 
ATOM     28  H   UNL     1      -8.298  -9.656  16.663  0.00  0.00    +0.149 HD
BRANCH   4  13
ATOM     13  C   UNL     1     -10.348  -9.934  17.114  0.00  0.00    +0.073 C 
ATOM     14  C   UNL     1     -10.914  -8.608  17.634  0.00  0.00    +0.022 C 
ATOM     15  C   UNL     1     -10.655 -10.125  15.625  0.00  0.00    +0.022 C 
ATOM     17  C   UNL     1     -10.478  -7.413  16.786  0.00  0.00    +0.002 C 
ATOM     18  C   UNL     1     -10.220  -8.927  14.781  0.00  0.00    +0.002 C 
ATOM     19  C   UNL     1     -10.805  -7.621  15.310  0.00  0.00    +0.000 C 
ENDBRANCH   4  13
ENDBRANCH  10  16
ENDBRANCH   6  10
BRANCH   7  11
ATOM     11  C   UNL     1      -5.869  -9.951  15.707  0.00  0.00    +0.064 C 
BRANCH  11  20
ATOM      2  O   UNL     1      -5.480  -9.831  12.130  0.00  0.00    -0.359 OA
ATOM      5  N   UNL     1      -6.214  -9.642  13.295  0.00  0.00    -0.083 NA
ATOM     20  C   UNL     1      -5.400 -10.022  14.283  0.00  0.00    +0.084 A 
ATOM     21  C   UNL     1      -4.151 -10.458  13.808  0.00  0.00    +0.071 A 
ATOM     23  C   UNL     1      -4.253 -10.317  12.449  0.00  0.00    +0.143 A 
BRANCH  23  22
ATOM     22  C   UNL     1      -3.339 -10.576  11.329  0.00  0.00    +0.023 C 
ATOM     24  C   UNL     1      -3.499 -12.030  10.763  0.00  0.00    +0.019 C 
ATOM     25  C   UNL     1      -1.835 -10.418  11.746  0.00  0.00    +0.019 C 
ATOM     26  C   UNL     1      -3.501  -9.643  10.070  0.00  0.00    +0.019 C 
ENDBRANCH  23  22
ENDBRANCH  11  20
ENDBRANCH   7  11
TORSDOF 6
ENDMDL
MODEL 4
REMARK VINA RESULT:      -5.9     28.132     31.115
REMARK  Name = 40777334
REMARK  9 active torsions:
REMARK  status: ('A' for Active; 'I' for Inactive)
REMARK    1  A    between atoms: N_4  and  C_13
REMARK    2  A    between atoms: C_6  and  C_10
REMARK    3  A    between atoms: C_7  and  C_11
REMARK    4  A    between atoms: C_10  and  C_16
REMARK    5  A    between atoms: C_11  and  C_20
REMARK    6  A    between atoms: C_22  and  C_23
REMARK    7  A    between atoms: C_22  and  C_24
REMARK    8  A    between atoms: C_22  and  C_25
REMARK    9  A    between atoms: C_22  and  C_26
REMARK                            x       y       z     vdW  Elec       q    Type
REMARK                         _______ _______ _______ _____ _____    ______ ____
ROOT
ATOM      3  N   UNL     1     -17.887   2.018  22.171  0.00  0.00    -0.316 NA
ATOM      6  C   UNL     1     -17.791   2.319  25.105  0.00  0.00    +0.004 C 
ATOM      7  C   UNL     1     -17.211   3.377  24.137  0.00  0.00    +0.012 C 
ATOM      8  C   UNL     1     -18.881   1.515  24.376  0.00  0.00    +0.019 C 
ATOM      9  C   UNL     1     -16.786   2.750  22.798  0.00  0.00    +0.085 C 
ATOM     12  C   UNL     1     -18.398   0.957  23.038  0.00  0.00    +0.081 C 
ATOM     27  H   UNL     1     -17.565   1.611  21.293  0.00  0.00    +0.122 HD
ENDROOT
BRANCH   6  10
ATOM     10  C   UNL     1     -16.737   1.385  25.711  0.00  0.00    +0.099 C 
BRANCH  10  16
ATOM      1  O   UNL     1     -17.902   0.217  27.481  0.00  0.00    -0.276 OA
ATOM      4  N   UNL     1     -16.239   1.746  28.025  0.00  0.00    -0.312 N 
ATOM     16  C   UNL     1     -17.045   1.031  27.150  0.00  0.00    +0.214 C 
ATOM     28  H   UNL     1     -15.555   2.395  27.650  0.00  0.00    +0.149 HD
BRANCH   4  13
ATOM     13  C   UNL     1     -16.317   1.609  29.463  0.00  0.00    +0.073 C 
ATOM     14  C   UNL     1     -15.318   0.563  29.972  0.00  0.00    +0.022 C 
ATOM     15  C   UNL     1     -16.110   2.959  30.156  0.00  0.00    +0.022 C 
ATOM     17  C   UNL     1     -13.871   1.049  29.893  0.00  0.00    +0.002 C 
ATOM     18  C   UNL     1     -14.662   3.441  30.076  0.00  0.00    +0.002 C 
ATOM     19  C   UNL     1     -13.688   2.388  30.599  0.00  0.00    +0.000 C 
ENDBRANCH   4  13
ENDBRANCH  10  16
ENDBRANCH   6  10
BRANCH   7  11
ATOM     11  C   UNL     1     -16.061   4.179  24.745  0.00  0.00    +0.064 C 
BRANCH  11  20
ATOM      2  O   UNL     1     -15.639   7.168  22.784  0.00  0.00    -0.359 OA
ATOM      5  N   UNL     1     -16.332   6.385  23.698  0.00  0.00    -0.083 NA
ATOM     20  C   UNL     1     -15.606   5.270  23.820  0.00  0.00    +0.084 A 
ATOM     21  C   UNL     1     -14.455   5.293  23.013  0.00  0.00    +0.071 A 
ATOM     23  C   UNL     1     -14.523   6.507  22.383  0.00  0.00    +0.143 A 
BRANCH  23  22
ATOM     22  C   UNL     1     -13.667   7.196  21.409  0.00  0.00    +0.023 C 
ATOM     24  C   UNL     1     -13.324   8.659  21.858  0.00  0.00    +0.019 C 
ATOM     25  C   UNL     1     -14.347   7.304  19.999  0.00  0.00    +0.019 C 
ATOM     26  C   UNL     1     -12.267   6.533  21.122  0.00  0.00    +0.019 C 
ENDBRANCH  23  22
ENDBRANCH  11  20
ENDBRANCH   7  11
TORSDOF 6
ENDMDL
MODEL 5
REMARK VINA RESULT:      -5.8     12.972     16.333
REMARK  Name = 40777334
REMARK  9 active torsions:
REMARK  status: ('A' for Active; 'I' for Inactive)
REMARK    1  A    between atoms: N_4  and  C_13
REMARK    2  A    between atoms: C_6  and  C_10
REMARK    3  A    between atoms: C_7  and  C_11
REMARK    4  A    between atoms: C_10  and  C_16
REMARK    5  A    between atoms: C_11  and  C_20
REMARK    6  A    between atoms: C_22  and  C_23
REMARK    7  A    between atoms: C_22  and  C_24
REMARK    8  A    between atoms: C_22  and  C_25
REMARK    9  A    between atoms: C_22  and  C_26
REMARK                            x       y       z     vdW  Elec       q    Type
REMARK                         _______ _______ _______ _____ _____    ______ ____
ROOT
ATOM      3  N   UNL     1      14.352  10.888   3.448  0.00  0.00    -0.316 NA
ATOM      6  C   UNL     1      13.749   8.001   3.551  0.00  0.00    +0.004 C 
ATOM      7  C   UNL     1      13.846   8.881   4.819  0.00  0.00    +0.012 C 
ATOM      8  C   UNL     1      13.399   8.892   2.347  0.00  0.00    +0.019 C 
ATOM      9  C   UNL     1      14.770  10.092   4.603  0.00  0.00    +0.085 C 
ATOM     12  C   UNL     1      14.333  10.095   2.219  0.00  0.00    +0.081 C 
ATOM     27  H   UNL     1      14.992  11.674   3.331  0.00  0.00    +0.122 HD
ENDROOT
BRANCH   6  10
ATOM     10  C   UNL     1      15.009   7.175   3.268  0.00  0.00    +0.099 C 
BRANCH  10  16
ATOM      1  O   UNL     1      15.574   6.309   1.081  0.00  0.00    -0.276 OA
ATOM      4  N   UNL     1      13.769   5.408   2.232  0.00  0.00    -0.312 N 
ATOM     16  C   UNL     1      14.843   6.269   2.066  0.00  0.00    +0.214 C 
ATOM     28  H   UNL     1      13.226   5.452   3.088  0.00  0.00    +0.149 HD
BRANCH   4  13
ATOM     13  C   UNL     1      13.376   4.433   1.238  0.00  0.00    +0.073 C 
ATOM     14  C   UNL     1      12.604   3.274   1.878  0.00  0.00    +0.022 C 
ATOM     15  C   UNL     1      12.567   5.087   0.114  0.00  0.00    +0.022 C 
ATOM     17  C   UNL     1      11.201   3.683   2.326  0.00  0.00    +0.002 C 
ATOM     18  C   UNL     1      11.164   5.494   0.565  0.00  0.00    +0.002 C 
ATOM     19  C   UNL     1      10.411   4.321   1.188  0.00  0.00    +0.000 C 
ENDBRANCH   4  13
ENDBRANCH  10  16
ENDBRANCH   6  10
BRANCH   7  11
ATOM     11  C   UNL     1      14.271   8.097   6.062  0.00  0.00    +0.064 C 
BRANCH  11  20
ATOM      2  O   UNL     1      12.087   5.896   7.891  0.00  0.00    -0.359 OA
ATOM      5  N   UNL     1      13.344   6.394   7.570  0.00  0.00    -0.083 NA
ATOM     20  C   UNL     1      13.119   7.333   6.647  0.00  0.00    +0.084 A 
ATOM     21  C   UNL     1      11.752   7.471   6.348  0.00  0.00    +0.071 A 
ATOM     23  C   UNL     1      11.148   6.545   7.156  0.00  0.00    +0.143 A 
BRANCH  23  22
ATOM     22  C   UNL     1       9.753   6.141   7.372  0.00  0.00    +0.023 C 
ATOM     24  C   UNL     1       8.913   7.270   8.065  0.00  0.00    +0.019 C 
ATOM     25  C   UNL     1       9.641   4.871   8.288  0.00  0.00    +0.019 C 
ATOM     26  C   UNL     1       8.929   5.771   6.082  0.00  0.00    +0.019 C 
ENDBRANCH  23  22
ENDBRANCH  11  20
ENDBRANCH   7  11
TORSDOF 6
ENDMDL
MODEL 6
REMARK VINA RESULT:      -5.7     23.594     26.672
REMARK  Name = 40777334
REMARK  9 active torsions:
REMARK  status: ('A' for Active; 'I' for Inactive)
REMARK    1  A    between atoms: N_4  and  C_13
REMARK    2  A    between atoms: C_6  and  C_10
REMARK    3  A    between atoms: C_7  and  C_11
REMARK    4  A    between atoms: C_10  and  C_16
REMARK    5  A    between atoms: C_11  and  C_20
REMARK    6  A    between atoms: C_22  and  C_23
REMARK    7  A    between atoms: C_22  and  C_24
REMARK    8  A    between atoms: C_22  and  C_25
REMARK    9  A    between atoms: C_22  and  C_26
REMARK                            x       y       z     vdW  Elec       q    Type
REMARK                         _______ _______ _______ _____ _____    ______ ____
ROOT
ATOM      3  N   UNL     1     -12.879  12.908  25.154  0.00  0.00    -0.316 NA
ATOM      6  C   UNL     1     -13.229  10.451  23.557  0.00  0.00    +0.004 C 
ATOM      7  C   UNL     1     -12.943  11.831  22.918  0.00  0.00    +0.012 C 
ATOM      8  C   UNL     1     -12.701  10.449  25.002  0.00  0.00    +0.019 C 
ATOM      9  C   UNL     1     -13.443  12.983  23.805  0.00  0.00    +0.085 C 
ATOM     12  C   UNL     1     -13.207  11.643  25.810  0.00  0.00    +0.081 C 
ATOM     27  H   UNL     1     -13.239  13.681  25.713  0.00  0.00    +0.122 HD
ENDROOT
BRANCH   6  10
ATOM     10  C   UNL     1     -14.705  10.038  23.515  0.00  0.00    +0.099 C 
BRANCH  10  16
ATOM      1  O   UNL     1     -15.694   7.833  23.423  0.00  0.00    -0.276 OA
ATOM      4  N   UNL     1     -14.049   8.410  21.887  0.00  0.00    -0.312 N 
ATOM     16  C   UNL     1     -14.893   8.641  22.963  0.00  0.00    +0.214 C 
ATOM     28  H   UNL     1     -13.424   9.148  21.579  0.00  0.00    +0.149 HD
BRANCH   4  13
ATOM     13  C   UNL     1     -14.015   7.157  21.164  0.00  0.00    +0.073 C 
ATOM     14  C   UNL     1     -14.384   7.360  19.691  0.00  0.00    +0.022 C 
ATOM     15  C   UNL     1     -12.649   6.477  21.307  0.00  0.00    +0.022 C 
ATOM     17  C   UNL     1     -13.286   8.077  18.906  0.00  0.00    +0.002 C 
ATOM     18  C   UNL     1     -11.554   7.196  20.519  0.00  0.00    +0.002 C 
ATOM     19  C   UNL     1     -11.939   7.376  19.053  0.00  0.00    +0.000 C 
ENDBRANCH   4  13
ENDBRANCH  10  16
ENDBRANCH   6  10
BRANCH   7  11
ATOM     11  C   UNL     1     -13.503  11.962  21.501  0.00  0.00    +0.064 C 
BRANCH  11  20
ATOM      2  O   UNL     1     -10.811  10.463  19.639  0.00  0.00    -0.359 OA
ATOM      5  N   UNL     1     -11.556  10.638  20.798  0.00  0.00    -0.083 NA
ATOM     20  C   UNL     1     -12.499  11.528  20.473  0.00  0.00    +0.084 A 
ATOM     21  C   UNL     1     -12.399  11.947  19.135  0.00  0.00    +0.071 A 
ATOM     23  C   UNL     1     -11.323  11.248  18.655  0.00  0.00    +0.143 A 
BRANCH  23  22
ATOM     22  C   UNL     1     -10.651  11.186  17.351  0.00  0.00    +0.023 C 
ATOM     24  C   UNL     1      -9.879   9.835  17.150  0.00  0.00    +0.019 C 
ATOM     25  C   UNL     1      -9.599  12.336  17.174  0.00  0.00    +0.019 C 
ATOM     26  C   UNL     1     -11.580  11.301  16.085  0.00  0.00    +0.019 C 
ENDBRANCH  23  22
ENDBRANCH  11  20
ENDBRANCH   7  11
TORSDOF 6
ENDMDL
MODEL 7
REMARK VINA RESULT:      -5.7     12.523     15.289
REMARK  Name = 40777334
REMARK  9 active torsions:
REMARK  status: ('A' for Active; 'I' for Inactive)
REMARK    1  A    between atoms: N_4  and  C_13
REMARK    2  A    between atoms: C_6  and  C_10
REMARK    3  A    between atoms: C_7  and  C_11
REMARK    4  A    between atoms: C_10  and  C_16
REMARK    5  A    between atoms: C_11  and  C_20
REMARK    6  A    between atoms: C_22  and  C_23
REMARK    7  A    between atoms: C_22  and  C_24
REMARK    8  A    between atoms: C_22  and  C_25
REMARK    9  A    between atoms: C_22  and  C_26
REMARK                            x       y       z     vdW  Elec       q    Type
REMARK                         _______ _______ _______ _____ _____    ______ ____
ROOT
ATOM      3  N   UNL     1      16.998   9.673   5.621  0.00  0.00    -0.316 NA
ATOM      6  C   UNL     1      14.781   8.316   4.225  0.00  0.00    +0.004 C 
ATOM      7  C   UNL     1      14.935   8.299   5.764  0.00  0.00    +0.012 C 
ATOM      8  C   UNL     1      15.498   9.554   3.662  0.00  0.00    +0.019 C 
ATOM      9  C   UNL     1      16.403   8.464   6.191  0.00  0.00    +0.085 C 
ATOM     12  C   UNL     1      16.938   9.672   4.161  0.00  0.00    +0.081 C 
ATOM     27  H   UNL     1      17.971   9.743   5.919  0.00  0.00    +0.122 HD
ENDROOT
BRANCH   6  10
ATOM     10  C   UNL     1      15.277   7.039   3.536  0.00  0.00    +0.099 C 
BRANCH  10  16
ATOM      1  O   UNL     1      14.519   6.388   1.333  0.00  0.00    -0.276 OA
ATOM      4  N   UNL     1      13.077   6.178   3.143  0.00  0.00    -0.312 N 
ATOM     16  C   UNL     1      14.278   6.506   2.531  0.00  0.00    +0.214 C 
ATOM     28  H   UNL     1      12.979   6.310   4.144  0.00  0.00    +0.149 HD
BRANCH   4  13
ATOM     13  C   UNL     1      11.942   5.646   2.421  0.00  0.00    +0.073 C 
ATOM     14  C   UNL     1      11.149   4.663   3.289  0.00  0.00    +0.022 C 
ATOM     15  C   UNL     1      11.046   6.773   1.897  0.00  0.00    +0.022 C 
ATOM     17  C   UNL     1      10.371   5.363   4.404  0.00  0.00    +0.002 C 
ATOM     18  C   UNL     1      10.269   7.469   3.014  0.00  0.00    +0.002 C 
ATOM     19  C   UNL     1       9.479   6.472   3.857  0.00  0.00    +0.000 C 
ENDBRANCH   4  13
ENDBRANCH  10  16
ENDBRANCH   6  10
BRANCH   7  11
ATOM     11  C   UNL     1      14.322   7.059   6.415  0.00  0.00    +0.064 C 
BRANCH  11  20
ATOM      2  O   UNL     1      10.932   6.871   7.611  0.00  0.00    -0.359 OA
ATOM      5  N   UNL     1      12.218   6.364   7.476  0.00  0.00    -0.083 NA
ATOM     20  C   UNL     1      12.877   7.278   6.759  0.00  0.00    +0.084 A 
ATOM     21  C   UNL     1      12.066   8.374   6.416  0.00  0.00    +0.071 A 
ATOM     23  C   UNL     1      10.854   8.069   6.976  0.00  0.00    +0.143 A 
BRANCH  23  22
ATOM     22  C   UNL     1       9.555   8.751   7.020  0.00  0.00    +0.023 C 
ATOM     24  C   UNL     1       9.414   9.669   8.284  0.00  0.00    +0.019 C 
ATOM     25  C   UNL     1       8.358   7.737   7.064  0.00  0.00    +0.019 C 
ATOM     26  C   UNL     1       9.225   9.699   5.806  0.00  0.00    +0.019 C 
ENDBRANCH  23  22
ENDBRANCH  11  20
ENDBRANCH   7  11
TORSDOF 6
ENDMDL
MODEL 8
REMARK VINA RESULT:      -5.7     27.464     28.408
REMARK  Name = 40777334
REMARK  9 active torsions:
REMARK  status: ('A' for Active; 'I' for Inactive)
REMARK    1  A    between atoms: N_4  and  C_13
REMARK    2  A    between atoms: C_6  and  C_10
REMARK    3  A    between atoms: C_7  and  C_11
REMARK    4  A    between atoms: C_10  and  C_16
REMARK    5  A    between atoms: C_11  and  C_20
REMARK    6  A    between atoms: C_22  and  C_23
REMARK    7  A    between atoms: C_22  and  C_24
REMARK    8  A    between atoms: C_22  and  C_25
REMARK    9  A    between atoms: C_22  and  C_26
REMARK                            x       y       z     vdW  Elec       q    Type
REMARK                         _______ _______ _______ _____ _____    ______ ____
ROOT
ATOM      3  N   UNL     1      -2.858 -14.436  14.902  0.00  0.00    -0.316 NA
ATOM      6  C   UNL     1      -1.955 -12.129  13.300  0.00  0.00    +0.004 C 
ATOM      7  C   UNL     1      -2.904 -11.984  14.513  0.00  0.00    +0.012 C 
ATOM      8  C   UNL     1      -1.133 -13.419  13.456  0.00  0.00    +0.019 C 
ATOM      9  C   UNL     1      -3.722 -13.264  14.751  0.00  0.00    +0.085 C 
ATOM     12  C   UNL     1      -2.009 -14.640  13.730  0.00  0.00    +0.081 C 
ATOM     27  H   UNL     1      -3.435 -15.264  15.049  0.00  0.00    +0.122 HD
ENDROOT
BRANCH   6  10
ATOM     10  C   UNL     1      -2.669 -12.099  11.944  0.00  0.00    +0.099 C 
BRANCH  10  16
ATOM      1  O   UNL     1      -1.784  -9.885  11.532  0.00  0.00    -0.276 OA
ATOM      4  N   UNL     1      -3.763 -10.532  10.501  0.00  0.00    -0.312 N 
ATOM     16  C   UNL     1      -2.661 -10.718  11.322  0.00  0.00    +0.214 C 
ATOM     28  H   UNL     1      -4.432 -11.286  10.391  0.00  0.00    +0.149 HD
BRANCH   4  13
ATOM     13  C   UNL     1      -4.012  -9.303   9.779  0.00  0.00    +0.073 C 
ATOM     14  C   UNL     1      -4.605  -9.588   8.395  0.00  0.00    +0.022 C 
ATOM     15  C   UNL     1      -4.912  -8.362  10.587  0.00  0.00    +0.022 C 
ATOM     17  C   UNL     1      -6.052 -10.077   8.468  0.00  0.00    +0.002 C 
ATOM     18  C   UNL     1      -6.358  -8.853  10.656  0.00  0.00    +0.002 C 
ATOM     19  C   UNL     1      -6.930  -9.119   9.266  0.00  0.00    +0.000 C 
ENDBRANCH   4  13
ENDBRANCH  10  16
ENDBRANCH   6  10
BRANCH   7  11
ATOM     11  C   UNL     1      -3.825 -10.768  14.412  0.00  0.00    +0.064 C 
BRANCH  11  20
ATOM      2  O   UNL     1      -5.265 -10.372  17.688  0.00  0.00    -0.359 OA
ATOM      5  N   UNL     1      -4.183 -10.417  16.817  0.00  0.00    -0.083 NA
ATOM     20  C   UNL     1      -4.716 -10.655  15.615  0.00  0.00    +0.084 A 
ATOM     21  C   UNL     1      -6.116 -10.768  15.664  0.00  0.00    +0.071 A 
ATOM     23  C   UNL     1      -6.411 -10.583  16.989  0.00  0.00    +0.143 A 
BRANCH  23  22
ATOM     22  C   UNL     1      -7.660 -10.567  17.760  0.00  0.00    +0.023 C 
ATOM     24  C   UNL     1      -8.490  -9.260  17.510  0.00  0.00    +0.019 C 
ATOM     25  C   UNL     1      -7.401 -10.647  19.305  0.00  0.00    +0.019 C 
ATOM     26  C   UNL     1      -8.672 -11.738  17.468  0.00  0.00    +0.019 C 
ENDBRANCH  23  22
ENDBRANCH  11  20
ENDBRANCH   7  11
TORSDOF 6
ENDMDL
MODEL 9
REMARK VINA RESULT:      -5.6     27.556     30.215
REMARK  Name = 40777334
REMARK  9 active torsions:
REMARK  status: ('A' for Active; 'I' for Inactive)
REMARK    1  A    between atoms: N_4  and  C_13
REMARK    2  A    between atoms: C_6  and  C_10
REMARK    3  A    between atoms: C_7  and  C_11
REMARK    4  A    between atoms: C_10  and  C_16
REMARK    5  A    between atoms: C_11  and  C_20
REMARK    6  A    between atoms: C_22  and  C_23
REMARK    7  A    between atoms: C_22  and  C_24
REMARK    8  A    between atoms: C_22  and  C_25
REMARK    9  A    between atoms: C_22  and  C_26
REMARK                            x       y       z     vdW  Elec       q    Type
REMARK                         _______ _______ _______ _____ _____    ______ ____
ROOT
ATOM      3  N   UNL     1     -11.452  -7.285  14.775  0.00  0.00    -0.316 NA
ATOM      6  C   UNL     1      -9.729  -8.772  16.654  0.00  0.00    +0.004 C 
ATOM      7  C   UNL     1      -9.662  -8.971  15.122  0.00  0.00    +0.012 C 
ATOM      8  C   UNL     1     -10.291  -7.372  16.954  0.00  0.00    +0.019 C 
ATOM      9  C   UNL     1     -11.003  -8.639  14.446  0.00  0.00    +0.085 C 
ATOM     12  C   UNL     1     -11.602  -7.099  16.218  0.00  0.00    +0.081 C 
ATOM     27  H   UNL     1     -12.346  -7.105  14.318  0.00  0.00    +0.122 HD
ENDROOT
BRANCH   6  10
ATOM     10  C   UNL     1     -10.534  -9.851  17.389  0.00  0.00    +0.099 C 
BRANCH  10  16
ATOM      1  O   UNL     1     -10.399 -10.263  19.768  0.00  0.00    -0.276 OA
ATOM      4  N   UNL     1      -8.567 -10.744  18.422  0.00  0.00    -0.312 N 
ATOM     16  C   UNL     1      -9.858 -10.299  18.667  0.00  0.00    +0.214 C 
ATOM     28  H   UNL     1      -8.212 -10.737  17.471  0.00  0.00    +0.149 HD
BRANCH   4  13
ATOM     13  C   UNL     1      -7.688 -11.230  19.463  0.00  0.00    +0.073 C 
ATOM     14  C   UNL     1      -7.363 -12.715  19.260  0.00  0.00    +0.022 C 
ATOM     15  C   UNL     1      -6.411 -10.388  19.543  0.00  0.00    +0.022 C 
ATOM     17  C   UNL     1      -6.426 -12.952  18.076  0.00  0.00    +0.002 C 
ATOM     18  C   UNL     1      -5.476 -10.629  18.358  0.00  0.00    +0.002 C 
ATOM     19  C   UNL     1      -5.158 -12.112  18.184  0.00  0.00    +0.000 C 
ENDBRANCH   4  13
ENDBRANCH  10  16
ENDBRANCH   6  10
BRANCH   7  11
ATOM     11  C   UNL     1      -9.190 -10.369  14.719  0.00  0.00    +0.064 C 
BRANCH  11  20
ATOM      2  O   UNL     1      -5.976  -9.818  13.194  0.00  0.00    -0.359 OA
ATOM      5  N   UNL     1      -7.342  -9.589  13.301  0.00  0.00    -0.083 NA
ATOM     20  C   UNL     1      -7.745 -10.362  14.313  0.00  0.00    +0.084 A 
ATOM     21  C   UNL     1      -6.687 -11.096  14.878  0.00  0.00    +0.071 A 
ATOM     23  C   UNL     1      -5.598 -10.717  14.139  0.00  0.00    +0.143 A 
BRANCH  23  22
ATOM     22  C   UNL     1      -4.175 -11.077  14.169  0.00  0.00    +0.023 C 
ATOM     24  C   UNL     1      -3.410 -10.560  12.900  0.00  0.00    +0.019 C 
ATOM     25  C   UNL     1      -3.959 -12.630  14.223  0.00  0.00    +0.019 C 
ATOM     26  C   UNL     1      -3.343 -10.520  15.385  0.00  0.00    +0.019 C 
ENDBRANCH  23  22
ENDBRANCH  11  20
ENDBRANCH   7  11
TORSDOF 6
ENDMDL
MODEL 10
REMARK VINA RESULT:      -5.6     27.223     29.209
REMARK  Name = 40777334
REMARK  9 active torsions:
REMARK  status: ('A' for Active; 'I' for Inactive)
REMARK    1  A    between atoms: N_4  and  C_13
REMARK    2  A    between atoms: C_6  and  C_10
REMARK    3  A    between atoms: C_7  and  C_11
REMARK    4  A    between atoms: C_10  and  C_16
REMARK    5  A    between atoms: C_11  and  C_20
REMARK    6  A    between atoms: C_22  and  C_23
REMARK    7  A    between atoms: C_22  and  C_24
REMARK    8  A    between atoms: C_22  and  C_25
REMARK    9  A    between atoms: C_22  and  C_26
REMARK                            x       y       z     vdW  Elec       q    Type
REMARK                         _______ _______ _______ _____ _____    ______ ____
ROOT
ATOM      3  N   UNL     1      -3.061  -8.974  10.314  0.00  0.00    -0.316 NA
ATOM      6  C   UNL     1      -4.042 -11.513  11.453  0.00  0.00    +0.004 C 
ATOM      7  C   UNL     1      -3.030 -10.603  12.188  0.00  0.00    +0.012 C 
ATOM      8  C   UNL     1      -4.858 -10.663  10.466  0.00  0.00    +0.019 C 
ATOM      9  C   UNL     1      -2.203  -9.760  11.203  0.00  0.00    +0.085 C 
ATOM     12  C   UNL     1      -3.971  -9.823   9.547  0.00  0.00    +0.081 C 
ATOM     27  H   UNL     1      -2.479  -8.437   9.671  0.00  0.00    +0.122 HD
ENDROOT
BRANCH   6  10
ATOM     10  C   UNL     1      -3.400 -12.710  10.741  0.00  0.00    +0.099 C 
BRANCH  10  16
ATOM      1  O   UNL     1      -5.397 -13.898  10.070  0.00  0.00    -0.276 OA
ATOM      4  N   UNL     1      -3.853 -13.261   8.455  0.00  0.00    -0.312 N 
ATOM     16  C   UNL     1      -4.342 -13.359   9.750  0.00  0.00    +0.214 C 
ATOM     28  H   UNL     1      -2.969 -12.791   8.294  0.00  0.00    +0.149 HD
BRANCH   4  13
ATOM     13  C   UNL     1      -4.548 -13.797   7.305  0.00  0.00    +0.073 C 
ATOM     14  C   UNL     1      -5.419 -12.726   6.639  0.00  0.00    +0.022 C 
ATOM     15  C   UNL     1      -3.564 -14.414   6.306  0.00  0.00    +0.022 C 
ATOM     17  C   UNL     1      -4.590 -11.673   5.903  0.00  0.00    +0.002 C 
ATOM     18  C   UNL     1      -2.739 -13.358   5.571  0.00  0.00    +0.002 C 
ATOM     19  C   UNL     1      -3.627 -12.310   4.907  0.00  0.00    +0.000 C 
ENDBRANCH   4  13
ENDBRANCH  10  16
ENDBRANCH   6  10
BRANCH   7  11
ATOM     11  C   UNL     1      -2.112 -11.372  13.139  0.00  0.00    +0.064 C 
BRANCH  11  20
ATOM      2  O   UNL     1      -2.618 -10.837  16.663  0.00  0.00    -0.359 OA
ATOM      5  N   UNL     1      -1.874 -10.720  15.495  0.00  0.00    -0.083 NA
ATOM     20  C   UNL     1      -2.613 -11.311  14.552  0.00  0.00    +0.084 A 
ATOM     21  C   UNL     1      -3.822 -11.816  15.061  0.00  0.00    +0.071 A 
ATOM     23  C   UNL     1      -3.777 -11.492  16.391  0.00  0.00    +0.143 A 
BRANCH  23  22
ATOM     22  C   UNL     1      -4.690 -11.703  17.521  0.00  0.00    +0.023 C 
ATOM     24  C   UNL     1      -5.575 -12.984  17.331  0.00  0.00    +0.019 C 
ATOM     25  C   UNL     1      -5.677 -10.499  17.715  0.00  0.00    +0.019 C 
ATOM     26  C   UNL     1      -4.018 -11.894  18.932  0.00  0.00    +0.019 C 
ENDBRANCH  23  22
ENDBRANCH  11  20
ENDBRANCH   7  11
TORSDOF 6
ENDMDL
