REMARK  Name = 45361408
REMARK  8 active torsions:
REMARK  status: ('A' for Active; 'I' for Inactive)
REMARK    1  A    between atoms: O_1  and  C_9
REMARK    2  A    between atoms: N_4  and  C_13
REMARK    3  A    between atoms: C_6  and  C_16
REMARK    4  A    between atoms: C_8  and  C_18
REMARK    5  A    between atoms: C_11  and  C_17
REMARK    6  A    between atoms: C_17  and  C_19
REMARK    7  A    between atoms: C_17  and  C_20
REMARK    8  A    between atoms: C_21  and  C_26
REMARK                            x       y       z     vdW  Elec       q    Type
REMARK                         _______ _______ _______ _____ _____    ______ ____
ROOT
ATOM      6  C   UNL     1       0.393  -1.795   0.400  0.00  0.00    -0.027 C 
ATOM      7  C   UNL     1       0.317  -0.273   0.045  0.00  0.00    +0.028 C 
ATOM      8  C   UNL     1      -1.117   0.109  -0.472  0.00  0.00    +0.012 C 
ATOM      9  C   UNL     1       1.495   0.151  -0.879  0.00  0.00    +0.122 C 
ATOM     10  C   UNL     1       1.779  -2.113   1.010  0.00  0.00    +0.007 C 
ATOM     11  C   UNL     1       2.873  -0.263  -0.312  0.00  0.00    +0.029 C 
ATOM     12  C   UNL     1      -0.677  -2.118   1.468  0.00  0.00    +0.009 C 
ATOM     13  C   UNL     1      -2.192  -0.289   0.578  0.00  0.00    +0.076 C 
ATOM     14  C   UNL     1       2.933  -1.736   0.092  0.00  0.00    +0.007 C 
ATOM     15  C   UNL     1      -2.087  -1.744   1.033  0.00  0.00    +0.023 C 
ATOM     16  C   UNL     1       0.172  -2.705  -0.835  0.00  0.00    +0.011 C 
ATOM     18  C   UNL     1      -1.271   1.601  -0.813  0.00  0.00    +0.010 C 
ENDROOT
BRANCH  13   4
ATOM      3  O   UNL     1      -4.485   0.453   2.138  0.00  0.00    -0.270 OA
ATOM      4  N   UNL     1      -3.534  -0.057   0.086  0.00  0.00    -0.308 N 
ATOM     21  C   UNL     1      -4.578   0.298   0.923  0.00  0.00    +0.244 C 
ATOM     32  H   UNL     1      -3.709  -0.279  -0.888  0.00  0.00    +0.149 HD
BRANCH  21  26
ATOM     26  C   UNL     1      -5.899   0.474   0.268  0.00  0.00    +0.037 A 
ATOM     27  C   UNL     1      -7.072   0.274   0.996  0.00  0.00    +0.013 A 
ATOM     28  C   UNL     1      -5.967   0.840  -1.077  0.00  0.00    +0.013 A 
ATOM     29  C   UNL     1      -8.312   0.440   0.381  0.00  0.00    +0.001 A 
ATOM     30  C   UNL     1      -7.208   1.006  -1.692  0.00  0.00    +0.001 A 
ATOM     31  C   UNL     1      -8.380   0.806  -0.964  0.00  0.00    +0.000 A 
ENDBRANCH  21  26
ENDBRANCH  13   4
BRANCH   9   1
ATOM      1  O   UNL     1       1.515   1.573  -1.004  0.00  0.00    -0.391 OA
ATOM     33  H   UNL     1       1.635   1.953  -0.117  0.00  0.00    +0.210 HD
ENDBRANCH   9   1
BRANCH  11  17
ATOM     17  C   UNL     1       4.008   0.045  -1.296  0.00  0.00    +0.078 C 
ATOM     19  C   UNL     1       3.830  -0.718  -2.595  0.00  0.00    +0.017 C 
BRANCH  17  20
ATOM      2  O   UNL     1       5.799  -1.451  -0.818  0.00  0.00    -0.275 OA
ATOM      5  N   UNL     1       5.908   0.659   0.118  0.00  0.00    -0.301 N 
ATOM     20  C   UNL     1       5.319  -0.328  -0.651  0.00  0.00    +0.219 C 
ATOM     22  C   UNL     1       7.171   0.453   0.811  0.00  0.00    +0.108 C 
ATOM     23  C   UNL     1       5.396   2.005   0.351  0.00  0.00    +0.108 C 
ATOM     24  C   UNL     1       7.600   1.847   1.242  0.00  0.00    +0.020 C 
ATOM     25  C   UNL     1       6.271   2.556   1.468  0.00  0.00    +0.020 C 
ENDBRANCH  17  20
ENDBRANCH  11  17
TORSDOF 5
