MODEL 1
REMARK VINA RESULT:      -6.7      0.000      0.000
REMARK  Name = 75536820
REMARK  6 active torsions:
REMARK  status: ('A' for Active; 'I' for Inactive)
REMARK    1  A    between atoms: O_3  and  C_8
REMARK    2  A    between atoms: N_5  and  C_7
REMARK    3  A    between atoms: N_5  and  C_10
REMARK    4  A    between atoms: N_6  and  C_14
REMARK    5  A    between atoms: C_9  and  C_14
REMARK    6  A    between atoms: C_15  and  C_16
REMARK                            x       y       z     vdW  Elec       q    Type
REMARK                         _______ _______ _______ _____ _____    ______ ____
ROOT
ATOM      1  O   UNL     1      10.583   7.537  20.870  0.00  0.00    -0.371 OA
ATOM      7  C   UNL     1      11.058   9.426  22.230  0.00  0.00    +0.111 C 
ATOM      8  C   UNL     1      12.010   9.414  21.048  0.00  0.00    +0.164 C 
ATOM      9  C   UNL     1      11.254   8.524  20.071  0.00  0.00    +0.165 C 
ATOM     11  C   UNL     1      10.570   7.986  22.237  0.00  0.00    +0.181 C 
ENDROOT
BRANCH   8   3
ATOM      3  O   UNL     1      12.238  10.705  20.518  0.00  0.00    -0.388 OA
ATOM     23  H   UNL     1      11.383  11.165  20.455  0.00  0.00    +0.210 HD
ENDBRANCH   8   3
BRANCH   7   5
ATOM      5  N   UNL     1      11.686   9.816  23.482  0.00  0.00    -0.302 NA
ATOM     22  H   UNL     1      11.304   9.266  24.250  0.00  0.00    +0.123 HD
BRANCH   5  10
ATOM      2  O   UNL     1      12.402  11.833  25.542  0.00  0.00    -0.377 OA
ATOM     10  C   UNL     1      11.565  11.268  23.662  0.00  0.00    +0.106 C 
ATOM     12  C   UNL     1      11.057  11.553  25.076  0.00  0.00    +0.180 C 
ATOM     13  C   UNL     1      12.893  11.824  24.177  0.00  0.00    +0.180 C 
ENDBRANCH   5  10
ENDBRANCH   7   5
BRANCH   9  14
ATOM     14  C   UNL     1      12.156   7.841  19.060  0.00  0.00    +0.138 C 
BRANCH  14   6
ATOM      4  O   UNL     1      14.550   7.342  17.554  0.00  0.00    -0.270 OA
ATOM      6  N   UNL     1      13.474   7.637  19.589  0.00  0.00    -0.309 N 
ATOM     15  C   UNL     1      14.582   7.400  18.781  0.00  0.00    +0.244 C 
ATOM     24  H   UNL     1      13.557   7.601  20.599  0.00  0.00    +0.149 HD
BRANCH  15  16
ATOM     16  C   UNL     1      15.872   7.182  19.484  0.00  0.00    +0.037 A 
ATOM     17  C   UNL     1      16.734   6.169  19.063  0.00  0.00    +0.013 A 
ATOM     18  C   UNL     1      16.223   7.992  20.564  0.00  0.00    +0.013 A 
ATOM     19  C   UNL     1      17.946   5.966  19.723  0.00  0.00    +0.001 A 
ATOM     20  C   UNL     1      17.435   7.789  21.223  0.00  0.00    +0.001 A 
ATOM     21  C   UNL     1      18.297   6.776  20.803  0.00  0.00    +0.000 A 
ENDBRANCH  15  16
ENDBRANCH  14   6
ENDBRANCH   9  14
TORSDOF 6
ENDMDL
MODEL 2
REMARK VINA RESULT:      -6.7      1.670      2.201
REMARK  Name = 75536820
REMARK  6 active torsions:
REMARK  status: ('A' for Active; 'I' for Inactive)
REMARK    1  A    between atoms: O_3  and  C_8
REMARK    2  A    between atoms: N_5  and  C_7
REMARK    3  A    between atoms: N_5  and  C_10
REMARK    4  A    between atoms: N_6  and  C_14
REMARK    5  A    between atoms: C_9  and  C_14
REMARK    6  A    between atoms: C_15  and  C_16
REMARK                            x       y       z     vdW  Elec       q    Type
REMARK                         _______ _______ _______ _____ _____    ______ ____
ROOT
ATOM      1  O   UNL     1      12.996   6.630  20.711  0.00  0.00    -0.371 OA
ATOM      7  C   UNL     1      11.007   7.913  20.916  0.00  0.00    +0.111 C 
ATOM      8  C   UNL     1      11.690   8.264  19.607  0.00  0.00    +0.164 C 
ATOM      9  C   UNL     1      12.574   7.042  19.400  0.00  0.00    +0.165 C 
ATOM     11  C   UNL     1      12.147   7.263  21.685  0.00  0.00    +0.181 C 
ENDROOT
BRANCH   8   3
ATOM      3  O   UNL     1      10.774   8.439  18.544  0.00  0.00    -0.388 OA
ATOM     23  H   UNL     1      10.652   9.393  18.399  0.00  0.00    +0.210 HD
ENDBRANCH   8   3
BRANCH   7   5
ATOM      5  N   UNL     1      10.443   9.062  21.607  0.00  0.00    -0.302 NA
ATOM     22  H   UNL     1       9.908   9.633  20.954  0.00  0.00    +0.123 HD
BRANCH   5  10
ATOM      2  O   UNL     1      10.894  11.798  22.671  0.00  0.00    -0.377 OA
ATOM     10  C   UNL     1      11.509   9.787  22.308  0.00  0.00    +0.106 C 
ATOM     12  C   UNL     1      11.698  11.153  21.649  0.00  0.00    +0.180 C 
ATOM     13  C   UNL     1      10.900  10.583  23.463  0.00  0.00    +0.180 C 
ENDBRANCH   5  10
ENDBRANCH   7   5
BRANCH   9  14
ATOM     14  C   UNL     1      13.788   7.319  18.534  0.00  0.00    +0.138 C 
BRANCH  14   6
ATOM      4  O   UNL     1      16.202   5.767  18.443  0.00  0.00    -0.270 OA
ATOM      6  N   UNL     1      14.964   7.518  19.331  0.00  0.00    -0.309 N 
ATOM     15  C   UNL     1      16.095   6.713  19.219  0.00  0.00    +0.244 C 
ATOM     24  H   UNL     1      14.915   8.238  20.042  0.00  0.00    +0.149 HD
BRANCH  15  16
ATOM     16  C   UNL     1      17.220   7.032  20.135  0.00  0.00    +0.037 A 
ATOM     17  C   UNL     1      18.321   6.178  20.213  0.00  0.00    +0.013 A 
ATOM     18  C   UNL     1      17.178   8.187  20.915  0.00  0.00    +0.013 A 
ATOM     19  C   UNL     1      19.377   6.480  21.072  0.00  0.00    +0.001 A 
ATOM     20  C   UNL     1      18.235   8.489  21.773  0.00  0.00    +0.001 A 
ATOM     21  C   UNL     1      19.335   7.635  21.852  0.00  0.00    +0.000 A 
ENDBRANCH  15  16
ENDBRANCH  14   6
ENDBRANCH   9  14
TORSDOF 6
ENDMDL
MODEL 3
REMARK VINA RESULT:      -6.5      3.153      5.490
REMARK  Name = 75536820
REMARK  6 active torsions:
REMARK  status: ('A' for Active; 'I' for Inactive)
REMARK    1  A    between atoms: O_3  and  C_8
REMARK    2  A    between atoms: N_5  and  C_7
REMARK    3  A    between atoms: N_5  and  C_10
REMARK    4  A    between atoms: N_6  and  C_14
REMARK    5  A    between atoms: C_9  and  C_14
REMARK    6  A    between atoms: C_15  and  C_16
REMARK                            x       y       z     vdW  Elec       q    Type
REMARK                         _______ _______ _______ _____ _____    ______ ____
ROOT
ATOM      1  O   UNL     1      12.602   9.743  19.544  0.00  0.00    -0.371 OA
ATOM      7  C   UNL     1      12.602   9.394  17.195  0.00  0.00    +0.111 C 
ATOM      8  C   UNL     1      12.577   8.048  17.895  0.00  0.00    +0.164 C 
ATOM      9  C   UNL     1      12.056   8.442  19.271  0.00  0.00    +0.165 C 
ATOM     11  C   UNL     1      13.085  10.306  18.312  0.00  0.00    +0.181 C 
ENDROOT
BRANCH   8   3
ATOM      3  O   UNL     1      11.728   7.116  17.256  0.00  0.00    -0.388 OA
ATOM     23  H   UNL     1      11.879   6.241  17.653  0.00  0.00    +0.210 HD
ENDBRANCH   8   3
BRANCH   7   5
ATOM      5  N   UNL     1      13.464   9.428  16.025  0.00  0.00    -0.302 NA
ATOM     22  H   UNL     1      14.144   8.670  16.070  0.00  0.00    +0.123 HD
BRANCH   5  10
ATOM      2  O   UNL     1      14.659  11.085  13.868  0.00  0.00    -0.377 OA
ATOM     10  C   UNL     1      14.060  10.763  15.891  0.00  0.00    +0.106 C 
ATOM     12  C   UNL     1      15.346  10.654  15.071  0.00  0.00    +0.180 C 
ATOM     13  C   UNL     1      13.489  11.446  14.646  0.00  0.00    +0.180 C 
ENDBRANCH   5  10
ENDBRANCH   7   5
BRANCH   9  14
ATOM     14  C   UNL     1      12.461   7.474  20.367  0.00  0.00    +0.138 C 
BRANCH  14   6
ATOM      4  O   UNL     1      14.831   8.407  21.692  0.00  0.00    -0.270 OA
ATOM      6  N   UNL     1      13.797   6.992  20.170  0.00  0.00    -0.309 N 
ATOM     15  C   UNL     1      14.892   7.506  20.860  0.00  0.00    +0.244 C 
ATOM     24  H   UNL     1      13.928   6.297  19.444  0.00  0.00    +0.149 HD
BRANCH  15  16
ATOM     16  C   UNL     1      16.214   6.917  20.523  0.00  0.00    +0.037 A 
ATOM     17  C   UNL     1      17.289   7.071  21.399  0.00  0.00    +0.013 A 
ATOM     18  C   UNL     1      16.379   6.209  19.333  0.00  0.00    +0.013 A 
ATOM     19  C   UNL     1      18.530   6.517  21.082  0.00  0.00    +0.001 A 
ATOM     20  C   UNL     1      17.619   5.655  19.018  0.00  0.00    +0.001 A 
ATOM     21  C   UNL     1      18.695   5.809  19.892  0.00  0.00    +0.000 A 
ENDBRANCH  15  16
ENDBRANCH  14   6
ENDBRANCH   9  14
TORSDOF 6
ENDMDL
MODEL 4
REMARK VINA RESULT:      -6.2      2.128      7.067
REMARK  Name = 75536820
REMARK  6 active torsions:
REMARK  status: ('A' for Active; 'I' for Inactive)
REMARK    1  A    between atoms: O_3  and  C_8
REMARK    2  A    between atoms: N_5  and  C_7
REMARK    3  A    between atoms: N_5  and  C_10
REMARK    4  A    between atoms: N_6  and  C_14
REMARK    5  A    between atoms: C_9  and  C_14
REMARK    6  A    between atoms: C_15  and  C_16
REMARK                            x       y       z     vdW  Elec       q    Type
REMARK                         _______ _______ _______ _____ _____    ______ ____
ROOT
ATOM      1  O   UNL     1      11.091   8.938  20.362  0.00  0.00    -0.371 OA
ATOM      7  C   UNL     1      12.407   7.055  19.758  0.00  0.00    +0.111 C 
ATOM      8  C   UNL     1      12.095   6.986  21.242  0.00  0.00    +0.164 C 
ATOM      9  C   UNL     1      10.878   7.897  21.329  0.00  0.00    +0.165 C 
ATOM     11  C   UNL     1      12.131   8.521  19.461  0.00  0.00    +0.181 C 
ENDROOT
BRANCH   8   3
ATOM      3  O   UNL     1      11.805   5.673  21.678  0.00  0.00    -0.388 OA
ATOM     23  H   UNL     1      11.806   5.086  20.903  0.00  0.00    +0.210 HD
ENDBRANCH   8   3
BRANCH   7   5
ATOM      5  N   UNL     1      13.765   6.657  19.427  0.00  0.00    -0.302 NA
ATOM     22  H   UNL     1      13.823   5.642  19.353  0.00  0.00    +0.123 HD
BRANCH   5  10
ATOM      2  O   UNL     1      16.702   7.015  19.691  0.00  0.00    -0.377 OA
ATOM     10  C   UNL     1      14.700   7.245  20.394  0.00  0.00    +0.106 C 
ATOM     12  C   UNL     1      15.862   6.276  20.615  0.00  0.00    +0.180 C 
ATOM     13  C   UNL     1      15.731   8.091  19.646  0.00  0.00    +0.180 C 
ENDBRANCH   5  10
ENDBRANCH   7   5
BRANCH   9  14
ATOM     14  C   UNL     1      10.681   8.506  22.705  0.00  0.00    +0.138 C 
BRANCH  14   6
ATOM      4  O   UNL     1      12.482  10.640  23.375  0.00  0.00    -0.270 OA
ATOM      6  N   UNL     1      10.411   9.912  22.620  0.00  0.00    -0.309 N 
ATOM     15  C   UNL     1      11.348  10.881  22.967  0.00  0.00    +0.244 C 
ATOM     24  H   UNL     1       9.469  10.179  22.359  0.00  0.00    +0.149 HD
BRANCH  15  16
ATOM     16  C   UNL     1      10.905  12.294  22.849  0.00  0.00    +0.037 A 
ATOM     17  C   UNL     1      10.377  12.955  23.959  0.00  0.00    +0.013 A 
ATOM     18  C   UNL     1      11.018  12.961  21.629  0.00  0.00    +0.013 A 
ATOM     19  C   UNL     1       9.962  14.282  23.847  0.00  0.00    +0.001 A 
ATOM     20  C   UNL     1      10.604  14.287  21.518  0.00  0.00    +0.001 A 
ATOM     21  C   UNL     1      10.075  14.949  22.627  0.00  0.00    +0.000 A 
ENDBRANCH  15  16
ENDBRANCH  14   6
ENDBRANCH   9  14
TORSDOF 6
ENDMDL
MODEL 5
REMARK VINA RESULT:      -6.2      2.760      6.856
REMARK  Name = 75536820
REMARK  6 active torsions:
REMARK  status: ('A' for Active; 'I' for Inactive)
REMARK    1  A    between atoms: O_3  and  C_8
REMARK    2  A    between atoms: N_5  and  C_7
REMARK    3  A    between atoms: N_5  and  C_10
REMARK    4  A    between atoms: N_6  and  C_14
REMARK    5  A    between atoms: C_9  and  C_14
REMARK    6  A    between atoms: C_15  and  C_16
REMARK                            x       y       z     vdW  Elec       q    Type
REMARK                         _______ _______ _______ _____ _____    ______ ____
ROOT
ATOM      1  O   UNL     1      16.230   6.026  19.127  0.00  0.00    -0.371 OA
ATOM      7  C   UNL     1      17.159   6.512  21.259  0.00  0.00    +0.111 C 
ATOM      8  C   UNL     1      15.820   7.215  21.130  0.00  0.00    +0.164 C 
ATOM      9  C   UNL     1      15.168   6.404  20.019  0.00  0.00    +0.165 C 
ATOM     11  C   UNL     1      17.485   6.217  19.803  0.00  0.00    +0.181 C 
ENDROOT
BRANCH   8   3
ATOM      3  O   UNL     1      15.066   7.174  22.325  0.00  0.00    -0.388 OA
ATOM     23  H   UNL     1      15.036   8.072  22.699  0.00  0.00    +0.210 HD
ENDBRANCH   8   3
BRANCH   7   5
ATOM      5  N   UNL     1      18.179   7.313  21.915  0.00  0.00    -0.302 NA
ATOM     22  H   UNL     1      17.931   8.300  21.868  0.00  0.00    +0.123 HD
BRANCH   5  10
ATOM      2  O   UNL     1      21.026   7.540  22.732  0.00  0.00    -0.377 OA
ATOM     10  C   UNL     1      19.495   6.995  21.348  0.00  0.00    +0.106 C 
ATOM     12  C   UNL     1      20.433   8.181  21.573  0.00  0.00    +0.180 C 
ATOM     13  C   UNL     1      20.346   6.299  22.412  0.00  0.00    +0.180 C 
ENDBRANCH   5  10
ENDBRANCH   7   5
BRANCH   9  14
ATOM     14  C   UNL     1      14.106   7.174  19.256  0.00  0.00    +0.138 C 
BRANCH  14   6
ATOM      4  O   UNL     1      11.374   7.524  20.066  0.00  0.00    -0.270 OA
ATOM      6  N   UNL     1      13.578   8.252  20.042  0.00  0.00    -0.309 N 
ATOM     15  C   UNL     1      12.232   8.341  20.389  0.00  0.00    +0.244 C 
ATOM     24  H   UNL     1      14.220   8.998  20.282  0.00  0.00    +0.149 HD
BRANCH  15  16
ATOM     16  C   UNL     1      11.838   9.532  21.184  0.00  0.00    +0.037 A 
ATOM     17  C   UNL     1      11.180   9.370  22.404  0.00  0.00    +0.013 A 
ATOM     18  C   UNL     1      12.128  10.812  20.713  0.00  0.00    +0.013 A 
ATOM     19  C   UNL     1      10.812  10.490  23.151  0.00  0.00    +0.001 A 
ATOM     20  C   UNL     1      11.760  11.931  21.460  0.00  0.00    +0.001 A 
ATOM     21  C   UNL     1      11.102  11.770  22.679  0.00  0.00    +0.000 A 
ENDBRANCH  15  16
ENDBRANCH  14   6
ENDBRANCH   9  14
TORSDOF 6
ENDMDL
MODEL 6
REMARK VINA RESULT:      -6.1      1.600      2.379
REMARK  Name = 75536820
REMARK  6 active torsions:
REMARK  status: ('A' for Active; 'I' for Inactive)
REMARK    1  A    between atoms: O_3  and  C_8
REMARK    2  A    between atoms: N_5  and  C_7
REMARK    3  A    between atoms: N_5  and  C_10
REMARK    4  A    between atoms: N_6  and  C_14
REMARK    5  A    between atoms: C_9  and  C_14
REMARK    6  A    between atoms: C_15  and  C_16
REMARK                            x       y       z     vdW  Elec       q    Type
REMARK                         _______ _______ _______ _____ _____    ______ ____
ROOT
ATOM      1  O   UNL     1      11.690   7.512  19.650  0.00  0.00    -0.371 OA
ATOM      7  C   UNL     1      12.110   9.789  20.182  0.00  0.00    +0.111 C 
ATOM      8  C   UNL     1      13.340   8.966  20.521  0.00  0.00    +0.164 C 
ATOM      9  C   UNL     1      13.111   7.729  19.663  0.00  0.00    +0.165 C 
ATOM     11  C   UNL     1      11.040   8.712  20.105  0.00  0.00    +0.181 C 
ENDROOT
BRANCH   8   3
ATOM      3  O   UNL     1      14.545   9.624  20.187  0.00  0.00    -0.388 OA
ATOM     23  H   UNL     1      15.288   9.076  20.492  0.00  0.00    +0.210 HD
ENDBRANCH   8   3
BRANCH   7   5
ATOM      5  N   UNL     1      11.807  10.818  21.164  0.00  0.00    -0.302 NA
ATOM     22  H   UNL     1      12.290  11.682  20.923  0.00  0.00    +0.123 HD
BRANCH   5  10
ATOM      2  O   UNL     1      11.576  11.789  23.962  0.00  0.00    -0.377 OA
ATOM     10  C   UNL     1      12.105  10.315  22.511  0.00  0.00    +0.106 C 
ATOM     12  C   UNL     1      12.814  11.413  23.305  0.00  0.00    +0.180 C 
ATOM     13  C   UNL     1      10.919  10.610  23.431  0.00  0.00    +0.180 C 
ENDBRANCH   5  10
ENDBRANCH   7   5
BRANCH   9  14
ATOM     14  C   UNL     1      13.814   6.493  20.192  0.00  0.00    +0.138 C 
BRANCH  14   6
ATOM      4  O   UNL     1      16.229   5.901  18.755  0.00  0.00    -0.270 OA
ATOM      6  N   UNL     1      15.154   6.792  20.609  0.00  0.00    -0.309 N 
ATOM     15  C   UNL     1      16.271   6.467  19.844  0.00  0.00    +0.244 C 
ATOM     24  H   UNL     1      15.263   7.196  21.532  0.00  0.00    +0.149 HD
BRANCH  15  16
ATOM     16  C   UNL     1      17.590   6.820  20.428  0.00  0.00    +0.037 A 
ATOM     17  C   UNL     1      17.718   7.959  21.225  0.00  0.00    +0.013 A 
ATOM     18  C   UNL     1      18.700   6.013  20.182  0.00  0.00    +0.013 A 
ATOM     19  C   UNL     1      18.957   8.289  21.774  0.00  0.00    +0.001 A 
ATOM     20  C   UNL     1      19.939   6.344  20.732  0.00  0.00    +0.001 A 
ATOM     21  C   UNL     1      20.067   7.482  21.528  0.00  0.00    +0.000 A 
ENDBRANCH  15  16
ENDBRANCH  14   6
ENDBRANCH   9  14
TORSDOF 6
ENDMDL
MODEL 7
REMARK VINA RESULT:      -6.0      4.690      7.331
REMARK  Name = 75536820
REMARK  6 active torsions:
REMARK  status: ('A' for Active; 'I' for Inactive)
REMARK    1  A    between atoms: O_3  and  C_8
REMARK    2  A    between atoms: N_5  and  C_7
REMARK    3  A    between atoms: N_5  and  C_10
REMARK    4  A    between atoms: N_6  and  C_14
REMARK    5  A    between atoms: C_9  and  C_14
REMARK    6  A    between atoms: C_15  and  C_16
REMARK                            x       y       z     vdW  Elec       q    Type
REMARK                         _______ _______ _______ _____ _____    ______ ____
ROOT
ATOM      1  O   UNL     1      18.628   6.094  19.679  0.00  0.00    -0.371 OA
ATOM      7  C   UNL     1      16.358   6.747  19.922  0.00  0.00    +0.111 C 
ATOM      8  C   UNL     1      17.059   6.888  21.260  0.00  0.00    +0.164 C 
ATOM      9  C   UNL     1      18.516   6.957  20.822  0.00  0.00    +0.165 C 
ATOM     11  C   UNL     1      17.308   5.819  19.181  0.00  0.00    +0.181 C 
ENDROOT
BRANCH   8   3
ATOM      3  O   UNL     1      16.664   8.049  21.963  0.00  0.00    -0.388 OA
ATOM     23  H   UNL     1      17.391   8.694  21.924  0.00  0.00    +0.210 HD
ENDBRANCH   8   3
BRANCH   7   5
ATOM      5  N   UNL     1      15.009   6.213  20.023  0.00  0.00    -0.302 NA
ATOM     22  H   UNL     1      14.861   5.503  19.307  0.00  0.00    +0.123 HD
BRANCH   5  10
ATOM      2  O   UNL     1      12.124   6.570  19.413  0.00  0.00    -0.377 OA
ATOM     10  C   UNL     1      14.040   7.315  19.987  0.00  0.00    +0.106 C 
ATOM     12  C   UNL     1      13.216   7.211  18.704  0.00  0.00    +0.180 C 
ATOM     13  C   UNL     1      12.752   6.874  20.684  0.00  0.00    +0.180 C 
ENDBRANCH   5  10
ENDBRANCH   7   5
BRANCH   9  14
ATOM     14  C   UNL     1      19.488   6.513  21.899  0.00  0.00    +0.138 C 
BRANCH  14   6
ATOM      4  O   UNL     1      21.533   5.135  23.370  0.00  0.00    -0.270 OA
ATOM      6  N   UNL     1      20.545   5.714  21.351  0.00  0.00    -0.309 N 
ATOM     15  C   UNL     1      21.498   5.079  22.143  0.00  0.00    +0.244 C 
ATOM     24  H   UNL     1      20.616   5.684  20.341  0.00  0.00    +0.149 HD
BRANCH  15  16
ATOM     16  C   UNL     1      22.544   4.309  21.421  0.00  0.00    +0.037 A 
ATOM     17  C   UNL     1      22.613   2.923  21.563  0.00  0.00    +0.013 A 
ATOM     18  C   UNL     1      23.454   4.972  20.599  0.00  0.00    +0.013 A 
ATOM     19  C   UNL     1      23.594   2.201  20.884  0.00  0.00    +0.001 A 
ATOM     20  C   UNL     1      24.435   4.250  19.920  0.00  0.00    +0.001 A 
ATOM     21  C   UNL     1      24.505   2.864  20.062  0.00  0.00    +0.000 A 
ENDBRANCH  15  16
ENDBRANCH  14   6
ENDBRANCH   9  14
TORSDOF 6
ENDMDL
MODEL 8
REMARK VINA RESULT:      -5.9     28.411     30.659
REMARK  Name = 75536820
REMARK  6 active torsions:
REMARK  status: ('A' for Active; 'I' for Inactive)
REMARK    1  A    between atoms: O_3  and  C_8
REMARK    2  A    between atoms: N_5  and  C_7
REMARK    3  A    between atoms: N_5  and  C_10
REMARK    4  A    between atoms: N_6  and  C_14
REMARK    5  A    between atoms: C_9  and  C_14
REMARK    6  A    between atoms: C_15  and  C_16
REMARK                            x       y       z     vdW  Elec       q    Type
REMARK                         _______ _______ _______ _____ _____    ______ ____
ROOT
ATOM      1  O   UNL     1     -15.396   4.766  32.033  0.00  0.00    -0.371 OA
ATOM      7  C   UNL     1     -14.730   2.509  31.710  0.00  0.00    +0.111 C 
ATOM      8  C   UNL     1     -14.658   2.839  33.189  0.00  0.00    +0.164 C 
ATOM      9  C   UNL     1     -15.579   4.049  33.265  0.00  0.00    +0.165 C 
ATOM     11  C   UNL     1     -14.741   3.898  31.091  0.00  0.00    +0.181 C 
ENDROOT
BRANCH   8   3
ATOM      3  O   UNL     1     -15.110   1.779  34.007  0.00  0.00    -0.388 OA
ATOM     23  H   UNL     1     -14.366   1.479  34.559  0.00  0.00    +0.210 HD
ENDBRANCH   8   3
BRANCH   7   5
ATOM      5  N   UNL     1     -13.624   1.690  31.239  0.00  0.00    -0.302 NA
ATOM     22  H   UNL     1     -12.763   2.234  31.239  0.00  0.00    +0.123 HD
BRANCH   5  10
ATOM      2  O   UNL     1     -14.917  -0.786  30.228  0.00  0.00    -0.377 OA
ATOM     10  C   UNL     1     -13.966   1.103  29.938  0.00  0.00    +0.106 C 
ATOM     12  C   UNL     1     -13.558  -0.371  29.935  0.00  0.00    +0.180 C 
ATOM     13  C   UNL     1     -15.396   0.562  29.990  0.00  0.00    +0.180 C 
ENDBRANCH   5  10
ENDBRANCH   7   5
BRANCH   9  14
ATOM     14  C   UNL     1     -15.278   4.961  34.440  0.00  0.00    +0.138 C 
BRANCH  14   6
ATOM      4  O   UNL     1     -15.485   7.750  33.792  0.00  0.00    -0.270 OA
ATOM      6  N   UNL     1     -14.195   5.854  34.143  0.00  0.00    -0.309 N 
ATOM     15  C   UNL     1     -14.389   7.198  33.838  0.00  0.00    +0.244 C 
ATOM     24  H   UNL     1     -13.269   5.445  34.094  0.00  0.00    +0.149 HD
BRANCH  15  16
ATOM     16  C   UNL     1     -13.167   7.983  33.528  0.00  0.00    +0.037 A 
ATOM     17  C   UNL     1     -12.640   7.973  32.236  0.00  0.00    +0.013 A 
ATOM     18  C   UNL     1     -12.548   8.733  34.527  0.00  0.00    +0.013 A 
ATOM     19  C   UNL     1     -11.493   8.711  31.946  0.00  0.00    +0.001 A 
ATOM     20  C   UNL     1     -11.402   9.472  34.236  0.00  0.00    +0.001 A 
ATOM     21  C   UNL     1     -10.874   9.461  32.945  0.00  0.00    +0.000 A 
ENDBRANCH  15  16
ENDBRANCH  14   6
ENDBRANCH   9  14
TORSDOF 6
ENDMDL
MODEL 9
REMARK VINA RESULT:      -5.9     27.638     30.420
REMARK  Name = 75536820
REMARK  6 active torsions:
REMARK  status: ('A' for Active; 'I' for Inactive)
REMARK    1  A    between atoms: O_3  and  C_8
REMARK    2  A    between atoms: N_5  and  C_7
REMARK    3  A    between atoms: N_5  and  C_10
REMARK    4  A    between atoms: N_6  and  C_14
REMARK    5  A    between atoms: C_9  and  C_14
REMARK    6  A    between atoms: C_15  and  C_16
REMARK                            x       y       z     vdW  Elec       q    Type
REMARK                         _______ _______ _______ _____ _____    ______ ____
ROOT
ATOM      1  O   UNL     1       0.849   5.257  -4.874  0.00  0.00    -0.371 OA
ATOM      7  C   UNL     1       3.129   5.273  -5.540  0.00  0.00    +0.111 C 
ATOM      8  C   UNL     1       2.750   3.869  -5.103  0.00  0.00    +0.164 C 
ATOM      9  C   UNL     1       1.234   3.920  -5.234  0.00  0.00    +0.165 C 
ATOM     11  C   UNL     1       2.018   6.095  -4.907  0.00  0.00    +0.181 C 
ENDROOT
BRANCH   8   3
ATOM      3  O   UNL     1       3.318   2.870  -5.926  0.00  0.00    -0.388 OA
ATOM     23  H   UNL     1       4.280   3.011  -5.958  0.00  0.00    +0.210 HD
ENDBRANCH   8   3
BRANCH   7   5
ATOM      5  N   UNL     1       4.454   5.683  -5.103  0.00  0.00    -0.302 NA
ATOM     22  H   UNL     1       4.920   4.910  -4.630  0.00  0.00    +0.123 HD
BRANCH   5  10
ATOM      2  O   UNL     1       6.264   7.403  -3.494  0.00  0.00    -0.377 OA
ATOM     10  C   UNL     1       4.350   6.907  -4.300  0.00  0.00    +0.106 C 
ATOM     12  C   UNL     1       5.101   6.702  -2.983  0.00  0.00    +0.180 C 
ATOM     13  C   UNL     1       5.509   7.840  -4.653  0.00  0.00    +0.180 C 
ENDBRANCH   5  10
ENDBRANCH   7   5
BRANCH   9  14
ATOM     14  C   UNL     1       0.520   2.922  -4.342  0.00  0.00    +0.138 C 
BRANCH  14   6
ATOM      4  O   UNL     1       1.238   0.610  -5.886  0.00  0.00    -0.270 OA
ATOM      6  N   UNL     1      -0.369   2.088  -5.098  0.00  0.00    -0.309 N 
ATOM     15  C   UNL     1       0.069   0.982  -5.820  0.00  0.00    +0.244 C 
ATOM     24  H   UNL     1      -1.338   2.381  -5.144  0.00  0.00    +0.149 HD
BRANCH  15  16
ATOM     16  C   UNL     1      -0.973   0.236  -6.573  0.00  0.00    +0.037 A 
ATOM     17  C   UNL     1      -1.220  -1.105  -6.280  0.00  0.00    +0.013 A 
ATOM     18  C   UNL     1      -1.706   0.878  -7.570  0.00  0.00    +0.013 A 
ATOM     19  C   UNL     1      -2.199  -1.804  -6.986  0.00  0.00    +0.001 A 
ATOM     20  C   UNL     1      -2.686   0.180  -8.275  0.00  0.00    +0.001 A 
ATOM     21  C   UNL     1      -2.933  -1.162  -7.983  0.00  0.00    +0.000 A 
ENDBRANCH  15  16
ENDBRANCH  14   6
ENDBRANCH   9  14
TORSDOF 6
ENDMDL
MODEL 10
REMARK VINA RESULT:      -5.9      1.795      6.548
REMARK  Name = 75536820
REMARK  6 active torsions:
REMARK  status: ('A' for Active; 'I' for Inactive)
REMARK    1  A    between atoms: O_3  and  C_8
REMARK    2  A    between atoms: N_5  and  C_7
REMARK    3  A    between atoms: N_5  and  C_10
REMARK    4  A    between atoms: N_6  and  C_14
REMARK    5  A    between atoms: C_9  and  C_14
REMARK    6  A    between atoms: C_15  and  C_16
REMARK                            x       y       z     vdW  Elec       q    Type
REMARK                         _______ _______ _______ _____ _____    ______ ____
ROOT
ATOM      1  O   UNL     1      13.173   8.587  18.673  0.00  0.00    -0.371 OA
ATOM      7  C   UNL     1      14.437   6.939  19.826  0.00  0.00    +0.111 C 
ATOM      8  C   UNL     1      13.108   7.130  20.534  0.00  0.00    +0.164 C 
ATOM      9  C   UNL     1      12.273   7.759  19.428  0.00  0.00    +0.165 C 
ATOM     11  C   UNL     1      14.523   8.213  19.000  0.00  0.00    +0.181 C 
ENDROOT
BRANCH   8   3
ATOM      3  O   UNL     1      12.552   5.912  20.988  0.00  0.00    -0.388 OA
ATOM     23  H   UNL     1      11.823   6.116  21.599  0.00  0.00    +0.210 HD
ENDBRANCH   8   3
BRANCH   7   5
ATOM      5  N   UNL     1      15.563   6.774  20.730  0.00  0.00    -0.302 NA
ATOM     22  H   UNL     1      15.362   7.221  21.623  0.00  0.00    +0.123 HD
BRANCH   5  10
ATOM      2  O   UNL     1      18.397   5.912  20.500  0.00  0.00    -0.377 OA
ATOM     10  C   UNL     1      16.790   7.253  20.080  0.00  0.00    +0.106 C 
ATOM     12  C   UNL     1      17.946   7.166  21.076  0.00  0.00    +0.180 C 
ATOM     13  C   UNL     1      17.482   6.078  19.386  0.00  0.00    +0.180 C 
ENDBRANCH   5  10
ENDBRANCH   7   5
BRANCH   9  14
ATOM     14  C   UNL     1      11.120   8.597  19.949  0.00  0.00    +0.138 C 
BRANCH  14   6
ATOM      4  O   UNL     1      10.537   8.561  22.760  0.00  0.00    -0.270 OA
ATOM      6  N   UNL     1      11.564   9.547  20.928  0.00  0.00    -0.309 N 
ATOM     15  C   UNL     1      11.232   9.450  22.276  0.00  0.00    +0.244 C 
ATOM     24  H   UNL     1      12.083  10.346  20.582  0.00  0.00    +0.149 HD
BRANCH  15  16
ATOM     16  C   UNL     1      11.749  10.529  23.157  0.00  0.00    +0.037 A 
ATOM     17  C   UNL     1      10.941  11.051  24.168  0.00  0.00    +0.013 A 
ATOM     18  C   UNL     1      13.042  11.018  22.976  0.00  0.00    +0.013 A 
ATOM     19  C   UNL     1      11.428  12.063  24.996  0.00  0.00    +0.001 A 
ATOM     20  C   UNL     1      13.529  12.028  23.805  0.00  0.00    +0.001 A 
ATOM     21  C   UNL     1      12.721  12.551  24.815  0.00  0.00    +0.000 A 
ENDBRANCH  15  16
ENDBRANCH  14   6
ENDBRANCH   9  14
TORSDOF 6
ENDMDL
