REMARK  Name = 38030116
REMARK  12 active torsions:
REMARK  status: ('A' for Active; 'I' for Inactive)
REMARK    1  A    between atoms: O_1  and  C_13
REMARK    2  A    between atoms: O_3  and  C_19
REMARK    3  A    between atoms: O_3  and  C_20
REMARK    4  A    between atoms: N_4  and  C_18
REMARK    5  A    between atoms: C_5  and  C_9
REMARK    6  A    between atoms: C_7  and  C_13
REMARK    7  A    between atoms: C_8  and  C_12
REMARK    8  A    between atoms: C_9  and  C_14
REMARK    9  A    between atoms: C_9  and  C_15
REMARK   10  A    between atoms: C_10  and  C_16
REMARK   11  A    between atoms: C_12  and  C_17
REMARK   12  A    between atoms: C_18  and  C_19
REMARK                            x       y       z     vdW  Elec       q    Type
REMARK                         _______ _______ _______ _____ _____    ______ ____
ROOT
ATOM      5  C   UNL     1       1.444  -0.936   0.135  0.00  0.00    +0.001 C 
ATOM      6  C   UNL     1       0.546  -0.252  -0.907  0.00  0.00    +0.012 C 
ATOM      7  C   UNL     1       2.887  -0.379   0.054  0.00  0.00    +0.040 C 
ATOM      8  C   UNL     1       0.490   1.276  -0.716  0.00  0.00    +0.023 C 
ATOM     10  C   UNL     1       1.871   1.869  -0.519  0.00  0.00    -0.073 C 
ATOM     11  C   UNL     1       2.932   1.112  -0.188  0.00  0.00    -0.022 C 
ATOM     16  C   UNL     1       2.013   3.346  -0.755  0.00  0.00    +0.039 C 
ENDROOT
BRANCH   5   9
ATOM      9  C   UNL     1       1.408  -2.454  -0.067  0.00  0.00    -0.013 C 
ATOM     14  C   UNL     1       0.164  -3.048   0.585  0.00  0.00    +0.007 C 
ATOM     15  C   UNL     1       1.456  -2.795  -1.552  0.00  0.00    +0.007 C 
ENDBRANCH   5   9
BRANCH   8  12
ATOM     12  C   UNL     1      -0.440   1.654   0.441  0.00  0.00    +0.103 C 
BRANCH  12  17
ATOM      2  O   UNL     1      -2.335   1.641  -1.063  0.00  0.00    -0.276 OA
ATOM      4  N   UNL     1      -2.657   1.161   1.187  0.00  0.00    -0.313 N 
ATOM     17  C   UNL     1      -1.898   1.492   0.075  0.00  0.00    +0.214 C 
ATOM     22  H   UNL     1      -2.205   1.060   2.091  0.00  0.00    +0.149 HD
BRANCH   4  18
ATOM     18  C   UNL     1      -4.085   0.946   1.133  0.00  0.00    +0.132 C 
BRANCH  18  19
ATOM     19  C   UNL     1      -4.421  -0.507   0.851  0.00  0.00    +0.178 C 
BRANCH  19   3
ATOM      3  O   UNL     1      -3.891  -0.876  -0.416  0.00  0.00    -0.381 OA
ATOM     20  C   UNL     1      -4.184  -2.231  -0.729  0.00  0.00    +0.194 C 
ENDBRANCH  19   3
ENDBRANCH  18  19
ENDBRANCH   4  18
ENDBRANCH  12  17
ENDBRANCH   8  12
BRANCH   7  13
ATOM     13  C   UNL     1       3.681  -0.715   1.322  0.00  0.00    +0.163 C 
BRANCH  13   1
ATOM      1  O   UNL     1       5.020  -0.304   1.128  0.00  0.00    -0.394 OA
ATOM     21  H   UNL     1       5.507  -0.515   1.942  0.00  0.00    +0.209 HD
ENDBRANCH  13   1
ENDBRANCH   7  13
TORSDOF 8
