MODEL 1
REMARK VINA RESULT:      -6.9      0.000      0.000
REMARK  Name = 7127917
REMARK  13 active torsions:
REMARK  status: ('A' for Active; 'I' for Inactive)
REMARK    1  A    between atoms: O_2  and  C_12
REMARK    2  A    between atoms: O_3  and  C_14
REMARK    3  A    between atoms: O_7  and  C_29
REMARK    4  A    between atoms: O_7  and  C_35
REMARK    5  A    between atoms: O_8  and  C_33
REMARK    6  A    between atoms: O_8  and  C_36
REMARK    7  A    between atoms: N_9  and  C_13
REMARK    8  A    between atoms: N_10  and  C_19
REMARK    9  A    between atoms: C_16  and  C_18
REMARK   10  A    between atoms: C_19  and  C_21
REMARK   11  A    between atoms: C_19  and  C_24
REMARK   12  A    between atoms: C_20  and  C_22
REMARK   13  A    between atoms: C_21  and  C_23
REMARK                            x       y       z     vdW  Elec       q    Type
REMARK                         _______ _______ _______ _____ _____    ______ ____
ROOT
ATOM     12  C   UNL     1      12.920   9.463  15.486  0.00  0.00    +0.167 C 
ATOM     13  C   UNL     1      13.319  10.504  16.550  0.00  0.00    +0.128 C 
ATOM     14  C   UNL     1      11.540   8.862  15.776  0.00  0.00    +0.149 C 
ATOM     15  C   UNL     1      11.462   8.243  17.182  0.00  0.00    +0.074 C 
ATOM     16  C   UNL     1      12.193   9.039  18.225  0.00  0.00    +0.015 C 
ATOM     17  C   UNL     1      13.022  10.059  17.956  0.00  0.00    +0.006 C 
ENDROOT
BRANCH  16  18
ATOM      4  O   UNL     1      11.191   7.805  19.956  0.00  0.00    -0.271 OA
ATOM     10  N   UNL     1      12.733   9.467  20.499  0.00  0.00    -0.300 N 
ATOM     18  C   UNL     1      11.977   8.695  19.634  0.00  0.00    +0.241 C 
ATOM     40  H   UNL     1      13.330  10.197  20.120  0.00  0.00    +0.150 HD
BRANCH  10  19
ATOM     19  C   UNL     1      12.688   9.315  21.936  0.00  0.00    +0.163 C 
BRANCH  19  24
ATOM      6  O   UNL     1      11.253  11.273  21.809  0.00  0.00    -0.274 OA
ATOM     11  N   UNL     1      11.225  10.012  23.730  0.00  0.00    -0.328 N 
ATOM     24  C   UNL     1      11.670  10.318  22.460  0.00  0.00    +0.231 C 
ATOM     41  H   UNL     1      10.532  10.592  24.192  0.00  0.00    +0.145 HD
ATOM     42  H   UNL     1      11.576   9.217  24.255  0.00  0.00    +0.145 HD
ENDBRANCH  19  24
BRANCH  19  21
ATOM     21  C   UNL     1      14.055   9.552  22.587  0.00  0.00    +0.067 C 
BRANCH  21  23
ATOM     23  C   UNL     1      15.161   8.767  21.924  0.00  0.00    -0.045 A 
ATOM     27  C   UNL     1      14.983   7.415  21.680  0.00  0.00    +0.007 A 
ATOM     28  C   UNL     1      16.334   9.415  21.570  0.00  0.00    +0.007 A 
ATOM     30  C   UNL     1      16.004   6.690  21.065  0.00  0.00    +0.046 A 
ATOM     31  C   UNL     1      17.356   8.689  20.955  0.00  0.00    +0.046 A 
ATOM     33  C   UNL     1      17.191   7.328  20.704  0.00  0.00    +0.120 A 
BRANCH  33   8
ATOM      8  O   UNL     1      18.188   6.621  20.105  0.00  0.00    -0.495 OA
ATOM     36  C   UNL     1      17.802   5.639  19.145  0.00  0.00    +0.277 C 
ENDBRANCH  33   8
ENDBRANCH  21  23
ENDBRANCH  19  21
ENDBRANCH  10  19
ENDBRANCH  16  18
BRANCH  13   9
ATOM      5  O   UNL     1      14.405  12.984  15.596  0.00  0.00    -0.270 OA
ATOM      9  N   UNL     1      14.715  10.854  16.456  0.00  0.00    -0.302 N 
ATOM     20  C   UNL     1      15.146  12.083  15.980  0.00  0.00    +0.246 C 
ATOM     37  H   UNL     1      15.407  10.151  16.705  0.00  0.00    +0.150 HD
BRANCH  20  22
ATOM      1 BR   UNL     1      16.441  13.465  18.547  0.00  0.00    -0.050 Br
ATOM     22  C   UNL     1      16.617  12.278  15.921  0.00  0.00    +0.054 A 
ATOM     25  C   UNL     1      17.259  11.845  14.776  0.00  0.00    +0.059 A 
ATOM     26  C   UNL     1      17.302  12.865  16.967  0.00  0.00    +0.030 A 
ATOM     29  C   UNL     1      18.640  12.006  14.675  0.00  0.00    +0.121 A 
ATOM     32  C   UNL     1      18.684  13.025  16.865  0.00  0.00    +0.019 A 
ATOM     34  C   UNL     1      19.353  12.596  15.719  0.00  0.00    +0.047 A 
BRANCH  29   7
ATOM      7  O   UNL     1      19.294  11.587  13.556  0.00  0.00    -0.495 OA
ATOM     35  C   UNL     1      20.508  10.861  13.747  0.00  0.00    +0.277 C 
ENDBRANCH  29   7
ENDBRANCH  20  22
ENDBRANCH  13   9
BRANCH  12   2
ATOM      2  O   UNL     1      13.884   8.408  15.462  0.00  0.00    -0.387 OA
ATOM     38  H   UNL     1      14.467   8.497  16.233  0.00  0.00    +0.210 HD
ENDBRANCH  12   2
BRANCH  14   3
ATOM      3  O   UNL     1      10.529   9.857  15.622  0.00  0.00    -0.389 OA
ATOM     39  H   UNL     1       9.787   9.615  16.202  0.00  0.00    +0.210 HD
ENDBRANCH  14   3
TORSDOF 11
ENDMDL
MODEL 2
REMARK VINA RESULT:      -6.8      4.538      7.253
REMARK  Name = 7127917
REMARK  13 active torsions:
REMARK  status: ('A' for Active; 'I' for Inactive)
REMARK    1  A    between atoms: O_2  and  C_12
REMARK    2  A    between atoms: O_3  and  C_14
REMARK    3  A    between atoms: O_7  and  C_29
REMARK    4  A    between atoms: O_7  and  C_35
REMARK    5  A    between atoms: O_8  and  C_33
REMARK    6  A    between atoms: O_8  and  C_36
REMARK    7  A    between atoms: N_9  and  C_13
REMARK    8  A    between atoms: N_10  and  C_19
REMARK    9  A    between atoms: C_16  and  C_18
REMARK   10  A    between atoms: C_19  and  C_21
REMARK   11  A    between atoms: C_19  and  C_24
REMARK   12  A    between atoms: C_20  and  C_22
REMARK   13  A    between atoms: C_21  and  C_23
REMARK                            x       y       z     vdW  Elec       q    Type
REMARK                         _______ _______ _______ _____ _____    ______ ____
ROOT
ATOM     12  C   UNL     1      10.869   7.822  21.003  0.00  0.00    +0.167 C 
ATOM     13  C   UNL     1      11.786   8.741  21.835  0.00  0.00    +0.128 C 
ATOM     14  C   UNL     1      11.566   6.505  20.646  0.00  0.00    +0.149 C 
ATOM     15  C   UNL     1      12.897   6.735  19.911  0.00  0.00    +0.074 C 
ATOM     16  C   UNL     1      13.678   7.903  20.442  0.00  0.00    +0.015 C 
ATOM     17  C   UNL     1      13.195   8.805  21.310  0.00  0.00    +0.006 C 
ENDROOT
BRANCH  16  18
ATOM      4  O   UNL     1      15.437   9.091  19.434  0.00  0.00    -0.271 OA
ATOM     10  N   UNL     1      15.855   6.965  20.292  0.00  0.00    -0.300 N 
ATOM     18  C   UNL     1      15.067   8.064  20.001  0.00  0.00    +0.241 C 
ATOM     40  H   UNL     1      15.434   6.156  20.741  0.00  0.00    +0.150 HD
BRANCH  10  19
ATOM     19  C   UNL     1      17.259   6.889  19.953  0.00  0.00    +0.163 C 
BRANCH  19  24
ATOM      6  O   UNL     1      16.622   5.524  18.045  0.00  0.00    -0.274 OA
ATOM     11  N   UNL     1      18.575   5.026  19.149  0.00  0.00    -0.328 N 
ATOM     24  C   UNL     1      17.416   5.750  18.955  0.00  0.00    +0.231 C 
ATOM     41  H   UNL     1      18.809   4.248  18.543  0.00  0.00    +0.145 HD
ATOM     42  H   UNL     1      19.223   5.227  19.904  0.00  0.00    +0.145 HD
ENDBRANCH  19  24
BRANCH  19  21
ATOM     21  C   UNL     1      18.140   6.645  21.183  0.00  0.00    +0.067 C 
BRANCH  21  23
ATOM     23  C   UNL     1      19.118   7.768  21.431  0.00  0.00    -0.045 A 
ATOM     27  C   UNL     1      20.473   7.541  21.255  0.00  0.00    +0.007 A 
ATOM     28  C   UNL     1      18.641   9.007  21.830  0.00  0.00    +0.007 A 
ATOM     30  C   UNL     1      21.377   8.579  21.483  0.00  0.00    +0.046 A 
ATOM     31  C   UNL     1      19.545  10.046  22.058  0.00  0.00    +0.046 A 
ATOM     33  C   UNL     1      20.911   9.831  21.885  0.00  0.00    +0.120 A 
BRANCH  33   8
ATOM      8  O   UNL     1      21.792  10.844  22.108  0.00  0.00    -0.495 OA
ATOM     36  C   UNL     1      22.599  10.758  23.281  0.00  0.00    +0.277 C 
ENDBRANCH  33   8
ENDBRANCH  21  23
ENDBRANCH  19  21
ENDBRANCH  10  19
ENDBRANCH  16  18
BRANCH  13   9
ATOM      5  O   UNL     1      13.132  11.045  22.890  0.00  0.00    -0.270 OA
ATOM      9  N   UNL     1      11.259  10.081  21.922  0.00  0.00    -0.302 N 
ATOM     20  C   UNL     1      11.989  11.135  22.451  0.00  0.00    +0.246 C 
ATOM     37  H   UNL     1      10.299  10.243  21.628  0.00  0.00    +0.150 HD
BRANCH  20  22
ATOM      1 BR   UNL     1      10.901  12.007  25.320  0.00  0.00    -0.050 Br
ATOM     22  C   UNL     1      11.295  12.448  22.494  0.00  0.00    +0.054 A 
ATOM     25  C   UNL     1      11.196  13.141  21.303  0.00  0.00    +0.059 A 
ATOM     26  C   UNL     1      10.776  12.943  23.675  0.00  0.00    +0.030 A 
ATOM     29  C   UNL     1      10.554  14.379  21.293  0.00  0.00    +0.121 A 
ATOM     32  C   UNL     1      10.134  14.181  23.665  0.00  0.00    +0.019 A 
ATOM     34  C   UNL     1      10.022  14.899  22.474  0.00  0.00    +0.047 A 
BRANCH  29   7
ATOM      7  O   UNL     1      10.445  15.080  20.131  0.00  0.00    -0.495 OA
ATOM     35  C   UNL     1      11.658  15.423  19.463  0.00  0.00    +0.277 C 
ENDBRANCH  29   7
ENDBRANCH  20  22
ENDBRANCH  13   9
BRANCH  12   2
ATOM      2  O   UNL     1      10.495   8.486  19.793  0.00  0.00    -0.387 OA
ATOM     38  H   UNL     1      10.204   7.822  19.148  0.00  0.00    +0.210 HD
ENDBRANCH  12   2
BRANCH  14   3
ATOM      3  O   UNL     1      11.786   5.730  21.824  0.00  0.00    -0.389 OA
ATOM     39  H   UNL     1      12.550   6.110  22.288  0.00  0.00    +0.210 HD
ENDBRANCH  14   3
TORSDOF 11
ENDMDL
MODEL 3
REMARK VINA RESULT:      -6.8     27.730     32.012
REMARK  Name = 7127917
REMARK  13 active torsions:
REMARK  status: ('A' for Active; 'I' for Inactive)
REMARK    1  A    between atoms: O_2  and  C_12
REMARK    2  A    between atoms: O_3  and  C_14
REMARK    3  A    between atoms: O_7  and  C_29
REMARK    4  A    between atoms: O_7  and  C_35
REMARK    5  A    between atoms: O_8  and  C_33
REMARK    6  A    between atoms: O_8  and  C_36
REMARK    7  A    between atoms: N_9  and  C_13
REMARK    8  A    between atoms: N_10  and  C_19
REMARK    9  A    between atoms: C_16  and  C_18
REMARK   10  A    between atoms: C_19  and  C_21
REMARK   11  A    between atoms: C_19  and  C_24
REMARK   12  A    between atoms: C_20  and  C_22
REMARK   13  A    between atoms: C_21  and  C_23
REMARK                            x       y       z     vdW  Elec       q    Type
REMARK                         _______ _______ _______ _____ _____    ______ ____
ROOT
ATOM     12  C   UNL     1     -17.708   2.616  25.038  0.00  0.00    +0.167 C 
ATOM     13  C   UNL     1     -16.215   2.634  25.422  0.00  0.00    +0.128 C 
ATOM     14  C   UNL     1     -17.897   2.590  23.517  0.00  0.00    +0.149 C 
ATOM     15  C   UNL     1     -17.183   3.764  22.825  0.00  0.00    +0.074 C 
ATOM     16  C   UNL     1     -15.849   4.093  23.432  0.00  0.00    +0.015 C 
ATOM     17  C   UNL     1     -15.399   3.587  24.591  0.00  0.00    +0.006 C 
ENDROOT
BRANCH  16  18
ATOM      4  O   UNL     1     -14.123   4.588  21.917  0.00  0.00    -0.271 OA
ATOM     10  N   UNL     1     -15.198   6.339  23.017  0.00  0.00    -0.300 N 
ATOM     18  C   UNL     1     -14.966   5.011  22.706  0.00  0.00    +0.241 C 
ATOM     40  H   UNL     1     -15.905   6.572  23.709  0.00  0.00    +0.150 HD
BRANCH  10  19
ATOM     19  C   UNL     1     -14.451   7.429  22.429  0.00  0.00    +0.163 C 
BRANCH  19  24
ATOM      6  O   UNL     1     -14.132   9.734  23.130  0.00  0.00    -0.274 OA
ATOM     11  N   UNL     1     -15.701   8.460  24.223  0.00  0.00    -0.328 N 
ATOM     24  C   UNL     1     -14.710   8.661  23.285  0.00  0.00    +0.231 C 
ATOM     41  H   UNL     1     -15.983   9.207  24.849  0.00  0.00    +0.145 HD
ATOM     42  H   UNL     1     -16.172   7.568  24.337  0.00  0.00    +0.145 HD
ENDBRANCH  19  24
BRANCH  19  21
ATOM     21  C   UNL     1     -14.858   7.693  20.975  0.00  0.00    +0.067 C 
BRANCH  21  23
ATOM     23  C   UNL     1     -13.679   7.701  20.032  0.00  0.00    -0.045 A 
ATOM     27  C   UNL     1     -12.430   7.334  20.504  0.00  0.00    +0.007 A 
ATOM     28  C   UNL     1     -13.870   8.074  18.711  0.00  0.00    +0.007 A 
ATOM     30  C   UNL     1     -11.340   7.339  19.631  0.00  0.00    +0.046 A 
ATOM     31  C   UNL     1     -12.781   8.079  17.839  0.00  0.00    +0.046 A 
ATOM     33  C   UNL     1     -11.517   7.713  18.299  0.00  0.00    +0.120 A 
BRANCH  33   8
ATOM      8  O   UNL     1     -10.455   7.719  17.448  0.00  0.00    -0.495 OA
ATOM     36  C   UNL     1     -10.498   8.642  16.361  0.00  0.00    +0.277 C 
ENDBRANCH  33   8
ENDBRANCH  21  23
ENDBRANCH  19  21
ENDBRANCH  10  19
ENDBRANCH  16  18
BRANCH  13   9
ATOM      5  O   UNL     1     -16.459   0.829  27.641  0.00  0.00    -0.270 OA
ATOM      9  N   UNL     1     -16.028   2.953  26.816  0.00  0.00    -0.302 N 
ATOM     20  C   UNL     1     -16.168   2.008  27.822  0.00  0.00    +0.246 C 
ATOM     37  H   UNL     1     -15.833   3.918  27.069  0.00  0.00    +0.150 HD
BRANCH  20  22
ATOM      1 BR   UNL     1     -18.684   3.479  29.122  0.00  0.00    -0.050 Br
ATOM     22  C   UNL     1     -15.968   2.502  29.209  0.00  0.00    +0.054 A 
ATOM     25  C   UNL     1     -14.730   2.274  29.780  0.00  0.00    +0.059 A 
ATOM     26  C   UNL     1     -16.978   3.156  29.887  0.00  0.00    +0.030 A 
ATOM     29  C   UNL     1     -14.495   2.719  31.081  0.00  0.00    +0.121 A 
ATOM     32  C   UNL     1     -16.742   3.600  31.188  0.00  0.00    +0.019 A 
ATOM     34  C   UNL     1     -15.500   3.382  31.784  0.00  0.00    +0.047 A 
BRANCH  29   7
ATOM      7  O   UNL     1     -13.282   2.505  31.664  0.00  0.00    -0.495 OA
ATOM     35  C   UNL     1     -12.528   3.659  32.033  0.00  0.00    +0.277 C 
ENDBRANCH  29   7
ENDBRANCH  20  22
ENDBRANCH  13   9
BRANCH  12   2
ATOM      2  O   UNL     1     -18.352   3.780  25.561  0.00  0.00    -0.387 OA
ATOM     38  H   UNL     1     -19.013   3.505  26.217  0.00  0.00    +0.210 HD
ENDBRANCH  12   2
BRANCH  14   3
ATOM      3  O   UNL     1     -17.431   1.352  22.984  0.00  0.00    -0.389 OA
ATOM     39  H   UNL     1     -16.472   1.307  23.139  0.00  0.00    +0.210 HD
ENDBRANCH  14   3
TORSDOF 11
ENDMDL
MODEL 4
REMARK VINA RESULT:      -6.5     28.092     30.561
REMARK  Name = 7127917
REMARK  13 active torsions:
REMARK  status: ('A' for Active; 'I' for Inactive)
REMARK    1  A    between atoms: O_2  and  C_12
REMARK    2  A    between atoms: O_3  and  C_14
REMARK    3  A    between atoms: O_7  and  C_29
REMARK    4  A    between atoms: O_7  and  C_35
REMARK    5  A    between atoms: O_8  and  C_33
REMARK    6  A    between atoms: O_8  and  C_36
REMARK    7  A    between atoms: N_9  and  C_13
REMARK    8  A    between atoms: N_10  and  C_19
REMARK    9  A    between atoms: C_16  and  C_18
REMARK   10  A    between atoms: C_19  and  C_21
REMARK   11  A    between atoms: C_19  and  C_24
REMARK   12  A    between atoms: C_20  and  C_22
REMARK   13  A    between atoms: C_21  and  C_23
REMARK                            x       y       z     vdW  Elec       q    Type
REMARK                         _______ _______ _______ _____ _____    ______ ____
ROOT
ATOM     12  C   UNL     1      -3.746 -11.275  16.432  0.00  0.00    +0.167 C 
ATOM     13  C   UNL     1      -5.084 -11.374  15.674  0.00  0.00    +0.128 C 
ATOM     14  C   UNL     1      -3.870 -11.809  17.864  0.00  0.00    +0.149 C 
ATOM     15  C   UNL     1      -4.982 -11.098  18.653  0.00  0.00    +0.074 C 
ATOM     16  C   UNL     1      -6.204 -10.805  17.829  0.00  0.00    +0.015 C 
ATOM     17  C   UNL     1      -6.266 -10.932  16.495  0.00  0.00    +0.006 C 
ENDROOT
BRANCH  16  18
ATOM      4  O   UNL     1      -7.388 -10.050  19.713  0.00  0.00    -0.271 OA
ATOM     10  N   UNL     1      -8.536 -10.369  17.709  0.00  0.00    -0.300 N 
ATOM     18  C   UNL     1      -7.418 -10.369  18.525  0.00  0.00    +0.241 C 
ATOM     40  H   UNL     1      -8.448 -10.681  16.746  0.00  0.00    +0.150 HD
BRANCH  10  19
ATOM     19  C   UNL     1      -9.850  -9.980  18.171  0.00  0.00    +0.163 C 
BRANCH  19  24
ATOM      6  O   UNL     1     -10.269 -12.100  19.283  0.00  0.00    -0.274 OA
ATOM     11  N   UNL     1     -10.356 -10.170  20.528  0.00  0.00    -0.328 N 
ATOM     24  C   UNL     1     -10.191 -10.876  19.353  0.00  0.00    +0.231 C 
ATOM     41  H   UNL     1     -10.571 -10.649  21.396  0.00  0.00    +0.145 HD
ATOM     42  H   UNL     1     -10.285  -9.159  20.571  0.00  0.00    +0.145 HD
ENDBRANCH  19  24
BRANCH  19  21
ATOM     21  C   UNL     1     -10.913 -10.115  17.075  0.00  0.00    +0.067 C 
BRANCH  21  23
ATOM     23  C   UNL     1     -11.222  -8.802  16.398  0.00  0.00    -0.045 A 
ATOM     27  C   UNL     1     -11.924  -8.802  15.203  0.00  0.00    +0.007 A 
ATOM     28  C   UNL     1     -10.800  -7.620  16.985  0.00  0.00    +0.007 A 
ATOM     30  C   UNL     1     -12.211  -7.588  14.578  0.00  0.00    +0.046 A 
ATOM     31  C   UNL     1     -11.087  -6.406  16.360  0.00  0.00    +0.046 A 
ATOM     33  C   UNL     1     -11.792  -6.390  15.157  0.00  0.00    +0.120 A 
BRANCH  33   8
ATOM      8  O   UNL     1     -12.071  -5.206  14.548  0.00  0.00    -0.495 OA
ATOM     36  C   UNL     1     -13.174  -5.185  13.643  0.00  0.00    +0.277 C 
ENDBRANCH  33   8
ENDBRANCH  21  23
ENDBRANCH  19  21
ENDBRANCH  10  19
ENDBRANCH  16  18
BRANCH  13   9
ATOM      5  O   UNL     1      -5.327 -12.414  13.010  0.00  0.00    -0.270 OA
ATOM      9  N   UNL     1      -5.059 -10.615  14.447  0.00  0.00    -0.302 N 
ATOM     20  C   UNL     1      -5.184 -11.210  13.200  0.00  0.00    +0.246 C 
ATOM     37  H   UNL     1      -4.894  -9.613  14.502  0.00  0.00    +0.150 HD
BRANCH  20  22
ATOM      1 BR   UNL     1      -2.247 -10.653  12.086  0.00  0.00    -0.050 Br
ATOM     22  C   UNL     1      -5.111 -10.293  12.034  0.00  0.00    +0.054 A 
ATOM     25  C   UNL     1      -6.308  -9.786  11.562  0.00  0.00    +0.059 A 
ATOM     26  C   UNL     1      -3.900  -9.969  11.455  0.00  0.00    +0.030 A 
ATOM     29  C   UNL     1      -6.290  -8.922  10.469  0.00  0.00    +0.121 A 
ATOM     32  C   UNL     1      -3.883  -9.104  10.360  0.00  0.00    +0.019 A 
ATOM     34  C   UNL     1      -5.079  -8.580   9.868  0.00  0.00    +0.047 A 
BRANCH  29   7
ATOM      7  O   UNL     1      -7.457  -8.410   9.987  0.00  0.00    -0.495 OA
ATOM     35  C   UNL     1      -7.464  -7.981   8.626  0.00  0.00    +0.277 C 
ENDBRANCH  29   7
ENDBRANCH  20  22
ENDBRANCH  13   9
BRANCH  12   2
ATOM      2  O   UNL     1      -3.324  -9.911  16.486  0.00  0.00    -0.387 OA
ATOM     38  H   UNL     1      -4.053  -9.345  16.184  0.00  0.00    +0.210 HD
ENDBRANCH  12   2
BRANCH  14   3
ATOM      3  O   UNL     1      -4.106 -13.216  17.845  0.00  0.00    -0.389 OA
ATOM     39  H   UNL     1      -4.622 -13.439  18.638  0.00  0.00    +0.210 HD
ENDBRANCH  14   3
TORSDOF 11
ENDMDL
MODEL 5
REMARK VINA RESULT:      -6.4     26.990     30.209
REMARK  Name = 7127917
REMARK  13 active torsions:
REMARK  status: ('A' for Active; 'I' for Inactive)
REMARK    1  A    between atoms: O_2  and  C_12
REMARK    2  A    between atoms: O_3  and  C_14
REMARK    3  A    between atoms: O_7  and  C_29
REMARK    4  A    between atoms: O_7  and  C_35
REMARK    5  A    between atoms: O_8  and  C_33
REMARK    6  A    between atoms: O_8  and  C_36
REMARK    7  A    between atoms: N_9  and  C_13
REMARK    8  A    between atoms: N_10  and  C_19
REMARK    9  A    between atoms: C_16  and  C_18
REMARK   10  A    between atoms: C_19  and  C_21
REMARK   11  A    between atoms: C_19  and  C_24
REMARK   12  A    between atoms: C_20  and  C_22
REMARK   13  A    between atoms: C_21  and  C_23
REMARK                            x       y       z     vdW  Elec       q    Type
REMARK                         _______ _______ _______ _____ _____    ______ ____
ROOT
ATOM     12  C   UNL     1      -4.770 -10.003   9.024  0.00  0.00    +0.167 C 
ATOM     13  C   UNL     1      -6.126 -10.105   9.750  0.00  0.00    +0.128 C 
ATOM     14  C   UNL     1      -3.709 -10.889   9.686  0.00  0.00    +0.149 C 
ATOM     15  C   UNL     1      -3.537 -10.569  11.180  0.00  0.00    +0.074 C 
ATOM     16  C   UNL     1      -4.832 -10.262  11.877  0.00  0.00    +0.015 C 
ATOM     17  C   UNL     1      -6.001 -10.060  11.249  0.00  0.00    +0.006 C 
ENDROOT
BRANCH  16  18
ATOM      4  O   UNL     1      -5.813  -9.788  13.960  0.00  0.00    -0.271 OA
ATOM     10  N   UNL     1      -3.640 -10.629  13.899  0.00  0.00    -0.300 N 
ATOM     18  C   UNL     1      -4.830 -10.196  13.342  0.00  0.00    +0.241 C 
ATOM     40  H   UNL     1      -2.881 -10.918  13.287  0.00  0.00    +0.150 HD
BRANCH  10  19
ATOM     19  C   UNL     1      -3.399 -10.654  15.324  0.00  0.00    +0.163 C 
BRANCH  19  24
ATOM      6  O   UNL     1      -1.165  -9.891  14.746  0.00  0.00    -0.274 OA
ATOM     11  N   UNL     1      -1.457 -11.047  16.710  0.00  0.00    -0.328 N 
ATOM     24  C   UNL     1      -1.899 -10.491  15.527  0.00  0.00    +0.231 C 
ATOM     41  H   UNL     1      -0.480 -10.994  16.976  0.00  0.00    +0.145 HD
ATOM     42  H   UNL     1      -2.076 -11.537  17.348  0.00  0.00    +0.145 HD
ENDBRANCH  19  24
BRANCH  19  21
ATOM     21  C   UNL     1      -3.886 -11.955  15.971  0.00  0.00    +0.067 C 
BRANCH  21  23
ATOM     23  C   UNL     1      -4.929 -11.722  17.037  0.00  0.00    -0.045 A 
ATOM     27  C   UNL     1      -4.526 -11.398  18.322  0.00  0.00    +0.007 A 
ATOM     28  C   UNL     1      -6.271 -11.835  16.710  0.00  0.00    +0.007 A 
ATOM     30  C   UNL     1      -5.490 -11.180  19.307  0.00  0.00    +0.046 A 
ATOM     31  C   UNL     1      -7.235 -11.617  17.695  0.00  0.00    +0.046 A 
ATOM     33  C   UNL     1      -6.845 -11.291  18.992  0.00  0.00    +0.120 A 
BRANCH  33   8
ATOM      8  O   UNL     1      -7.786 -11.079  19.953  0.00  0.00    -0.495 OA
ATOM     36  C   UNL     1      -9.151 -11.096  19.540  0.00  0.00    +0.277 C 
ENDBRANCH  33   8
ENDBRANCH  21  23
ENDBRANCH  19  21
ENDBRANCH  10  19
ENDBRANCH  16  18
BRANCH  13   9
ATOM      5  O   UNL     1      -8.763 -10.473   8.679  0.00  0.00    -0.270 OA
ATOM      9  N   UNL     1      -7.036  -9.069   9.327  0.00  0.00    -0.302 N 
ATOM     20  C   UNL     1      -8.297  -9.346   8.819  0.00  0.00    +0.246 C 
ATOM     37  H   UNL     1      -6.718  -8.104   9.360  0.00  0.00    +0.150 HD
BRANCH  20  22
ATOM      1 BR   UNL     1      -7.853  -8.385   5.810  0.00  0.00    -0.050 Br
ATOM     22  C   UNL     1      -9.103  -8.170   8.404  0.00  0.00    +0.054 A 
ATOM     25  C   UNL     1      -9.947  -7.625   9.353  0.00  0.00    +0.059 A 
ATOM     26  C   UNL     1      -9.006  -7.652   7.127  0.00  0.00    +0.030 A 
ATOM     29  C   UNL     1     -10.724  -6.519   9.010  0.00  0.00    +0.121 A 
ATOM     32  C   UNL     1      -9.784  -6.547   6.784  0.00  0.00    +0.019 A 
ATOM     34  C   UNL     1     -10.643  -5.980   7.726  0.00  0.00    +0.047 A 
BRANCH  29   7
ATOM      7  O   UNL     1     -11.564  -5.966   9.928  0.00  0.00    -0.495 OA
ATOM     35  C   UNL     1     -11.584  -4.541  10.013  0.00  0.00    +0.277 C 
ENDBRANCH  29   7
ENDBRANCH  20  22
ENDBRANCH  13   9
BRANCH  12   2
ATOM      2  O   UNL     1      -4.315  -8.648   9.045  0.00  0.00    -0.387 OA
ATOM     38  H   UNL     1      -3.351  -8.639   8.932  0.00  0.00    +0.210 HD
ENDBRANCH  12   2
BRANCH  14   3
ATOM      3  O   UNL     1      -4.043 -12.266   9.516  0.00  0.00    -0.389 OA
ATOM     39  H   UNL     1      -5.000 -12.319   9.354  0.00  0.00    +0.210 HD
ENDBRANCH  14   3
TORSDOF 11
ENDMDL
MODEL 6
REMARK VINA RESULT:      -6.4     30.245     33.585
REMARK  Name = 7127917
REMARK  13 active torsions:
REMARK  status: ('A' for Active; 'I' for Inactive)
REMARK    1  A    between atoms: O_2  and  C_12
REMARK    2  A    between atoms: O_3  and  C_14
REMARK    3  A    between atoms: O_7  and  C_29
REMARK    4  A    between atoms: O_7  and  C_35
REMARK    5  A    between atoms: O_8  and  C_33
REMARK    6  A    between atoms: O_8  and  C_36
REMARK    7  A    between atoms: N_9  and  C_13
REMARK    8  A    between atoms: N_10  and  C_19
REMARK    9  A    between atoms: C_16  and  C_18
REMARK   10  A    between atoms: C_19  and  C_21
REMARK   11  A    between atoms: C_19  and  C_24
REMARK   12  A    between atoms: C_20  and  C_22
REMARK   13  A    between atoms: C_21  and  C_23
REMARK                            x       y       z     vdW  Elec       q    Type
REMARK                         _______ _______ _______ _____ _____    ______ ____
ROOT
ATOM     12  C   UNL     1     -14.618   0.436  29.744  0.00  0.00    +0.167 C 
ATOM     13  C   UNL     1     -15.835   1.381  29.695  0.00  0.00    +0.128 C 
ATOM     14  C   UNL     1     -14.351  -0.065  31.168  0.00  0.00    +0.149 C 
ATOM     15  C   UNL     1     -14.165   1.093  32.163  0.00  0.00    +0.074 C 
ATOM     16  C   UNL     1     -15.089   2.251  31.911  0.00  0.00    +0.015 C 
ATOM     17  C   UNL     1     -15.849   2.388  30.814  0.00  0.00    +0.006 C 
ENDROOT
BRANCH  16  18
ATOM      4  O   UNL     1     -14.704   3.127  34.057  0.00  0.00    -0.271 OA
ATOM     10  N   UNL     1     -15.860   4.420  32.499  0.00  0.00    -0.300 N 
ATOM     18  C   UNL     1     -15.187   3.293  32.938  0.00  0.00    +0.241 C 
ATOM     40  H   UNL     1     -16.243   4.434  31.557  0.00  0.00    +0.150 HD
BRANCH  10  19
ATOM     19  C   UNL     1     -16.084   5.579  33.333  0.00  0.00    +0.163 C 
BRANCH  19  24
ATOM      6  O   UNL     1     -18.471   5.312  33.701  0.00  0.00    -0.274 OA
ATOM     11  N   UNL     1     -17.043   4.984  35.471  0.00  0.00    -0.328 N 
ATOM     24  C   UNL     1     -17.332   5.301  34.159  0.00  0.00    +0.231 C 
ATOM     41  H   UNL     1     -17.784   4.761  36.127  0.00  0.00    +0.145 HD
ATOM     42  H   UNL     1     -16.095   4.975  35.835  0.00  0.00    +0.145 HD
ENDBRANCH  19  24
BRANCH  19  21
ATOM     21  C   UNL     1     -16.264   6.859  32.509  0.00  0.00    +0.067 C 
BRANCH  21  23
ATOM     23  C   UNL     1     -14.963   7.584  32.265  0.00  0.00    -0.045 A 
ATOM     27  C   UNL     1     -13.798   7.100  32.839  0.00  0.00    +0.007 A 
ATOM     28  C   UNL     1     -14.957   8.718  31.469  0.00  0.00    +0.007 A 
ATOM     30  C   UNL     1     -12.595   7.769  32.612  0.00  0.00    +0.046 A 
ATOM     31  C   UNL     1     -13.753   9.386  31.241  0.00  0.00    +0.046 A 
ATOM     33  C   UNL     1     -12.573   8.912  31.813  0.00  0.00    +0.120 A 
BRANCH  33   8
ATOM      8  O   UNL     1     -11.400   9.565  31.592  0.00  0.00    -0.495 OA
ATOM     36  C   UNL     1     -10.741  10.122  32.728  0.00  0.00    +0.277 C 
ENDBRANCH  33   8
ENDBRANCH  21  23
ENDBRANCH  19  21
ENDBRANCH  10  19
ENDBRANCH  16  18
BRANCH  13   9
ATOM      5  O   UNL     1     -18.212   1.910  28.178  0.00  0.00    -0.270 OA
ATOM      9  N   UNL     1     -15.915   2.082  28.437  0.00  0.00    -0.302 N 
ATOM     20  C   UNL     1     -17.117   2.289  27.775  0.00  0.00    +0.246 C 
ATOM     37  H   UNL     1     -15.051   2.390  28.000  0.00  0.00    +0.150 HD
BRANCH  20  22
ATOM      1 BR   UNL     1     -17.243   5.472  27.961  0.00  0.00    -0.050 Br
ATOM     22  C   UNL     1     -17.027   3.005  26.477  0.00  0.00    +0.054 A 
ATOM     25  C   UNL     1     -16.901   2.225  25.342  0.00  0.00    +0.059 A 
ATOM     26  C   UNL     1     -17.070   4.384  26.416  0.00  0.00    +0.030 A 
ATOM     29  C   UNL     1     -16.813   2.852  24.099  0.00  0.00    +0.121 A 
ATOM     32  C   UNL     1     -16.981   5.010  25.173  0.00  0.00    +0.019 A 
ATOM     34  C   UNL     1     -16.853   4.243  24.014  0.00  0.00    +0.047 A 
BRANCH  29   7
ATOM      7  O   UNL     1     -16.687   2.104  22.968  0.00  0.00    -0.495 OA
ATOM     35  C   UNL     1     -17.889   1.595  22.390  0.00  0.00    +0.277 C 
ENDBRANCH  29   7
ENDBRANCH  20  22
ENDBRANCH  13   9
BRANCH  12   2
ATOM      2  O   UNL     1     -13.457   1.124  29.273  0.00  0.00    -0.387 OA
ATOM     38  H   UNL     1     -13.463   1.123  28.303  0.00  0.00    +0.210 HD
ENDBRANCH  12   2
BRANCH  14   3
ATOM      3  O   UNL     1     -15.414  -0.913  31.598  0.00  0.00    -0.389 OA
ATOM     39  H   UNL     1     -16.250  -0.451  31.422  0.00  0.00    +0.210 HD
ENDBRANCH  14   3
TORSDOF 11
ENDMDL
MODEL 7
REMARK VINA RESULT:      -6.3     11.955     15.160
REMARK  Name = 7127917
REMARK  13 active torsions:
REMARK  status: ('A' for Active; 'I' for Inactive)
REMARK    1  A    between atoms: O_2  and  C_12
REMARK    2  A    between atoms: O_3  and  C_14
REMARK    3  A    between atoms: O_7  and  C_29
REMARK    4  A    between atoms: O_7  and  C_35
REMARK    5  A    between atoms: O_8  and  C_33
REMARK    6  A    between atoms: O_8  and  C_36
REMARK    7  A    between atoms: N_9  and  C_13
REMARK    8  A    between atoms: N_10  and  C_19
REMARK    9  A    between atoms: C_16  and  C_18
REMARK   10  A    between atoms: C_19  and  C_21
REMARK   11  A    between atoms: C_19  and  C_24
REMARK   12  A    between atoms: C_20  and  C_22
REMARK   13  A    between atoms: C_21  and  C_23
REMARK                            x       y       z     vdW  Elec       q    Type
REMARK                         _______ _______ _______ _____ _____    ______ ____
ROOT
ATOM     12  C   UNL     1      14.978   5.022   1.455  0.00  0.00    +0.167 C 
ATOM     13  C   UNL     1      14.721   6.400   2.097  0.00  0.00    +0.128 C 
ATOM     14  C   UNL     1      13.750   4.524   0.684  0.00  0.00    +0.149 C 
ATOM     15  C   UNL     1      12.493   4.473   1.569  0.00  0.00    +0.074 C 
ATOM     16  C   UNL     1      12.389   5.627   2.525  0.00  0.00    +0.015 C 
ATOM     17  C   UNL     1      13.377   6.503   2.765  0.00  0.00    +0.006 C 
ENDROOT
BRANCH  16  18
ATOM      4  O   UNL     1      10.545   4.888   3.780  0.00  0.00    -0.271 OA
ATOM     10  N   UNL     1      10.684   7.140   3.195  0.00  0.00    -0.300 N 
ATOM     18  C   UNL     1      11.120   5.827   3.231  0.00  0.00    +0.241 C 
ATOM     40  H   UNL     1      11.229   7.830   2.685  0.00  0.00    +0.150 HD
BRANCH  10  19
ATOM     19  C   UNL     1       9.457   7.582   3.819  0.00  0.00    +0.163 C 
BRANCH  19  24
ATOM      6  O   UNL     1       7.534   8.707   2.850  0.00  0.00    -0.274 OA
ATOM     11  N   UNL     1       9.595   9.024   1.884  0.00  0.00    -0.328 N 
ATOM     24  C   UNL     1       8.739   8.470   2.814  0.00  0.00    +0.231 C 
ATOM     41  H   UNL     1       9.247   9.649   1.165  0.00  0.00    +0.145 HD
ATOM     42  H   UNL     1      10.589   8.822   1.869  0.00  0.00    +0.145 HD
ENDBRANCH  19  24
BRANCH  19  21
ATOM     21  C   UNL     1       9.713   8.349   5.122  0.00  0.00    +0.067 C 
BRANCH  21  23
ATOM     23  C   UNL     1       9.871   7.437   6.314  0.00  0.00    -0.045 A 
ATOM     27  C   UNL     1      11.135   6.994   6.668  0.00  0.00    +0.007 A 
ATOM     28  C   UNL     1       8.748   7.060   7.033  0.00  0.00    +0.007 A 
ATOM     30  C   UNL     1      11.282   6.152   7.771  0.00  0.00    +0.046 A 
ATOM     31  C   UNL     1       8.894   6.218   8.136  0.00  0.00    +0.046 A 
ATOM     33  C   UNL     1      10.160   5.764   8.504  0.00  0.00    +0.120 A 
BRANCH  33   8
ATOM      8  O   UNL     1      10.302   4.943   9.580  0.00  0.00    -0.495 OA
ATOM     36  C   UNL     1       9.122   4.629  10.319  0.00  0.00    +0.277 C 
ENDBRANCH  33   8
ENDBRANCH  21  23
ENDBRANCH  19  21
ENDBRANCH  10  19
ENDBRANCH  16  18
BRANCH  13   9
ATOM      5  O   UNL     1      16.051   8.930   2.360  0.00  0.00    -0.270 OA
ATOM      9  N   UNL     1      15.745   6.740   3.055  0.00  0.00    -0.302 N 
ATOM     20  C   UNL     1      16.331   7.996   3.105  0.00  0.00    +0.246 C 
ATOM     37  H   UNL     1      16.079   6.013   3.683  0.00  0.00    +0.150 HD
BRANCH  20  22
ATOM      1 BR   UNL     1      15.322   9.118   5.916  0.00  0.00    -0.050 Br
ATOM     22  C   UNL     1      17.389   8.178   4.132  0.00  0.00    +0.054 A 
ATOM     25  C   UNL     1      18.679   7.847   3.765  0.00  0.00    +0.059 A 
ATOM     26  C   UNL     1      17.086   8.657   5.392  0.00  0.00    +0.030 A 
ATOM     29  C   UNL     1      19.706   8.000   4.695  0.00  0.00    +0.121 A 
ATOM     32  C   UNL     1      18.114   8.810   6.322  0.00  0.00    +0.019 A 
ATOM     34  C   UNL     1      19.424   8.482   5.973  0.00  0.00    +0.047 A 
BRANCH  29   7
ATOM      7  O   UNL     1      20.986   7.680   4.356  0.00  0.00    -0.495 OA
ATOM     35  C   UNL     1      21.231   7.347   2.990  0.00  0.00    +0.277 C 
ENDBRANCH  29   7
ENDBRANCH  20  22
ENDBRANCH  13   9
BRANCH  12   2
ATOM      2  O   UNL     1      15.299   4.071   2.472  0.00  0.00    -0.387 OA
ATOM     38  H   UNL     1      15.818   3.352   2.077  0.00  0.00    +0.210 HD
ENDBRANCH  12   2
BRANCH  14   3
ATOM      3  O   UNL     1      13.514   5.351  -0.454  0.00  0.00    -0.389 OA
ATOM     39  H   UNL     1      12.876   4.892  -1.025  0.00  0.00    +0.210 HD
ENDBRANCH  14   3
TORSDOF 11
ENDMDL
MODEL 8
REMARK VINA RESULT:      -6.3     12.477     14.862
REMARK  Name = 7127917
REMARK  13 active torsions:
REMARK  status: ('A' for Active; 'I' for Inactive)
REMARK    1  A    between atoms: O_2  and  C_12
REMARK    2  A    between atoms: O_3  and  C_14
REMARK    3  A    between atoms: O_7  and  C_29
REMARK    4  A    between atoms: O_7  and  C_35
REMARK    5  A    between atoms: O_8  and  C_33
REMARK    6  A    between atoms: O_8  and  C_36
REMARK    7  A    between atoms: N_9  and  C_13
REMARK    8  A    between atoms: N_10  and  C_19
REMARK    9  A    between atoms: C_16  and  C_18
REMARK   10  A    between atoms: C_19  and  C_21
REMARK   11  A    between atoms: C_19  and  C_24
REMARK   12  A    between atoms: C_20  and  C_22
REMARK   13  A    between atoms: C_21  and  C_23
REMARK                            x       y       z     vdW  Elec       q    Type
REMARK                         _______ _______ _______ _____ _____    ______ ____
ROOT
ATOM     12  C   UNL     1      13.734   6.635   2.419  0.00  0.00    +0.167 C 
ATOM     13  C   UNL     1      14.365   7.645   3.398  0.00  0.00    +0.128 C 
ATOM     14  C   UNL     1      12.210   6.579   2.573  0.00  0.00    +0.149 C 
ATOM     15  C   UNL     1      11.785   6.257   4.016  0.00  0.00    +0.074 C 
ATOM     16  C   UNL     1      12.643   6.925   5.053  0.00  0.00    +0.015 C 
ATOM     17  C   UNL     1      13.797   7.557   4.789  0.00  0.00    +0.006 C 
ENDROOT
BRANCH  16  18
ATOM      4  O   UNL     1      12.763   7.559   7.312  0.00  0.00    -0.271 OA
ATOM     10  N   UNL     1      11.080   6.095   6.638  0.00  0.00    -0.300 N 
ATOM     18  C   UNL     1      12.185   6.905   6.446  0.00  0.00    +0.241 C 
ATOM     40  H   UNL     1      10.701   5.576   5.849  0.00  0.00    +0.150 HD
BRANCH  10  19
ATOM     19  C   UNL     1      10.449   5.913   7.926  0.00  0.00    +0.163 C 
BRANCH  19  24
ATOM      6  O   UNL     1       9.762   3.894   9.093  0.00  0.00    -0.274 OA
ATOM     11  N   UNL     1      10.089   3.793   6.821  0.00  0.00    -0.328 N 
ATOM     24  C   UNL     1      10.079   4.441   8.039  0.00  0.00    +0.231 C 
ATOM     41  H   UNL     1       9.846   2.811   6.752  0.00  0.00    +0.145 HD
ATOM     42  H   UNL     1      10.350   4.258   5.957  0.00  0.00    +0.145 HD
ENDBRANCH  19  24
BRANCH  19  21
ATOM     21  C   UNL     1       9.203   6.790   8.090  0.00  0.00    +0.067 C 
BRANCH  21  23
ATOM     23  C   UNL     1       8.814   7.496   6.814  0.00  0.00    -0.045 A 
ATOM     27  C   UNL     1       8.971   8.870   6.723  0.00  0.00    +0.007 A 
ATOM     28  C   UNL     1       8.308   6.757   5.757  0.00  0.00    +0.007 A 
ATOM     30  C   UNL     1       8.614   9.522   5.542  0.00  0.00    +0.046 A 
ATOM     31  C   UNL     1       7.951   7.409   4.576  0.00  0.00    +0.046 A 
ATOM     33  C   UNL     1       8.103   8.791   4.470  0.00  0.00    +0.120 A 
BRANCH  33   8
ATOM      8  O   UNL     1       7.753   9.427   3.318  0.00  0.00    -0.495 OA
ATOM     36  C   UNL     1       6.403   9.876   3.208  0.00  0.00    +0.277 C 
ENDBRANCH  33   8
ENDBRANCH  21  23
ENDBRANCH  19  21
ENDBRANCH  10  19
ENDBRANCH  16  18
BRANCH  13   9
ATOM      5  O   UNL     1      16.318   9.744   3.270  0.00  0.00    -0.270 OA
ATOM      9  N   UNL     1      15.797   7.494   3.469  0.00  0.00    -0.302 N 
ATOM     20  C   UNL     1      16.665   8.573   3.398  0.00  0.00    +0.246 C 
ATOM     37  H   UNL     1      16.182   6.554   3.526  0.00  0.00    +0.150 HD
BRANCH  20  22
ATOM      1 BR   UNL     1      18.090   8.154   0.574  0.00  0.00    -0.050 Br
ATOM     22  C   UNL     1      18.113   8.248   3.460  0.00  0.00    +0.054 A 
ATOM     25  C   UNL     1      18.680   8.162   4.717  0.00  0.00    +0.059 A 
ATOM     26  C   UNL     1      18.849   8.042   2.309  0.00  0.00    +0.030 A 
ATOM     29  C   UNL     1      20.037   7.859   4.827  0.00  0.00    +0.121 A 
ATOM     32  C   UNL     1      20.206   7.740   2.419  0.00  0.00    +0.019 A 
ATOM     34  C   UNL     1      20.800   7.648   3.678  0.00  0.00    +0.047 A 
BRANCH  29   7
ATOM      7  O   UNL     1      20.617   7.770   6.056  0.00  0.00    -0.495 OA
ATOM     35  C   UNL     1      21.296   8.929   6.538  0.00  0.00    +0.277 C 
ENDBRANCH  29   7
ENDBRANCH  20  22
ENDBRANCH  13   9
BRANCH  12   2
ATOM      2  O   UNL     1      14.268   5.332   2.662  0.00  0.00    -0.387 OA
ATOM     38  H   UNL     1      14.395   5.218   3.618  0.00  0.00    +0.210 HD
ENDBRANCH  12   2
BRANCH  14   3
ATOM      3  O   UNL     1      11.628   7.812   2.156  0.00  0.00    -0.389 OA
ATOM     39  H   UNL     1      10.679   7.657   2.013  0.00  0.00    +0.210 HD
ENDBRANCH  14   3
TORSDOF 11
ENDMDL
MODEL 9
REMARK VINA RESULT:      -6.2     28.517     31.065
REMARK  Name = 7127917
REMARK  13 active torsions:
REMARK  status: ('A' for Active; 'I' for Inactive)
REMARK    1  A    between atoms: O_2  and  C_12
REMARK    2  A    between atoms: O_3  and  C_14
REMARK    3  A    between atoms: O_7  and  C_29
REMARK    4  A    between atoms: O_7  and  C_35
REMARK    5  A    between atoms: O_8  and  C_33
REMARK    6  A    between atoms: O_8  and  C_36
REMARK    7  A    between atoms: N_9  and  C_13
REMARK    8  A    between atoms: N_10  and  C_19
REMARK    9  A    between atoms: C_16  and  C_18
REMARK   10  A    between atoms: C_19  and  C_21
REMARK   11  A    between atoms: C_19  and  C_24
REMARK   12  A    between atoms: C_20  and  C_22
REMARK   13  A    between atoms: C_21  and  C_23
REMARK                            x       y       z     vdW  Elec       q    Type
REMARK                         _______ _______ _______ _____ _____    ______ ____
ROOT
ATOM     12  C   UNL     1      -3.707 -10.864  11.358  0.00  0.00    +0.167 C 
ATOM     13  C   UNL     1      -4.526  -9.951  12.291  0.00  0.00    +0.128 C 
ATOM     14  C   UNL     1      -3.575 -10.261   9.954  0.00  0.00    +0.149 C 
ATOM     15  C   UNL     1      -4.945  -9.951   9.327  0.00  0.00    +0.074 C 
ATOM     16  C   UNL     1      -5.943  -9.408  10.311  0.00  0.00    +0.015 C 
ATOM     17  C   UNL     1      -5.764  -9.395  11.641  0.00  0.00    +0.006 C 
ENDROOT
BRANCH  16  18
ATOM      4  O   UNL     1      -8.236  -8.909  10.429  0.00  0.00    -0.271 OA
ATOM     10  N   UNL     1      -7.029  -8.242   8.550  0.00  0.00    -0.300 N 
ATOM     18  C   UNL     1      -7.188  -8.836   9.789  0.00  0.00    +0.241 C 
ATOM     40  H   UNL     1      -6.118  -8.266   8.100  0.00  0.00    +0.150 HD
BRANCH  10  19
ATOM     19  C   UNL     1      -8.115  -7.612   7.832  0.00  0.00    +0.163 C 
BRANCH  19  24
ATOM      6  O   UNL     1      -8.705  -7.595   5.474  0.00  0.00    -0.274 OA
ATOM     11  N   UNL     1      -6.705  -8.539   6.101  0.00  0.00    -0.328 N 
ATOM     24  C   UNL     1      -7.909  -7.913   6.355  0.00  0.00    +0.231 C 
ATOM     41  H   UNL     1      -6.436  -8.783   5.153  0.00  0.00    +0.145 HD
ATOM     42  H   UNL     1      -6.056  -8.793   6.838  0.00  0.00    +0.145 HD
ENDBRANCH  19  24
BRANCH  19  21
ATOM     21  C   UNL     1      -8.163  -6.097   8.066  0.00  0.00    +0.067 C 
BRANCH  21  23
ATOM     23  C   UNL     1      -9.536  -5.612   8.463  0.00  0.00    -0.045 A 
ATOM     27  C   UNL     1     -10.593  -6.507   8.484  0.00  0.00    +0.007 A 
ATOM     28  C   UNL     1      -9.714  -4.279   8.799  0.00  0.00    +0.007 A 
ATOM     30  C   UNL     1     -11.862  -6.059   8.852  0.00  0.00    +0.046 A 
ATOM     31  C   UNL     1     -10.983  -3.831   9.167  0.00  0.00    +0.046 A 
ATOM     33  C   UNL     1     -12.056  -4.721   9.193  0.00  0.00    +0.120 A 
BRANCH  33   8
ATOM      8  O   UNL     1     -13.294  -4.283   9.551  0.00  0.00    -0.495 OA
ATOM     36  C   UNL     1     -14.322  -4.363   8.566  0.00  0.00    +0.277 C 
ENDBRANCH  33   8
ENDBRANCH  21  23
ENDBRANCH  19  21
ENDBRANCH  10  19
ENDBRANCH  16  18
BRANCH  13   9
ATOM      5  O   UNL     1      -2.847 -10.460  14.562  0.00  0.00    -0.270 OA
ATOM      9  N   UNL     1      -4.903 -10.631  13.506  0.00  0.00    -0.302 N 
ATOM     20  C   UNL     1      -4.017 -10.831  14.554  0.00  0.00    +0.246 C 
ATOM     37  H   UNL     1      -5.841 -11.019  13.571  0.00  0.00    +0.150 HD
BRANCH  20  22
ATOM      1 BR   UNL     1      -3.786 -14.008  14.376  0.00  0.00    -0.050 Br
ATOM     22  C   UNL     1      -4.552 -11.573  15.724  0.00  0.00    +0.054 A 
ATOM     25  C   UNL     1      -5.086 -10.817  16.751  0.00  0.00    +0.059 A 
ATOM     26  C   UNL     1      -4.514 -12.952  15.774  0.00  0.00    +0.030 A 
ATOM     29  C   UNL     1      -5.600 -11.468  17.872  0.00  0.00    +0.121 A 
ATOM     32  C   UNL     1      -5.028 -13.603  16.896  0.00  0.00    +0.019 A 
ATOM     34  C   UNL     1      -5.572 -12.861  17.944  0.00  0.00    +0.047 A 
BRANCH  29   7
ATOM      7  O   UNL     1      -6.131 -10.744  18.896  0.00  0.00    -0.495 OA
ATOM     35  C   UNL     1      -7.553 -10.736  19.016  0.00  0.00    +0.277 C 
ENDBRANCH  29   7
ENDBRANCH  20  22
ENDBRANCH  13   9
BRANCH  12   2
ATOM      2  O   UNL     1      -4.345 -12.139  11.252  0.00  0.00    -0.387 OA
ATOM     38  H   UNL     1      -4.901 -12.147  10.456  0.00  0.00    +0.210 HD
ENDBRANCH  12   2
BRANCH  14   3
ATOM      3  O   UNL     1      -2.779  -9.079  10.000  0.00  0.00    -0.389 OA
ATOM     39  H   UNL     1      -3.263  -8.380   9.529  0.00  0.00    +0.210 HD
ENDBRANCH  14   3
TORSDOF 11
ENDMDL
MODEL 10
REMARK VINA RESULT:      -6.1     31.916     33.673
REMARK  Name = 7127917
REMARK  13 active torsions:
REMARK  status: ('A' for Active; 'I' for Inactive)
REMARK    1  A    between atoms: O_2  and  C_12
REMARK    2  A    between atoms: O_3  and  C_14
REMARK    3  A    between atoms: O_7  and  C_29
REMARK    4  A    between atoms: O_7  and  C_35
REMARK    5  A    between atoms: O_8  and  C_33
REMARK    6  A    between atoms: O_8  and  C_36
REMARK    7  A    between atoms: N_9  and  C_13
REMARK    8  A    between atoms: N_10  and  C_19
REMARK    9  A    between atoms: C_16  and  C_18
REMARK   10  A    between atoms: C_19  and  C_21
REMARK   11  A    between atoms: C_19  and  C_24
REMARK   12  A    between atoms: C_20  and  C_22
REMARK   13  A    between atoms: C_21  and  C_23
REMARK                            x       y       z     vdW  Elec       q    Type
REMARK                         _______ _______ _______ _____ _____    ______ ____
ROOT
ATOM     12  C   UNL     1     -14.648   0.337  29.589  0.00  0.00    +0.167 C 
ATOM     13  C   UNL     1     -15.865   1.283  29.553  0.00  0.00    +0.128 C 
ATOM     14  C   UNL     1     -14.383  -0.184  31.006  0.00  0.00    +0.149 C 
ATOM     15  C   UNL     1     -14.197   0.960  32.018  0.00  0.00    +0.074 C 
ATOM     16  C   UNL     1     -15.120   2.121  31.782  0.00  0.00    +0.015 C 
ATOM     17  C   UNL     1     -15.879   2.274  30.686  0.00  0.00    +0.006 C 
ENDROOT
BRANCH  16  18
ATOM      4  O   UNL     1     -15.021   2.874  34.005  0.00  0.00    -0.271 OA
ATOM     10  N   UNL     1     -15.547   4.395  32.319  0.00  0.00    -0.300 N 
ATOM     18  C   UNL     1     -15.218   3.149  32.822  0.00  0.00    +0.241 C 
ATOM     40  H   UNL     1     -15.716   4.500  31.322  0.00  0.00    +0.150 HD
BRANCH  10  19
ATOM     19  C   UNL     1     -15.703   5.566  33.153  0.00  0.00    +0.163 C 
BRANCH  19  24
ATOM      6  O   UNL     1     -17.765   5.859  31.898  0.00  0.00    -0.274 OA
ATOM     11  N   UNL     1     -17.575   6.871  33.953  0.00  0.00    -0.328 N 
ATOM     24  C   UNL     1     -17.104   6.109  32.904  0.00  0.00    +0.231 C 
ATOM     41  H   UNL     1     -18.502   7.281  33.922  0.00  0.00    +0.145 HD
ATOM     42  H   UNL     1     -17.018   7.066  34.779  0.00  0.00    +0.145 HD
ENDBRANCH  19  24
BRANCH  19  21
ATOM     21  C   UNL     1     -14.653   6.640  32.846  0.00  0.00    +0.067 C 
BRANCH  21  23
ATOM     23  C   UNL     1     -13.814   6.995  34.050  0.00  0.00    -0.045 A 
ATOM     27  C   UNL     1     -13.083   8.172  34.045  0.00  0.00    +0.007 A 
ATOM     28  C   UNL     1     -13.792   6.138  35.138  0.00  0.00    +0.007 A 
ATOM     30  C   UNL     1     -12.308   8.501  35.158  0.00  0.00    +0.046 A 
ATOM     31  C   UNL     1     -13.017   6.467  36.251  0.00  0.00    +0.046 A 
ATOM     33  C   UNL     1     -12.276   7.647  36.260  0.00  0.00    +0.120 A 
BRANCH  33   8
ATOM      8  O   UNL     1     -11.520   7.967  37.346  0.00  0.00    -0.495 OA
ATOM     36  C   UNL     1     -10.114   8.103  37.142  0.00  0.00    +0.277 C 
ENDBRANCH  33   8
ENDBRANCH  21  23
ENDBRANCH  19  21
ENDBRANCH  10  19
ENDBRANCH  16  18
BRANCH  13   9
ATOM      5  O   UNL     1     -18.243   1.850  28.050  0.00  0.00    -0.270 OA
ATOM      9  N   UNL     1     -15.944   2.001  28.304  0.00  0.00    -0.302 N 
ATOM     20  C   UNL     1     -17.145   2.227  27.649  0.00  0.00    +0.246 C 
ATOM     37  H   UNL     1     -15.078   2.309  27.869  0.00  0.00    +0.150 HD
BRANCH  20  22
ATOM      1 BR   UNL     1     -17.222   5.408  27.880  0.00  0.00    -0.050 Br
ATOM     22  C   UNL     1     -17.055   2.959  26.360  0.00  0.00    +0.054 A 
ATOM     25  C   UNL     1     -16.948   2.194  25.214  0.00  0.00    +0.059 A 
ATOM     26  C   UNL     1     -17.076   4.339  26.320  0.00  0.00    +0.030 A 
ATOM     29  C   UNL     1     -16.860   2.836  23.980  0.00  0.00    +0.121 A 
ATOM     32  C   UNL     1     -16.988   4.981  25.084  0.00  0.00    +0.019 A 
ATOM     34  C   UNL     1     -16.880   4.229  23.914  0.00  0.00    +0.047 A 
BRANCH  29   7
ATOM      7  O   UNL     1     -16.754   2.103  22.837  0.00  0.00    -0.495 OA
ATOM     35  C   UNL     1     -17.909   1.370  22.427  0.00  0.00    +0.277 C 
ENDBRANCH  29   7
ENDBRANCH  20  22
ENDBRANCH  13   9
BRANCH  12   2
ATOM      2  O   UNL     1     -13.487   1.030  29.129  0.00  0.00    -0.387 OA
ATOM     38  H   UNL     1     -13.705   1.969  29.016  0.00  0.00    +0.210 HD
ENDBRANCH  12   2
BRANCH  14   3
ATOM      3  O   UNL     1     -15.446  -1.038  31.424  0.00  0.00    -0.389 OA
ATOM     39  H   UNL     1     -15.795  -0.687  32.260  0.00  0.00    +0.210 HD
ENDBRANCH  14   3
TORSDOF 11
ENDMDL
