MODEL 1
REMARK VINA RESULT:      -6.6      0.000      0.000
REMARK  Name = 45783953
REMARK  3 active torsions:
REMARK  status: ('A' for Active; 'I' for Inactive)
REMARK    1  A    between atoms: C_5  and  C_9
REMARK    2  A    between atoms: C_8  and  C_13
REMARK    3  A    between atoms: C_18  and  C_20
REMARK                            x       y       z     vdW  Elec       q    Type
REMARK                         _______ _______ _______ _____ _____    ______ ____
ROOT
ATOM      1  O   UNL     1      -3.853 -11.850   9.999  0.00  0.00    -0.275 OA
ATOM      3  N   UNL     1      -2.675 -11.291  11.912  0.00  0.00    -0.300 N 
ATOM      8  C   UNL     1      -1.804 -11.082  14.117  0.00  0.00    +0.094 C 
ATOM      9  C   UNL     1      -3.288 -11.015  10.703  0.00  0.00    +0.219 C 
ATOM     10  C   UNL     1      -2.015 -10.332  12.794  0.00  0.00    +0.120 C 
ATOM     11  C   UNL     1      -2.643 -12.632  12.475  0.00  0.00    +0.108 C 
ATOM     12  C   UNL     1      -1.673 -12.538  13.644  0.00  0.00    +0.033 C 
ENDROOT
BRANCH   8  13
ATOM      2  O   UNL     1      -4.065 -10.382  14.728  0.00  0.00    -0.439 OA
ATOM      4  N   UNL     1      -2.862 -11.264  16.435  0.00  0.00    -0.213 NA
ATOM     13  C   UNL     1      -2.897 -10.931  15.163  0.00  0.00    +0.201 A 
ATOM     14  C   UNL     1      -4.110 -10.907  16.888  0.00  0.00    +0.110 A 
ATOM     15  C   UNL     1      -4.848 -10.366  15.845  0.00  0.00    +0.155 A 
ATOM     16  C   UNL     1      -4.697 -11.003  18.158  0.00  0.00    +0.035 A 
ATOM     17  C   UNL     1      -6.153  -9.902  15.958  0.00  0.00    +0.049 A 
ATOM     18  C   UNL     1      -6.014 -10.544  18.310  0.00  0.00    -0.048 A 
ATOM     19  C   UNL     1      -6.725 -10.005  17.230  0.00  0.00    +0.007 A 
ATOM     20  C   UNL     1      -6.669 -10.632  19.650  0.00  0.00    +0.044 C 
ENDBRANCH   8  13
BRANCH   9   5
ATOM      5  C   UNL     1      -3.271  -9.590  10.254  0.00  0.00    +0.075 C 
ATOM      6  C   UNL     1      -4.103  -9.188   9.072  0.00  0.00    +0.013 C 
ATOM      7  C   UNL     1      -4.496  -8.747  10.450  0.00  0.00    +0.013 C 
ENDBRANCH   9   5
TORSDOF 2
ENDMDL
MODEL 2
REMARK VINA RESULT:      -6.1     22.365     24.456
REMARK  Name = 45783953
REMARK  3 active torsions:
REMARK  status: ('A' for Active; 'I' for Inactive)
REMARK    1  A    between atoms: C_5  and  C_9
REMARK    2  A    between atoms: C_8  and  C_13
REMARK    3  A    between atoms: C_18  and  C_20
REMARK                            x       y       z     vdW  Elec       q    Type
REMARK                         _______ _______ _______ _____ _____    ______ ____
ROOT
ATOM      1  O   UNL     1      14.664   6.299   1.964  0.00  0.00    -0.275 OA
ATOM      3  N   UNL     1      12.391   5.918   2.183  0.00  0.00    -0.300 N 
ATOM      8  C   UNL     1      10.098   5.890   2.821  0.00  0.00    +0.094 C 
ATOM      9  C   UNL     1      13.700   5.537   1.943  0.00  0.00    +0.219 C 
ATOM     10  C   UNL     1      11.218   5.047   2.194  0.00  0.00    +0.120 C 
ATOM     11  C   UNL     1      12.030   7.293   2.489  0.00  0.00    +0.108 C 
ATOM     12  C   UNL     1      10.509   7.317   2.422  0.00  0.00    +0.033 C 
ENDROOT
BRANCH   8  13
ATOM      2  O   UNL     1       9.417   6.862   4.957  0.00  0.00    -0.439 OA
ATOM      4  N   UNL     1      10.168   4.728   5.094  0.00  0.00    -0.213 NA
ATOM     13  C   UNL     1       9.913   5.762   4.324  0.00  0.00    +0.201 A 
ATOM     14  C   UNL     1       9.815   5.171   6.346  0.00  0.00    +0.110 A 
ATOM     15  C   UNL     1       9.355   6.478   6.265  0.00  0.00    +0.155 A 
ATOM     16  C   UNL     1       9.851   4.540   7.597  0.00  0.00    +0.035 A 
ATOM     17  C   UNL     1       8.915   7.229   7.348  0.00  0.00    +0.049 A 
ATOM     18  C   UNL     1       9.415   5.268   8.714  0.00  0.00    -0.048 A 
ATOM     19  C   UNL     1       8.957   6.586   8.589  0.00  0.00    +0.007 A 
ATOM     20  C   UNL     1       9.441   4.624  10.062  0.00  0.00    +0.044 C 
ENDBRANCH   8  13
BRANCH   9   5
ATOM      5  C   UNL     1      13.935   4.088   1.667  0.00  0.00    +0.075 C 
ATOM      6  C   UNL     1      13.965   3.612   0.244  0.00  0.00    +0.013 C 
ATOM      7  C   UNL     1      15.233   3.663   1.045  0.00  0.00    +0.013 C 
ENDBRANCH   9   5
TORSDOF 2
ENDMDL
MODEL 3
REMARK VINA RESULT:      -6.1     22.342     25.210
REMARK  Name = 45783953
REMARK  3 active torsions:
REMARK  status: ('A' for Active; 'I' for Inactive)
REMARK    1  A    between atoms: C_5  and  C_9
REMARK    2  A    between atoms: C_8  and  C_13
REMARK    3  A    between atoms: C_18  and  C_20
REMARK                            x       y       z     vdW  Elec       q    Type
REMARK                         _______ _______ _______ _____ _____    ______ ____
ROOT
ATOM      1  O   UNL     1       8.563   7.228   8.510  0.00  0.00    -0.275 OA
ATOM      3  N   UNL     1      10.430   7.398   7.153  0.00  0.00    -0.300 N 
ATOM      8  C   UNL     1      11.981   7.733   5.379  0.00  0.00    +0.094 C 
ATOM      9  C   UNL     1       9.654   6.807   8.135  0.00  0.00    +0.219 C 
ATOM     10  C   UNL     1      11.720   6.922   6.657  0.00  0.00    +0.120 C 
ATOM     11  C   UNL     1      10.010   8.604   6.457  0.00  0.00    +0.108 C 
ATOM     12  C   UNL     1      11.238   9.045   5.674  0.00  0.00    +0.033 C 
ENDROOT
BRANCH   8  13
ATOM      2  O   UNL     1      11.426   5.750   4.063  0.00  0.00    -0.439 OA
ATOM      4  N   UNL     1      11.191   7.711   2.951  0.00  0.00    -0.213 NA
ATOM     13  C   UNL     1      11.517   7.109   4.073  0.00  0.00    +0.201 A 
ATOM     14  C   UNL     1      10.853   6.669   2.120  0.00  0.00    +0.110 A 
ATOM     15  C   UNL     1      10.997   5.467   2.799  0.00  0.00    +0.155 A 
ATOM     16  C   UNL     1      10.419   6.648   0.788  0.00  0.00    +0.035 A 
ATOM     17  C   UNL     1      10.738   4.215   2.253  0.00  0.00    +0.049 A 
ATOM     18  C   UNL     1      10.149   5.403   0.202  0.00  0.00    -0.048 A 
ATOM     19  C   UNL     1      10.305   4.212   0.923  0.00  0.00    +0.007 A 
ATOM     20  C   UNL     1       9.685   5.347  -1.216  0.00  0.00    +0.044 C 
ENDBRANCH   8  13
BRANCH   9   5
ATOM      5  C   UNL     1      10.192   5.556   8.751  0.00  0.00    +0.075 C 
ATOM      6  C   UNL     1       9.302   4.739   9.639  0.00  0.00    +0.013 C 
ATOM      7  C   UNL     1       9.676   4.229   8.280  0.00  0.00    +0.013 C 
ENDBRANCH   9   5
TORSDOF 2
ENDMDL
MODEL 4
REMARK VINA RESULT:      -5.7      3.089      5.008
REMARK  Name = 45783953
REMARK  3 active torsions:
REMARK  status: ('A' for Active; 'I' for Inactive)
REMARK    1  A    between atoms: C_5  and  C_9
REMARK    2  A    between atoms: C_8  and  C_13
REMARK    3  A    between atoms: C_18  and  C_20
REMARK                            x       y       z     vdW  Elec       q    Type
REMARK                         _______ _______ _______ _____ _____    ______ ____
ROOT
ATOM      1  O   UNL     1      -4.439 -13.037  14.607  0.00  0.00    -0.275 OA
ATOM      3  N   UNL     1      -4.630 -11.776  16.539  0.00  0.00    -0.300 N 
ATOM      8  C   UNL     1      -5.232 -10.836  18.641  0.00  0.00    +0.094 C 
ATOM      9  C   UNL     1      -4.418 -11.952  15.183  0.00  0.00    +0.219 C 
ATOM     10  C   UNL     1      -4.640 -10.507  17.263  0.00  0.00    +0.120 C 
ATOM     11  C   UNL     1      -4.904 -12.893  17.429  0.00  0.00    +0.108 C 
ATOM     12  C   UNL     1      -4.812 -12.302  18.829  0.00  0.00    +0.033 C 
ENDROOT
BRANCH   8  13
ATOM      2  O   UNL     1      -7.347  -9.922  17.825  0.00  0.00    -0.439 OA
ATOM      4  N   UNL     1      -7.521 -11.131  19.735  0.00  0.00    -0.213 NA
ATOM     13  C   UNL     1      -6.734 -10.661  18.792  0.00  0.00    +0.201 A 
ATOM     14  C   UNL     1      -8.763 -10.668  19.369  0.00  0.00    +0.110 A 
ATOM     15  C   UNL     1      -8.659  -9.928  18.200  0.00  0.00    +0.155 A 
ATOM     16  C   UNL     1     -10.023 -10.825  19.964  0.00  0.00    +0.035 A 
ATOM     17  C   UNL     1      -9.727  -9.316  17.555  0.00  0.00    +0.049 A 
ATOM     18  C   UNL     1     -11.125 -10.221  19.341  0.00  0.00    -0.048 A 
ATOM     19  C   UNL     1     -10.977  -9.482  18.161  0.00  0.00    +0.007 A 
ATOM     20  C   UNL     1     -12.480 -10.370  19.950  0.00  0.00    +0.044 C 
ENDBRANCH   8  13
BRANCH   9   5
ATOM      5  C   UNL     1      -4.173 -10.716  14.378  0.00  0.00    +0.075 C 
ATOM      6  C   UNL     1      -4.021 -10.833  12.891  0.00  0.00    +0.013 C 
ATOM      7  C   UNL     1      -5.255 -10.208  13.471  0.00  0.00    +0.013 C 
ENDBRANCH   9   5
TORSDOF 2
ENDMDL
MODEL 5
REMARK VINA RESULT:      -5.6      2.831      6.983
REMARK  Name = 45783953
REMARK  3 active torsions:
REMARK  status: ('A' for Active; 'I' for Inactive)
REMARK    1  A    between atoms: C_5  and  C_9
REMARK    2  A    between atoms: C_8  and  C_13
REMARK    3  A    between atoms: C_18  and  C_20
REMARK                            x       y       z     vdW  Elec       q    Type
REMARK                         _______ _______ _______ _____ _____    ______ ____
ROOT
ATOM      1  O   UNL     1      -9.412  -9.931  18.525  0.00  0.00    -0.275 OA
ATOM      3  N   UNL     1      -7.579 -11.344  18.532  0.00  0.00    -0.300 N 
ATOM      8  C   UNL     1      -5.416 -12.332  18.434  0.00  0.00    +0.094 C 
ATOM      9  C   UNL     1      -8.892 -11.009  18.251  0.00  0.00    +0.219 C 
ATOM     10  C   UNL     1      -6.910 -12.602  18.205  0.00  0.00    +0.120 C 
ATOM     11  C   UNL     1      -6.671 -10.421  19.196  0.00  0.00    +0.108 C 
ATOM     12  C   UNL     1      -5.447 -11.261  19.535  0.00  0.00    +0.033 C 
ENDROOT
BRANCH   8  13
ATOM      2  O   UNL     1      -3.412 -11.293  17.497  0.00  0.00    -0.439 OA
ATOM      4  N   UNL     1      -4.938 -11.952  15.954  0.00  0.00    -0.213 NA
ATOM     13  C   UNL     1      -4.618 -11.869  17.227  0.00  0.00    +0.201 A 
ATOM     14  C   UNL     1      -3.859 -11.384  15.320  0.00  0.00    +0.110 A 
ATOM     15  C   UNL     1      -2.923 -10.980  16.261  0.00  0.00    +0.155 A 
ATOM     16  C   UNL     1      -3.589 -11.171  13.960  0.00  0.00    +0.035 A 
ATOM     17  C   UNL     1      -1.712 -10.368  15.961  0.00  0.00    +0.049 A 
ATOM     18  C   UNL     1      -2.376 -10.555  13.618  0.00  0.00    -0.048 A 
ATOM     19  C   UNL     1      -1.458 -10.163  14.601  0.00  0.00    +0.007 A 
ATOM     20  C   UNL     1      -2.059 -10.314  12.179  0.00  0.00    +0.044 C 
ENDBRANCH   8  13
BRANCH   9   5
ATOM      5  C   UNL     1      -9.708 -12.041  17.542  0.00  0.00    +0.075 C 
ATOM      6  C   UNL     1     -11.044 -11.655  16.981  0.00  0.00    +0.013 C 
ATOM      7  C   UNL     1      -9.896 -11.932  16.058  0.00  0.00    +0.013 C 
ENDBRANCH   9   5
TORSDOF 2
ENDMDL
MODEL 6
REMARK VINA RESULT:      -5.6      4.494      7.940
REMARK  Name = 45783953
REMARK  3 active torsions:
REMARK  status: ('A' for Active; 'I' for Inactive)
REMARK    1  A    between atoms: C_5  and  C_9
REMARK    2  A    between atoms: C_8  and  C_13
REMARK    3  A    between atoms: C_18  and  C_20
REMARK                            x       y       z     vdW  Elec       q    Type
REMARK                         _______ _______ _______ _____ _____    ______ ____
ROOT
ATOM      1  O   UNL     1     -12.737 -11.267  16.891  0.00  0.00    -0.275 OA
ATOM      3  N   UNL     1     -11.030  -9.713  16.721  0.00  0.00    -0.300 N 
ATOM      8  C   UNL     1      -8.989  -8.545  16.352  0.00  0.00    +0.094 C 
ATOM      9  C   UNL     1     -12.125 -10.298  17.333  0.00  0.00    +0.219 C 
ATOM     10  C   UNL     1     -10.256  -8.578  17.219  0.00  0.00    +0.120 C 
ATOM     11  C   UNL     1     -10.491 -10.208  15.464  0.00  0.00    +0.108 C 
ATOM     12  C   UNL     1      -9.489  -9.147  15.029  0.00  0.00    +0.033 C 
ENDROOT
BRANCH   8  13
ATOM      2  O   UNL     1      -6.706  -9.367  16.052  0.00  0.00    -0.439 OA
ATOM      4  N   UNL     1      -7.639  -9.892  18.051  0.00  0.00    -0.213 NA
ATOM     13  C   UNL     1      -7.782  -9.299  16.887  0.00  0.00    +0.201 A 
ATOM     14  C   UNL     1      -6.364 -10.401  17.991  0.00  0.00    +0.110 A 
ATOM     15  C   UNL     1      -5.790 -10.081  16.769  0.00  0.00    +0.155 A 
ATOM     16  C   UNL     1      -5.616 -11.141  18.918  0.00  0.00    +0.035 A 
ATOM     17  C   UNL     1      -4.506 -10.441  16.380  0.00  0.00    +0.049 A 
ATOM     18  C   UNL     1      -4.315 -11.523  18.560  0.00  0.00    -0.048 A 
ATOM     19  C   UNL     1      -3.774 -11.178  17.316  0.00  0.00    +0.007 A 
ATOM     20  C   UNL     1      -3.493 -12.313  19.526  0.00  0.00    +0.044 C 
ENDBRANCH   8  13
BRANCH   9   5
ATOM      5  C   UNL     1     -12.560  -9.706  18.635  0.00  0.00    +0.075 C 
ATOM      6  C   UNL     1     -13.519 -10.469  19.498  0.00  0.00    +0.013 C 
ATOM      7  C   UNL     1     -12.085 -10.327  19.915  0.00  0.00    +0.013 C 
ENDBRANCH   9   5
TORSDOF 2
ENDMDL
MODEL 7
REMARK VINA RESULT:      -5.5      2.153      6.672
REMARK  Name = 45783953
REMARK  3 active torsions:
REMARK  status: ('A' for Active; 'I' for Inactive)
REMARK    1  A    between atoms: C_5  and  C_9
REMARK    2  A    between atoms: C_8  and  C_13
REMARK    3  A    between atoms: C_18  and  C_20
REMARK                            x       y       z     vdW  Elec       q    Type
REMARK                         _______ _______ _______ _____ _____    ______ ____
ROOT
ATOM      1  O   UNL     1      -7.567  -9.876  18.071  0.00  0.00    -0.275 OA
ATOM      3  N   UNL     1      -5.943 -11.161  17.036  0.00  0.00    -0.300 N 
ATOM      8  C   UNL     1      -4.077 -11.990  15.814  0.00  0.00    +0.094 C 
ATOM      9  C   UNL     1      -7.236 -10.879  17.444  0.00  0.00    +0.219 C 
ATOM     10  C   UNL     1      -5.505 -12.325  16.269  0.00  0.00    +0.120 C 
ATOM     11  C   UNL     1      -4.831 -10.268  17.322  0.00  0.00    +0.108 C 
ATOM     12  C   UNL     1      -3.590 -11.063  16.939  0.00  0.00    +0.033 C 
ENDROOT
BRANCH   8  13
ATOM      2  O   UNL     1      -2.660 -11.127  14.020  0.00  0.00    -0.439 OA
ATOM      4  N   UNL     1      -4.885 -10.944  13.629  0.00  0.00    -0.213 NA
ATOM     13  C   UNL     1      -3.936 -11.335  14.450  0.00  0.00    +0.201 A 
ATOM     14  C   UNL     1      -4.188 -10.430  12.562  0.00  0.00    +0.110 A 
ATOM     15  C   UNL     1      -2.825 -10.541  12.798  0.00  0.00    +0.155 A 
ATOM     16  C   UNL     1      -4.624  -9.854  11.360  0.00  0.00    +0.035 A 
ATOM     17  C   UNL     1      -1.834 -10.118  11.921  0.00  0.00    +0.049 A 
ATOM     18  C   UNL     1      -3.651  -9.415  10.449  0.00  0.00    -0.048 A 
ATOM     19  C   UNL     1      -2.285  -9.546  10.727  0.00  0.00    +0.007 A 
ATOM     20  C   UNL     1      -4.083  -8.797   9.160  0.00  0.00    +0.044 C 
ENDBRANCH   8  13
BRANCH   9   5
ATOM      5  C   UNL     1      -8.288 -11.868  17.061  0.00  0.00    +0.075 C 
ATOM      6  C   UNL     1      -9.732 -11.498  17.230  0.00  0.00    +0.013 C 
ATOM      7  C   UNL     1      -9.140 -11.600  15.855  0.00  0.00    +0.013 C 
ENDBRANCH   9   5
TORSDOF 2
ENDMDL
MODEL 8
REMARK VINA RESULT:      -5.3     22.813     25.254
REMARK  Name = 45783953
REMARK  3 active torsions:
REMARK  status: ('A' for Active; 'I' for Inactive)
REMARK    1  A    between atoms: C_5  and  C_9
REMARK    2  A    between atoms: C_8  and  C_13
REMARK    3  A    between atoms: C_18  and  C_20
REMARK                            x       y       z     vdW  Elec       q    Type
REMARK                         _______ _______ _______ _____ _____    ______ ____
ROOT
ATOM      1  O   UNL     1      10.987   9.695   7.921  0.00  0.00    -0.275 OA
ATOM      3  N   UNL     1       9.682   7.995   7.048  0.00  0.00    -0.300 N 
ATOM      8  C   UNL     1       8.826   5.998   6.076  0.00  0.00    +0.094 C 
ATOM      9  C   UNL     1      10.022   9.320   7.262  0.00  0.00    +0.219 C 
ATOM     10  C   UNL     1       8.560   7.500   6.253  0.00  0.00    +0.120 C 
ATOM     11  C   UNL     1      10.461   6.898   7.601  0.00  0.00    +0.108 C 
ATOM     12  C   UNL     1       9.613   5.659   7.351  0.00  0.00    +0.033 C 
ENDROOT
BRANCH   8  13
ATOM      2  O   UNL     1       9.514   6.452   3.774  0.00  0.00    -0.439 OA
ATOM      4  N   UNL     1      10.306   4.506   4.625  0.00  0.00    -0.213 NA
ATOM     13  C   UNL     1       9.586   5.587   4.825  0.00  0.00    +0.201 A 
ATOM     14  C   UNL     1      10.752   4.658   3.333  0.00  0.00    +0.110 A 
ATOM     15  C   UNL     1      10.268   5.849   2.810  0.00  0.00    +0.155 A 
ATOM     16  C   UNL     1      11.563   3.844   2.530  0.00  0.00    +0.035 A 
ATOM     17  C   UNL     1      10.529   6.312   1.527  0.00  0.00    +0.049 A 
ATOM     18  C   UNL     1      11.848   4.278   1.228  0.00  0.00    -0.048 A 
ATOM     19  C   UNL     1      11.340   5.488   0.738  0.00  0.00    +0.007 A 
ATOM     20  C   UNL     1      12.709   3.434   0.347  0.00  0.00    +0.044 C 
ENDBRANCH   8  13
BRANCH   9   5
ATOM      5  C   UNL     1       9.151  10.347   6.614  0.00  0.00    +0.075 C 
ATOM      6  C   UNL     1       9.594  11.780   6.609  0.00  0.00    +0.013 C 
ATOM      7  C   UNL     1       9.603  10.987   5.335  0.00  0.00    +0.013 C 
ENDBRANCH   9   5
TORSDOF 2
ENDMDL
MODEL 9
REMARK VINA RESULT:      -5.3      1.497      1.660
REMARK  Name = 45783953
REMARK  3 active torsions:
REMARK  status: ('A' for Active; 'I' for Inactive)
REMARK    1  A    between atoms: C_5  and  C_9
REMARK    2  A    between atoms: C_8  and  C_13
REMARK    3  A    between atoms: C_18  and  C_20
REMARK                            x       y       z     vdW  Elec       q    Type
REMARK                         _______ _______ _______ _____ _____    ______ ____
ROOT
ATOM      1  O   UNL     1      -5.994 -12.054   9.672  0.00  0.00    -0.275 OA
ATOM      3  N   UNL     1      -4.368 -11.180  11.069  0.00  0.00    -0.300 N 
ATOM      8  C   UNL     1      -2.847 -10.698  12.836  0.00  0.00    +0.094 C 
ATOM      9  C   UNL     1      -5.407 -11.091  10.160  0.00  0.00    +0.219 C 
ATOM     10  C   UNL     1      -3.658 -10.067  11.694  0.00  0.00    +0.120 C 
ATOM     11  C   UNL     1      -3.862 -12.460  11.542  0.00  0.00    +0.108 C 
ATOM     12  C   UNL     1      -2.588 -12.115  12.300  0.00  0.00    +0.033 C 
ENDROOT
BRANCH   8  13
ATOM      2  O   UNL     1      -4.735 -10.133  14.283  0.00  0.00    -0.439 OA
ATOM      4  N   UNL     1      -3.063 -11.262  15.317  0.00  0.00    -0.213 NA
ATOM     13  C   UNL     1      -3.512 -10.731  14.202  0.00  0.00    +0.201 A 
ATOM     14  C   UNL     1      -4.066 -10.998  16.220  0.00  0.00    +0.110 A 
ATOM     15  C   UNL     1      -5.090 -10.307  15.589  0.00  0.00    +0.155 A 
ATOM     16  C   UNL     1      -4.191 -11.303  17.582  0.00  0.00    +0.035 A 
ATOM     17  C   UNL     1      -6.258  -9.884  16.211  0.00  0.00    +0.049 A 
ATOM     18  C   UNL     1      -5.357 -10.892  18.244  0.00  0.00    -0.048 A 
ATOM     19  C   UNL     1      -6.369 -10.196  17.570  0.00  0.00    +0.007 A 
ATOM     20  C   UNL     1      -5.521 -11.201  19.696  0.00  0.00    +0.044 C 
ENDBRANCH   8  13
BRANCH   9   5
ATOM      5  C   UNL     1      -5.846  -9.714   9.779  0.00  0.00    +0.075 C 
ATOM      6  C   UNL     1      -7.069  -9.548   8.926  0.00  0.00    +0.013 C 
ATOM      7  C   UNL     1      -7.106  -9.157  10.374  0.00  0.00    +0.013 C 
ENDBRANCH   9   5
TORSDOF 2
ENDMDL
MODEL 10
REMARK VINA RESULT:      -5.3     23.812     25.465
REMARK  Name = 45783953
REMARK  3 active torsions:
REMARK  status: ('A' for Active; 'I' for Inactive)
REMARK    1  A    between atoms: C_5  and  C_9
REMARK    2  A    between atoms: C_8  and  C_13
REMARK    3  A    between atoms: C_18  and  C_20
REMARK                            x       y       z     vdW  Elec       q    Type
REMARK                         _______ _______ _______ _____ _____    ______ ____
ROOT
ATOM      1  O   UNL     1      11.861   5.841   8.047  0.00  0.00    -0.275 OA
ATOM      3  N   UNL     1      10.526   7.545   7.227  0.00  0.00    -0.300 N 
ATOM      8  C   UNL     1       9.513   9.620   6.651  0.00  0.00    +0.094 C 
ATOM      9  C   UNL     1      10.753   6.290   7.765  0.00  0.00    +0.219 C 
ATOM     10  C   UNL     1       9.229   8.131   6.899  0.00  0.00    +0.120 C 
ATOM     11  C   UNL     1      11.611   8.470   6.940  0.00  0.00    +0.108 C 
ATOM     12  C   UNL     1      10.961   9.589   6.138  0.00  0.00    +0.033 C 
ENDROOT
BRANCH   8  13
ATOM      2  O   UNL     1       9.015  11.833   7.561  0.00  0.00    -0.439 OA
ATOM      4  N   UNL     1       9.525  10.269   9.121  0.00  0.00    -0.213 NA
ATOM     13  C   UNL     1       9.363  10.547   7.847  0.00  0.00    +0.201 A 
ATOM     14  C   UNL     1       9.264  11.468   9.741  0.00  0.00    +0.110 A 
ATOM     15  C   UNL     1       8.952  12.427   8.788  0.00  0.00    +0.155 A 
ATOM     16  C   UNL     1       9.269  11.833  11.095  0.00  0.00    +0.035 A 
ATOM     17  C   UNL     1       8.635  13.750   9.072  0.00  0.00    +0.049 A 
ATOM     18  C   UNL     1       8.954  13.160  11.420  0.00  0.00    -0.048 A 
ATOM     19  C   UNL     1       8.644  14.098  10.427  0.00  0.00    +0.007 A 
ATOM     20  C   UNL     1       8.951  13.581  12.853  0.00  0.00    +0.044 C 
ENDBRANCH   8  13
BRANCH   9   5
ATOM      5  C   UNL     1       9.547   5.450   8.036  0.00  0.00    +0.075 C 
ATOM      6  C   UNL     1       9.731   4.055   8.556  0.00  0.00    +0.013 C 
ATOM      7  C   UNL     1       9.186   5.125   9.455  0.00  0.00    +0.013 C 
ENDBRANCH   9   5
TORSDOF 2
ENDMDL
