MODEL 1
REMARK VINA RESULT:      -8.0      0.000      0.000
REMARK  Name = 11887301
REMARK  7 active torsions:
REMARK  status: ('A' for Active; 'I' for Inactive)
REMARK    1  A    between atoms: S_1  and  N_8
REMARK    2  A    between atoms: S_1  and  C_19
REMARK    3  A    between atoms: O_6  and  C_28
REMARK    4  A    between atoms: O_6  and  C_35
REMARK    5  A    between atoms: N_7  and  C_14
REMARK    6  A    between atoms: N_8  and  C_15
REMARK    7  A    between atoms: C_18  and  C_20
REMARK                            x       y       z     vdW  Elec       q    Type
REMARK                         _______ _______ _______ _____ _____    ______ ____
ROOT
ATOM      2  O   UNL     1      12.589  10.730  22.843  0.00  0.00    -0.370 OA
ATOM      3  O   UNL     1      12.805  11.926  19.928  0.00  0.00    -0.370 OA
ATOM     12  C   UNL     1      13.045  10.629  20.504  0.00  0.00    +0.175 C 
ATOM     13  C   UNL     1      13.646  10.852  21.879  0.00  0.00    +0.170 C 
ATOM     14  C   UNL     1      11.726   9.930  20.768  0.00  0.00    +0.168 C 
ATOM     15  C   UNL     1      14.155  12.273  21.842  0.00  0.00    +0.133 C 
ATOM     16  C   UNL     1      11.366  10.395  22.174  0.00  0.00    +0.190 C 
ATOM     17  C   UNL     1      13.222  12.940  20.852  0.00  0.00    +0.183 C 
ENDROOT
BRANCH  14   7
ATOM      7  N   UNL     1      11.815   8.477  20.599  0.00  0.00    -0.217 N 
ATOM      9  N   UNL     1      11.783   7.667  21.662  0.00  0.00    -0.043 NA
ATOM     10  N   UNL     1      11.983   6.481  19.784  0.00  0.00    -0.108 NA
ATOM     11  N   UNL     1      11.886   6.444  21.157  0.00  0.00    -0.023 NA
ATOM     18  C   UNL     1      11.937   7.753  19.460  0.00  0.00    +0.182 A 
BRANCH  18  20
ATOM     20  C   UNL     1      12.002   8.313  18.135  0.00  0.00    +0.024 A 
ATOM     23  C   UNL     1      13.235   8.674  17.587  0.00  0.00    +0.057 A 
ATOM     24  C   UNL     1      10.833   8.494  17.395  0.00  0.00    +0.012 A 
ATOM     28  C   UNL     1      13.297   9.214  16.303  0.00  0.00    +0.121 A 
ATOM     29  C   UNL     1      10.896   9.035  16.110  0.00  0.00    +0.004 A 
ATOM     31  C   UNL     1      12.128   9.395  15.565  0.00  0.00    +0.045 A 
BRANCH  28   6
ATOM      6  O   UNL     1      14.500   9.565  15.770  0.00  0.00    -0.495 OA
ATOM     35  C   UNL     1      14.803  10.958  15.714  0.00  0.00    +0.277 C 
ENDBRANCH  28   6
ENDBRANCH  18  20
ENDBRANCH  14   7
BRANCH  15   8
ATOM      8  N   UNL     1      15.541  12.298  21.314  0.00  0.00    -0.182 NA
ATOM     36  H   UNL     1      15.651  12.103  20.311  0.00  0.00    +0.148 HD
BRANCH   8   1
ATOM      1  S   UNL     1      16.847  12.004  22.358  0.00  0.00    +0.059 S 
ATOM      4  O   UNL     1      16.358  11.874  23.718  0.00  0.00    -0.153 OA
ATOM      5  O   UNL     1      17.911  12.942  22.051  0.00  0.00    -0.153 OA
BRANCH   1  19
ATOM     19  C   UNL     1      17.393  10.411  21.820  0.00  0.00    +0.106 A 
ATOM     21  C   UNL     1      16.549   9.634  21.045  0.00  0.00    +0.037 A 
ATOM     22  C   UNL     1      18.650   9.972  22.184  0.00  0.00    +0.029 A 
ATOM     25  C   UNL     1      16.967   8.366  20.610  0.00  0.00    -0.016 A 
ATOM     26  C   UNL     1      19.083   8.715  21.759  0.00  0.00    +0.010 A 
ATOM     27  C   UNL     1      18.253   7.900  20.972  0.00  0.00    -0.018 A 
ATOM     30  C   UNL     1      16.137   7.552  19.822  0.00  0.00    +0.008 A 
ATOM     32  C   UNL     1      18.672   6.631  20.537  0.00  0.00    +0.008 A 
ATOM     33  C   UNL     1      16.569   6.294  19.399  0.00  0.00    +0.001 A 
ATOM     34  C   UNL     1      17.834   5.835  19.756  0.00  0.00    +0.001 A 
ENDBRANCH   1  19
ENDBRANCH   8   1
ENDBRANCH  15   8
TORSDOF 6
ENDMDL
MODEL 2
REMARK VINA RESULT:      -7.5     27.593     29.569
REMARK  Name = 11887301
REMARK  7 active torsions:
REMARK  status: ('A' for Active; 'I' for Inactive)
REMARK    1  A    between atoms: S_1  and  N_8
REMARK    2  A    between atoms: S_1  and  C_19
REMARK    3  A    between atoms: O_6  and  C_28
REMARK    4  A    between atoms: O_6  and  C_35
REMARK    5  A    between atoms: N_7  and  C_14
REMARK    6  A    between atoms: N_8  and  C_15
REMARK    7  A    between atoms: C_18  and  C_20
REMARK                            x       y       z     vdW  Elec       q    Type
REMARK                         _______ _______ _______ _____ _____    ______ ____
ROOT
ATOM      2  O   UNL     1      -5.036 -11.456  19.133  0.00  0.00    -0.370 OA
ATOM      3  O   UNL     1      -5.792  -9.667  16.643  0.00  0.00    -0.370 OA
ATOM     12  C   UNL     1      -6.410 -10.787  17.303  0.00  0.00    +0.175 C 
ATOM     13  C   UNL     1      -5.299 -11.718  17.747  0.00  0.00    +0.170 C 
ATOM     14  C   UNL     1      -7.066 -10.327  18.591  0.00  0.00    +0.168 C 
ATOM     15  C   UNL     1      -4.111 -11.314  16.906  0.00  0.00    +0.133 C 
ATOM     16  C   UNL     1      -5.942 -10.454  19.613  0.00  0.00    +0.190 C 
ATOM     17  C   UNL     1      -4.369  -9.844  16.642  0.00  0.00    +0.183 C 
ENDROOT
BRANCH  14   7
ATOM      7  N   UNL     1      -8.279 -11.087  18.906  0.00  0.00    -0.217 N 
ATOM      9  N   UNL     1      -8.269 -12.012  19.872  0.00  0.00    -0.043 NA
ATOM     10  N   UNL     1     -10.291 -11.880  18.940  0.00  0.00    -0.108 NA
ATOM     11  N   UNL     1      -9.506 -12.495  19.889  0.00  0.00    -0.023 NA
ATOM     18  C   UNL     1      -9.509 -11.010  18.343  0.00  0.00    +0.182 A 
BRANCH  18  20
ATOM     20  C   UNL     1      -9.866 -10.115  17.272  0.00  0.00    +0.024 A 
ATOM     23  C   UNL     1     -10.252  -8.803  17.554  0.00  0.00    +0.057 A 
ATOM     24  C   UNL     1      -9.825 -10.558  15.950  0.00  0.00    +0.012 A 
ATOM     28  C   UNL     1     -10.595  -7.937  16.516  0.00  0.00    +0.121 A 
ATOM     29  C   UNL     1     -10.169  -9.692  14.911  0.00  0.00    +0.004 A 
ATOM     31  C   UNL     1     -10.554  -8.382  15.195  0.00  0.00    +0.045 A 
BRANCH  28   6
ATOM      6  O   UNL     1     -10.970  -6.658  16.793  0.00  0.00    -0.495 OA
ATOM     35  C   UNL     1     -11.580  -5.918  15.736  0.00  0.00    +0.277 C 
ENDBRANCH  28   6
ENDBRANCH  18  20
ENDBRANCH  14   7
BRANCH  15   8
ATOM      8  N   UNL     1      -4.123 -12.059  15.624  0.00  0.00    -0.182 NA
ATOM     36  H   UNL     1      -4.860 -12.767  15.515  0.00  0.00    +0.148 HD
BRANCH   8   1
ATOM      1  S   UNL     1      -2.690 -12.218  14.727  0.00  0.00    +0.059 S 
ATOM      4  O   UNL     1      -2.533 -13.598  14.309  0.00  0.00    -0.153 OA
ATOM      5  O   UNL     1      -1.619 -11.543  15.435  0.00  0.00    -0.153 OA
BRANCH   1  19
ATOM     19  C   UNL     1      -3.050 -11.250  13.291  0.00  0.00    +0.106 A 
ATOM     21  C   UNL     1      -4.336 -10.772  13.104  0.00  0.00    +0.037 A 
ATOM     22  C   UNL     1      -2.042 -10.991  12.385  0.00  0.00    +0.029 A 
ATOM     25  C   UNL     1      -4.637 -10.003  11.968  0.00  0.00    -0.016 A 
ATOM     26  C   UNL     1      -2.324 -10.227  11.251  0.00  0.00    +0.010 A 
ATOM     27  C   UNL     1      -3.617  -9.726  11.029  0.00  0.00    -0.018 A 
ATOM     30  C   UNL     1      -5.931  -9.501  11.746  0.00  0.00    +0.008 A 
ATOM     32  C   UNL     1      -3.919  -8.956   9.893  0.00  0.00    +0.008 A 
ATOM     33  C   UNL     1      -6.213  -8.739  10.612  0.00  0.00    +0.001 A 
ATOM     34  C   UNL     1      -5.209  -8.467   9.688  0.00  0.00    +0.001 A 
ENDBRANCH   1  19
ENDBRANCH   8   1
ENDBRANCH  15   8
TORSDOF 6
ENDMDL
MODEL 3
REMARK VINA RESULT:      -7.4     27.737     30.729
REMARK  Name = 11887301
REMARK  7 active torsions:
REMARK  status: ('A' for Active; 'I' for Inactive)
REMARK    1  A    between atoms: S_1  and  N_8
REMARK    2  A    between atoms: S_1  and  C_19
REMARK    3  A    between atoms: O_6  and  C_28
REMARK    4  A    between atoms: O_6  and  C_35
REMARK    5  A    between atoms: N_7  and  C_14
REMARK    6  A    between atoms: N_8  and  C_15
REMARK    7  A    between atoms: C_18  and  C_20
REMARK                            x       y       z     vdW  Elec       q    Type
REMARK                         _______ _______ _______ _____ _____    ______ ____
ROOT
ATOM      2  O   UNL     1     -14.019   4.575  23.055  0.00  0.00    -0.370 OA
ATOM      3  O   UNL     1     -17.129   4.805  22.553  0.00  0.00    -0.370 OA
ATOM     12  C   UNL     1     -16.144   5.649  23.178  0.00  0.00    +0.175 C 
ATOM     13  C   UNL     1     -15.166   4.743  23.901  0.00  0.00    +0.170 C 
ATOM     14  C   UNL     1     -15.314   6.345  22.116  0.00  0.00    +0.168 C 
ATOM     15  C   UNL     1     -15.904   3.433  24.045  0.00  0.00    +0.133 C 
ATOM     16  C   UNL     1     -14.182   5.356  21.864  0.00  0.00    +0.190 C 
ATOM     17  C   UNL     1     -16.830   3.433  22.846  0.00  0.00    +0.183 C 
ENDROOT
BRANCH  14   7
ATOM      7  N   UNL     1     -14.887   7.685  22.525  0.00  0.00    -0.217 N 
ATOM      9  N   UNL     1     -15.387   8.251  23.629  0.00  0.00    -0.043 NA
ATOM     10  N   UNL     1     -13.929   9.620  22.645  0.00  0.00    -0.108 NA
ATOM     11  N   UNL     1     -14.796   9.437  23.698  0.00  0.00    -0.023 NA
ATOM     18  C   UNL     1     -14.001   8.520  21.931  0.00  0.00    +0.182 A 
BRANCH  18  20
ATOM     20  C   UNL     1     -13.279   8.224  20.720  0.00  0.00    +0.024 A 
ATOM     23  C   UNL     1     -13.902   8.371  19.479  0.00  0.00    +0.057 A 
ATOM     24  C   UNL     1     -11.954   7.790  20.786  0.00  0.00    +0.012 A 
ATOM     28  C   UNL     1     -13.200   8.085  18.308  0.00  0.00    +0.121 A 
ATOM     29  C   UNL     1     -11.253   7.504  19.614  0.00  0.00    +0.004 A 
ATOM     31  C   UNL     1     -11.876   7.652  18.376  0.00  0.00    +0.045 A 
BRANCH  28   6
ATOM      6  O   UNL     1     -13.808   8.230  17.099  0.00  0.00    -0.495 OA
ATOM     35  C   UNL     1     -12.962   8.416  15.965  0.00  0.00    +0.277 C 
ENDBRANCH  28   6
ENDBRANCH  18  20
ENDBRANCH  14   7
BRANCH  15   8
ATOM      8  N   UNL     1     -16.705   3.439  25.293  0.00  0.00    -0.182 NA
ATOM     36  H   UNL     1     -16.651   4.291  25.865  0.00  0.00    +0.148 HD
BRANCH   8   1
ATOM      1  S   UNL     1     -17.117   1.971  26.039  0.00  0.00    +0.059 S 
ATOM      4  O   UNL     1     -16.432   0.881  25.370  0.00  0.00    -0.153 OA
ATOM      5  O   UNL     1     -18.555   1.927  26.220  0.00  0.00    -0.153 OA
BRANCH   1  19
ATOM     19  C   UNL     1     -16.400   2.163  27.644  0.00  0.00    +0.106 A 
ATOM     21  C   UNL     1     -16.217   1.045  28.440  0.00  0.00    +0.037 A 
ATOM     22  C   UNL     1     -16.038   3.424  28.073  0.00  0.00    +0.029 A 
ATOM     25  C   UNL     1     -15.650   1.181  29.717  0.00  0.00    -0.016 A 
ATOM     26  C   UNL     1     -15.472   3.578  29.339  0.00  0.00    +0.010 A 
ATOM     27  C   UNL     1     -15.272   2.466  30.173  0.00  0.00    -0.018 A 
ATOM     30  C   UNL     1     -15.448   0.069  30.551  0.00  0.00    +0.008 A 
ATOM     32  C   UNL     1     -14.704   2.603  31.451  0.00  0.00    +0.008 A 
ATOM     33  C   UNL     1     -14.884   0.223  31.818  0.00  0.00    +0.001 A 
ATOM     34  C   UNL     1     -14.513   1.487  32.267  0.00  0.00    +0.001 A 
ENDBRANCH   1  19
ENDBRANCH   8   1
ENDBRANCH  15   8
TORSDOF 6
ENDMDL
MODEL 4
REMARK VINA RESULT:      -7.4      1.056      2.111
REMARK  Name = 11887301
REMARK  7 active torsions:
REMARK  status: ('A' for Active; 'I' for Inactive)
REMARK    1  A    between atoms: S_1  and  N_8
REMARK    2  A    between atoms: S_1  and  C_19
REMARK    3  A    between atoms: O_6  and  C_28
REMARK    4  A    between atoms: O_6  and  C_35
REMARK    5  A    between atoms: N_7  and  C_14
REMARK    6  A    between atoms: N_8  and  C_15
REMARK    7  A    between atoms: C_18  and  C_20
REMARK                            x       y       z     vdW  Elec       q    Type
REMARK                         _______ _______ _______ _____ _____    ______ ____
ROOT
ATOM      2  O   UNL     1      12.522  10.797  23.080  0.00  0.00    -0.370 OA
ATOM      3  O   UNL     1      12.612  11.543  20.013  0.00  0.00    -0.370 OA
ATOM     12  C   UNL     1      12.727  10.314  20.754  0.00  0.00    +0.175 C 
ATOM     13  C   UNL     1      13.486  10.627  22.030  0.00  0.00    +0.170 C 
ATOM     14  C   UNL     1      11.356   9.864  21.220  0.00  0.00    +0.168 C 
ATOM     15  C   UNL     1      14.180  11.937  21.743  0.00  0.00    +0.133 C 
ATOM     16  C   UNL     1      11.205  10.563  22.567  0.00  0.00    +0.190 C 
ATOM     17  C   UNL     1      13.255  12.598  20.741  0.00  0.00    +0.183 C 
ENDROOT
BRANCH  14   7
ATOM      7  N   UNL     1      11.228   8.405  21.262  0.00  0.00    -0.217 N 
ATOM      9  N   UNL     1      10.557   7.810  22.254  0.00  0.00    -0.043 NA
ATOM     10  N   UNL     1      11.355   6.290  20.832  0.00  0.00    -0.108 NA
ATOM     11  N   UNL     1      10.638   6.513  21.986  0.00  0.00    -0.023 NA
ATOM     18  C   UNL     1      11.710   7.478  20.400  0.00  0.00    +0.182 A 
BRANCH  18  20
ATOM     20  C   UNL     1      12.480   7.776  19.221  0.00  0.00    +0.024 A 
ATOM     23  C   UNL     1      11.904   8.494  18.170  0.00  0.00    +0.057 A 
ATOM     24  C   UNL     1      13.806   7.350  19.126  0.00  0.00    +0.012 A 
ATOM     28  C   UNL     1      12.652   8.785  17.030  0.00  0.00    +0.121 A 
ATOM     29  C   UNL     1      14.554   7.641  17.984  0.00  0.00    +0.004 A 
ATOM     31  C   UNL     1      13.976   8.358  16.937  0.00  0.00    +0.045 A 
BRANCH  28   6
ATOM      6  O   UNL     1      12.089   9.485  16.007  0.00  0.00    -0.495 OA
ATOM     35  C   UNL     1      10.768   9.111  15.615  0.00  0.00    +0.277 C 
ENDBRANCH  28   6
ENDBRANCH  18  20
ENDBRANCH  14   7
BRANCH  15   8
ATOM      8  N   UNL     1      15.497  11.682  21.110  0.00  0.00    -0.182 NA
ATOM     36  H   UNL     1      15.480  11.234  20.185  0.00  0.00    +0.148 HD
BRANCH   8   1
ATOM      1  S   UNL     1      16.881  11.516  22.080  0.00  0.00    +0.059 S 
ATOM      4  O   UNL     1      16.491  11.487  23.477  0.00  0.00    -0.153 OA
ATOM      5  O   UNL     1      17.887  12.456  21.622  0.00  0.00    -0.153 OA
BRANCH   1  19
ATOM     19  C   UNL     1      17.445   9.900  21.637  0.00  0.00    +0.106 A 
ATOM     21  C   UNL     1      18.803   9.630  21.658  0.00  0.00    +0.037 A 
ATOM     22  C   UNL     1      16.522   8.940  21.277  0.00  0.00    +0.029 A 
ATOM     25  C   UNL     1      19.267   8.351  21.307  0.00  0.00    -0.016 A 
ATOM     26  C   UNL     1      16.965   7.664  20.927  0.00  0.00    +0.010 A 
ATOM     27  C   UNL     1      18.334   7.354  20.937  0.00  0.00    -0.018 A 
ATOM     30  C   UNL     1      20.637   8.041  21.319  0.00  0.00    +0.008 A 
ATOM     32  C   UNL     1      18.799   6.075  20.587  0.00  0.00    +0.008 A 
ATOM     33  C   UNL     1      21.081   6.766  20.967  0.00  0.00    +0.001 A 
ATOM     34  C   UNL     1      20.163   5.785  20.602  0.00  0.00    +0.001 A 
ENDBRANCH   1  19
ENDBRANCH   8   1
ENDBRANCH  15   8
TORSDOF 6
ENDMDL
MODEL 5
REMARK VINA RESULT:      -6.9     15.927     19.795
REMARK  Name = 11887301
REMARK  7 active torsions:
REMARK  status: ('A' for Active; 'I' for Inactive)
REMARK    1  A    between atoms: S_1  and  N_8
REMARK    2  A    between atoms: S_1  and  C_19
REMARK    3  A    between atoms: O_6  and  C_28
REMARK    4  A    between atoms: O_6  and  C_35
REMARK    5  A    between atoms: N_7  and  C_14
REMARK    6  A    between atoms: N_8  and  C_15
REMARK    7  A    between atoms: C_18  and  C_20
REMARK                            x       y       z     vdW  Elec       q    Type
REMARK                         _______ _______ _______ _____ _____    ______ ____
ROOT
ATOM      2  O   UNL     1       9.259   7.121  -1.383  0.00  0.00    -0.370 OA
ATOM      3  O   UNL     1      11.842   7.389   0.415  0.00  0.00    -0.370 OA
ATOM     12  C   UNL     1      11.012   6.288   0.001  0.00  0.00    +0.175 C 
ATOM     13  C   UNL     1       9.580   6.786  -0.025  0.00  0.00    +0.170 C 
ATOM     14  C   UNL     1      11.321   5.923  -1.438  0.00  0.00    +0.168 C 
ATOM     15  C   UNL     1       9.600   8.032   0.829  0.00  0.00    +0.133 C 
ATOM     16  C   UNL     1      10.376   6.821  -2.229  0.00  0.00    +0.190 C 
ATOM     17  C   UNL     1      11.017   8.539   0.654  0.00  0.00    +0.183 C 
ENDROOT
BRANCH  14   7
ATOM      7  N   UNL     1      11.175   4.488  -1.698  0.00  0.00    -0.217 N 
ATOM      9  N   UNL     1      10.158   4.031  -2.436  0.00  0.00    -0.043 NA
ATOM     10  N   UNL     1      11.446   2.344  -1.755  0.00  0.00    -0.108 NA
ATOM     11  N   UNL     1      10.329   2.716  -2.468  0.00  0.00    -0.023 NA
ATOM     18  C   UNL     1      11.956   3.460  -1.287  0.00  0.00    +0.182 A 
BRANCH  18  20
ATOM     20  C   UNL     1      13.136   3.600  -0.473  0.00  0.00    +0.024 A 
ATOM     23  C   UNL     1      14.312   4.110  -1.027  0.00  0.00    +0.057 A 
ATOM     24  C   UNL     1      13.105   3.228   0.871  0.00  0.00    +0.012 A 
ATOM     28  C   UNL     1      15.453   4.248  -0.237  0.00  0.00    +0.121 A 
ATOM     29  C   UNL     1      14.248   3.365   1.661  0.00  0.00    +0.004 A 
ATOM     31  C   UNL     1      15.421   3.875   1.106  0.00  0.00    +0.045 A 
BRANCH  28   6
ATOM      6  O   UNL     1      16.599   4.746  -0.778  0.00  0.00    -0.495 OA
ATOM     35  C   UNL     1      16.784   4.569  -2.182  0.00  0.00    +0.277 C 
ENDBRANCH  28   6
ENDBRANCH  18  20
ENDBRANCH  14   7
BRANCH  15   8
ATOM      8  N   UNL     1       9.371   7.675   2.250  0.00  0.00    -0.182 NA
ATOM     36  H   UNL     1       9.285   6.672   2.460  0.00  0.00    +0.148 HD
BRANCH   8   1
ATOM      1  S   UNL     1       8.652   8.800   3.298  0.00  0.00    +0.059 S 
ATOM      4  O   UNL     1       7.236   8.901   2.999  0.00  0.00    -0.153 OA
ATOM      5  O   UNL     1       9.476   9.993   3.339  0.00  0.00    -0.153 OA
BRANCH   1  19
ATOM     19  C   UNL     1       8.823   8.001   4.865  0.00  0.00    +0.106 A 
ATOM     21  C   UNL     1       9.209   6.671   4.907  0.00  0.00    +0.037 A 
ATOM     22  C   UNL     1       8.567   8.716   6.017  0.00  0.00    +0.029 A 
ATOM     25  C   UNL     1       9.349   6.022   6.144  0.00  0.00    -0.016 A 
ATOM     26  C   UNL     1       8.702   8.087   7.256  0.00  0.00    +0.010 A 
ATOM     27  C   UNL     1       9.092   6.740   7.336  0.00  0.00    -0.018 A 
ATOM     30  C   UNL     1       9.740   4.675   6.224  0.00  0.00    +0.008 A 
ATOM     32  C   UNL     1       9.231   6.090   8.574  0.00  0.00    +0.008 A 
ATOM     33  C   UNL     1       9.873   4.045   7.462  0.00  0.00    +0.001 A 
ATOM     34  C   UNL     1       9.619   4.752   8.634  0.00  0.00    +0.001 A 
ENDBRANCH   1  19
ENDBRANCH   8   1
ENDBRANCH  15   8
TORSDOF 6
ENDMDL
MODEL 6
REMARK VINA RESULT:      -6.8     27.847     30.317
REMARK  Name = 11887301
REMARK  7 active torsions:
REMARK  status: ('A' for Active; 'I' for Inactive)
REMARK    1  A    between atoms: S_1  and  N_8
REMARK    2  A    between atoms: S_1  and  C_19
REMARK    3  A    between atoms: O_6  and  C_28
REMARK    4  A    between atoms: O_6  and  C_35
REMARK    5  A    between atoms: N_7  and  C_14
REMARK    6  A    between atoms: N_8  and  C_15
REMARK    7  A    between atoms: C_18  and  C_20
REMARK                            x       y       z     vdW  Elec       q    Type
REMARK                         _______ _______ _______ _____ _____    ______ ____
ROOT
ATOM      2  O   UNL     1      -5.559 -11.386  15.451  0.00  0.00    -0.370 OA
ATOM      3  O   UNL     1      -5.887 -14.502  15.845  0.00  0.00    -0.370 OA
ATOM     12  C   UNL     1      -5.353 -13.436  16.652  0.00  0.00    +0.175 C 
ATOM     13  C   UNL     1      -4.654 -12.469  15.716  0.00  0.00    +0.170 C 
ATOM     14  C   UNL     1      -6.487 -12.633  17.260  0.00  0.00    +0.168 C 
ATOM     15  C   UNL     1      -4.418 -13.269  14.456  0.00  0.00    +0.133 C 
ATOM     16  C   UNL     1      -6.767 -11.576  16.198  0.00  0.00    +0.190 C 
ATOM     17  C   UNL     1      -5.560 -14.264  14.469  0.00  0.00    +0.183 C 
ENDROOT
BRANCH  14   7
ATOM      7  N   UNL     1      -6.155 -12.107  18.587  0.00  0.00    -0.217 N 
ATOM      9  N   UNL     1      -4.884 -12.060  19.000  0.00  0.00    -0.043 NA
ATOM     10  N   UNL     1      -6.246 -11.262  20.575  0.00  0.00    -0.108 NA
ATOM     11  N   UNL     1      -4.945 -11.540  20.220  0.00  0.00    -0.023 NA
ATOM     18  C   UNL     1      -6.979 -11.621  19.546  0.00  0.00    +0.182 A 
BRANCH  18  20
ATOM     20  C   UNL     1      -8.411 -11.530  19.428  0.00  0.00    +0.024 A 
ATOM     23  C   UNL     1      -8.995 -10.408  18.835  0.00  0.00    +0.057 A 
ATOM     24  C   UNL     1      -9.219 -12.563  19.905  0.00  0.00    +0.012 A 
ATOM     28  C   UNL     1     -10.382 -10.322  18.719  0.00  0.00    +0.121 A 
ATOM     29  C   UNL     1     -10.607 -12.476  19.789  0.00  0.00    +0.004 A 
ATOM     31  C   UNL     1     -11.188 -11.355  19.196  0.00  0.00    +0.045 A 
BRANCH  28   6
ATOM      6  O   UNL     1     -10.950  -9.228  18.140  0.00  0.00    -0.495 OA
ATOM     35  C   UNL     1     -10.078  -8.331  17.454  0.00  0.00    +0.277 C 
ENDBRANCH  28   6
ENDBRANCH  18  20
ENDBRANCH  14   7
BRANCH  15   8
ATOM      8  N   UNL     1      -3.127 -13.992  14.553  0.00  0.00    -0.182 NA
ATOM     36  H   UNL     1      -2.674 -13.996  15.476  0.00  0.00    +0.148 HD
BRANCH   8   1
ATOM      1  S   UNL     1      -2.170 -14.199  13.166  0.00  0.00    +0.059 S 
ATOM      4  O   UNL     1      -2.698 -15.295  12.375  0.00  0.00    -0.153 OA
ATOM      5  O   UNL     1      -0.773 -14.189  13.557  0.00  0.00    -0.153 OA
BRANCH   1  19
ATOM     19  C   UNL     1      -2.470 -12.695  12.287  0.00  0.00    +0.106 A 
ATOM     21  C   UNL     1      -3.327 -12.709  11.199  0.00  0.00    +0.037 A 
ATOM     22  C   UNL     1      -1.844 -11.537  12.700  0.00  0.00    +0.029 A 
ATOM     25  C   UNL     1      -3.575 -11.523  10.489  0.00  0.00    -0.016 A 
ATOM     26  C   UNL     1      -2.080 -10.349  12.007  0.00  0.00    +0.010 A 
ATOM     27  C   UNL     1      -2.943 -10.326  10.900  0.00  0.00    -0.018 A 
ATOM     30  C   UNL     1      -4.440 -11.499   9.382  0.00  0.00    +0.008 A 
ATOM     32  C   UNL     1      -3.192  -9.139  10.190  0.00  0.00    +0.008 A 
ATOM     33  C   UNL     1      -4.674 -10.312   8.688  0.00  0.00    +0.001 A 
ATOM     34  C   UNL     1      -4.052  -9.134   9.092  0.00  0.00    +0.001 A 
ENDBRANCH   1  19
ENDBRANCH   8   1
ENDBRANCH  15   8
TORSDOF 6
ENDMDL
MODEL 7
REMARK VINA RESULT:      -6.8     21.923     26.484
REMARK  Name = 11887301
REMARK  7 active torsions:
REMARK  status: ('A' for Active; 'I' for Inactive)
REMARK    1  A    between atoms: S_1  and  N_8
REMARK    2  A    between atoms: S_1  and  C_19
REMARK    3  A    between atoms: O_6  and  C_28
REMARK    4  A    between atoms: O_6  and  C_35
REMARK    5  A    between atoms: N_7  and  C_14
REMARK    6  A    between atoms: N_8  and  C_15
REMARK    7  A    between atoms: C_18  and  C_20
REMARK                            x       y       z     vdW  Elec       q    Type
REMARK                         _______ _______ _______ _____ _____    ______ ____
ROOT
ATOM      2  O   UNL     1       9.236   5.438  -5.608  0.00  0.00    -0.370 OA
ATOM      3  O   UNL     1       8.234   6.607  -2.851  0.00  0.00    -0.370 OA
ATOM     12  C   UNL     1       8.349   5.281  -3.400  0.00  0.00    +0.175 C 
ATOM     13  C   UNL     1       8.004   5.373  -4.875  0.00  0.00    +0.170 C 
ATOM     14  C   UNL     1       9.798   4.835  -3.369  0.00  0.00    +0.168 C 
ATOM     15  C   UNL     1       7.252   6.676  -5.005  0.00  0.00    +0.133 C 
ATOM     16  C   UNL     1      10.342   5.342  -4.700  0.00  0.00    +0.190 C 
ATOM     17  C   UNL     1       7.834   7.516  -3.886  0.00  0.00    +0.183 C 
ENDROOT
BRANCH  14   7
ATOM      7  N   UNL     1       9.938   3.393  -3.152  0.00  0.00    -0.217 N 
ATOM      9  N   UNL     1       8.991   2.547  -3.573  0.00  0.00    -0.043 NA
ATOM     10  N   UNL     1      10.645   1.432  -2.579  0.00  0.00    -0.108 NA
ATOM     11  N   UNL     1       9.429   1.346  -3.219  0.00  0.00    -0.023 NA
ATOM     18  C   UNL     1      10.941   2.710  -2.549  0.00  0.00    +0.182 A 
BRANCH  18  20
ATOM     20  C   UNL     1      12.118   3.315  -1.980  0.00  0.00    +0.024 A 
ATOM     23  C   UNL     1      12.220   3.486  -0.598  0.00  0.00    +0.057 A 
ATOM     24  C   UNL     1      13.160   3.730  -2.811  0.00  0.00    +0.012 A 
ATOM     28  C   UNL     1      13.361   4.070  -0.049  0.00  0.00    +0.121 A 
ATOM     29  C   UNL     1      14.302   4.314  -2.260  0.00  0.00    +0.004 A 
ATOM     31  C   UNL     1      14.402   4.484  -0.880  0.00  0.00    +0.045 A 
BRANCH  28   6
ATOM      6  O   UNL     1      13.459   4.235   1.299  0.00  0.00    -0.495 OA
ATOM     35  C   UNL     1      12.435   4.998   1.935  0.00  0.00    +0.277 C 
ENDBRANCH  28   6
ENDBRANCH  18  20
ENDBRANCH  14   7
BRANCH  15   8
ATOM      8  N   UNL     1       5.807   6.451  -4.757  0.00  0.00    -0.182 NA
ATOM     36  H   UNL     1       5.569   5.838  -3.967  0.00  0.00    +0.148 HD
BRANCH   8   1
ATOM      1  S   UNL     1       4.696   6.622  -6.030  0.00  0.00    +0.059 S 
ATOM      4  O   UNL     1       5.277   6.096  -7.251  0.00  0.00    -0.153 OA
ATOM      5  O   UNL     1       4.155   7.967  -6.000  0.00  0.00    -0.153 OA
BRANCH   1  19
ATOM     19  C   UNL     1       3.397   5.532  -5.530  0.00  0.00    +0.106 A 
ATOM     21  C   UNL     1       3.518   4.176  -5.783  0.00  0.00    +0.037 A 
ATOM     22  C   UNL     1       2.287   6.053  -4.898  0.00  0.00    +0.029 A 
ATOM     25  C   UNL     1       2.494   3.298  -5.393  0.00  0.00    -0.016 A 
ATOM     26  C   UNL     1       1.261   5.195  -4.501  0.00  0.00    +0.010 A 
ATOM     27  C   UNL     1       1.349   3.814  -4.742  0.00  0.00    -0.018 A 
ATOM     30  C   UNL     1       2.584   1.916  -5.632  0.00  0.00    +0.008 A 
ATOM     32  C   UNL     1       0.325   2.935  -4.351  0.00  0.00    +0.008 A 
ATOM     33  C   UNL     1       1.557   1.057  -5.238  0.00  0.00    +0.001 A 
ATOM     34  C   UNL     1       0.430   1.567  -4.599  0.00  0.00    +0.001 A 
ENDBRANCH   1  19
ENDBRANCH   8   1
ENDBRANCH  15   8
TORSDOF 6
ENDMDL
MODEL 8
REMARK VINA RESULT:      -6.8     17.684     21.725
REMARK  Name = 11887301
REMARK  7 active torsions:
REMARK  status: ('A' for Active; 'I' for Inactive)
REMARK    1  A    between atoms: S_1  and  N_8
REMARK    2  A    between atoms: S_1  and  C_19
REMARK    3  A    between atoms: O_6  and  C_28
REMARK    4  A    between atoms: O_6  and  C_35
REMARK    5  A    between atoms: N_7  and  C_14
REMARK    6  A    between atoms: N_8  and  C_15
REMARK    7  A    between atoms: C_18  and  C_20
REMARK                            x       y       z     vdW  Elec       q    Type
REMARK                         _______ _______ _______ _____ _____    ______ ____
ROOT
ATOM      2  O   UNL     1       8.079   6.176  -3.305  0.00  0.00    -0.370 OA
ATOM      3  O   UNL     1      11.043   7.076  -2.692  0.00  0.00    -0.370 OA
ATOM     12  C   UNL     1      10.265   5.901  -2.396  0.00  0.00    +0.175 C 
ATOM     13  C   UNL     1       8.849   6.359  -2.108  0.00  0.00    +0.170 C 
ATOM     14  C   UNL     1      10.148   5.036  -3.636  0.00  0.00    +0.168 C 
ATOM     15  C   UNL     1       8.985   7.830  -1.796  0.00  0.00    +0.133 C 
ATOM     16  C   UNL     1       8.901   5.585  -4.320  0.00  0.00    +0.190 C 
ATOM     17  C   UNL     1      10.204   8.235  -2.600  0.00  0.00    +0.183 C 
ENDROOT
BRANCH  14   7
ATOM      7  N   UNL     1      10.102   3.605  -3.321  0.00  0.00    -0.217 N 
ATOM      9  N   UNL     1       9.068   2.856  -3.716  0.00  0.00    -0.043 NA
ATOM     10  N   UNL     1      10.547   1.616  -2.600  0.00  0.00    -0.108 NA
ATOM     11  N   UNL     1       9.346   1.636  -3.272  0.00  0.00    -0.023 NA
ATOM     18  C   UNL     1      10.999   2.849  -2.644  0.00  0.00    +0.182 A 
BRANCH  18  20
ATOM     20  C   UNL     1      12.228   3.342  -2.078  0.00  0.00    +0.024 A 
ATOM     23  C   UNL     1      12.385   3.407  -0.692  0.00  0.00    +0.057 A 
ATOM     24  C   UNL     1      13.265   3.756  -2.915  0.00  0.00    +0.012 A 
ATOM     28  C   UNL     1      13.577   3.883  -0.146  0.00  0.00    +0.121 A 
ATOM     29  C   UNL     1      14.457   4.233  -2.368  0.00  0.00    +0.004 A 
ATOM     31  C   UNL     1      14.613   4.296  -0.984  0.00  0.00    +0.045 A 
BRANCH  28   6
ATOM      6  O   UNL     1      13.729   3.945   1.205  0.00  0.00    -0.495 OA
ATOM     35  C   UNL     1      14.974   3.495   1.739  0.00  0.00    +0.277 C 
ENDBRANCH  28   6
ENDBRANCH  18  20
ENDBRANCH  14   7
BRANCH  15   8
ATOM      8  N   UNL     1       9.259   8.016  -0.350  0.00  0.00    -0.182 NA
ATOM     36  H   UNL     1       9.583   7.186   0.163  0.00  0.00    +0.148 HD
BRANCH   8   1
ATOM      1  S   UNL     1       8.481   9.260   0.504  0.00  0.00    +0.059 S 
ATOM      4  O   UNL     1       7.116   9.390   0.029  0.00  0.00    -0.153 OA
ATOM      5  O   UNL     1       9.354  10.418   0.540  0.00  0.00    -0.153 OA
BRANCH   1  19
ATOM     19  C   UNL     1       8.429   8.601   2.143  0.00  0.00    +0.106 A 
ATOM     21  C   UNL     1       9.196   7.489   2.449  0.00  0.00    +0.037 A 
ATOM     22  C   UNL     1       7.625   9.206   3.087  0.00  0.00    +0.029 A 
ATOM     25  C   UNL     1       9.164   6.953   3.746  0.00  0.00    -0.016 A 
ATOM     26  C   UNL     1       7.583   8.688   4.382  0.00  0.00    +0.010 A 
ATOM     27  C   UNL     1       8.347   7.561   4.727  0.00  0.00    -0.018 A 
ATOM     30  C   UNL     1       9.930   5.826   4.092  0.00  0.00    +0.008 A 
ATOM     32  C   UNL     1       8.316   7.025   6.026  0.00  0.00    +0.008 A 
ATOM     33  C   UNL     1       9.887   5.307   5.386  0.00  0.00    +0.001 A 
ATOM     34  C   UNL     1       9.081   5.905   6.350  0.00  0.00    +0.001 A 
ENDBRANCH   1  19
ENDBRANCH   8   1
ENDBRANCH  15   8
TORSDOF 6
ENDMDL
MODEL 9
REMARK VINA RESULT:      -6.7     27.876     30.658
REMARK  Name = 11887301
REMARK  7 active torsions:
REMARK  status: ('A' for Active; 'I' for Inactive)
REMARK    1  A    between atoms: S_1  and  N_8
REMARK    2  A    between atoms: S_1  and  C_19
REMARK    3  A    between atoms: O_6  and  C_28
REMARK    4  A    between atoms: O_6  and  C_35
REMARK    5  A    between atoms: N_7  and  C_14
REMARK    6  A    between atoms: N_8  and  C_15
REMARK    7  A    between atoms: C_18  and  C_20
REMARK                            x       y       z     vdW  Elec       q    Type
REMARK                         _______ _______ _______ _____ _____    ______ ____
ROOT
ATOM      2  O   UNL     1      -5.766 -12.718  14.978  0.00  0.00    -0.370 OA
ATOM      3  O   UNL     1      -7.158  -9.904  14.631  0.00  0.00    -0.370 OA
ATOM     12  C   UNL     1      -5.803 -10.337  14.851  0.00  0.00    +0.175 C 
ATOM     13  C   UNL     1      -5.857 -11.533  15.782  0.00  0.00    +0.170 C 
ATOM     14  C   UNL     1      -5.220 -10.879  13.560  0.00  0.00    +0.168 C 
ATOM     15  C   UNL     1      -7.219 -11.445  16.429  0.00  0.00    +0.133 C 
ATOM     16  C   UNL     1      -5.608 -12.353  13.601  0.00  0.00    +0.190 C 
ATOM     17  C   UNL     1      -8.050 -10.749  15.371  0.00  0.00    +0.183 C 
ENDROOT
BRANCH  14   7
ATOM      7  N   UNL     1      -3.783 -10.620  13.439  0.00  0.00    -0.217 N 
ATOM      9  N   UNL     1      -3.006 -10.578  14.526  0.00  0.00    -0.043 NA
ATOM     10  N   UNL     1      -1.796 -10.209  12.691  0.00  0.00    -0.108 NA
ATOM     11  N   UNL     1      -1.789 -10.325  14.062  0.00  0.00    -0.023 NA
ATOM     18  C   UNL     1      -3.044 -10.395  12.326  0.00  0.00    +0.182 A 
BRANCH  18  20
ATOM     20  C   UNL     1      -3.568 -10.370  10.985  0.00  0.00    +0.024 A 
ATOM     23  C   UNL     1      -3.816 -11.565  10.307  0.00  0.00    +0.057 A 
ATOM     24  C   UNL     1      -3.830  -9.150  10.360  0.00  0.00    +0.012 A 
ATOM     28  C   UNL     1      -4.326 -11.540   9.009  0.00  0.00    +0.121 A 
ATOM     29  C   UNL     1      -4.340  -9.125   9.061  0.00  0.00    +0.004 A 
ATOM     31  C   UNL     1      -4.588 -10.320   8.387  0.00  0.00    +0.045 A 
BRANCH  28   6
ATOM      6  O   UNL     1      -4.569 -12.706   8.350  0.00  0.00    -0.495 OA
ATOM     35  C   UNL     1      -4.311 -13.917   9.059  0.00  0.00    +0.277 C 
ENDBRANCH  28   6
ENDBRANCH  18  20
ENDBRANCH  14   7
BRANCH  15   8
ATOM      8  N   UNL     1      -7.147 -10.596  17.643  0.00  0.00    -0.182 NA
ATOM     36  H   UNL     1      -6.860  -9.619  17.501  0.00  0.00    +0.148 HD
BRANCH   8   1
ATOM      1  S   UNL     1      -6.898 -11.314  19.162  0.00  0.00    +0.059 S 
ATOM      4  O   UNL     1      -6.369 -10.325  20.082  0.00  0.00    -0.153 OA
ATOM      5  O   UNL     1      -6.210 -12.577  18.973  0.00  0.00    -0.153 OA
BRANCH   1  19
ATOM     19  C   UNL     1      -8.551 -11.696  19.660  0.00  0.00    +0.106 A 
ATOM     21  C   UNL     1      -9.498 -10.687  19.686  0.00  0.00    +0.037 A 
ATOM     22  C   UNL     1      -8.864 -12.992  20.016  0.00  0.00    +0.029 A 
ATOM     25  C   UNL     1     -10.815 -10.974  20.081  0.00  0.00    -0.016 A 
ATOM     26  C   UNL     1     -10.168 -13.295  20.409  0.00  0.00    +0.010 A 
ATOM     27  C   UNL     1     -11.155 -12.297  20.447  0.00  0.00    -0.018 A 
ATOM     30  C   UNL     1     -11.803  -9.975  20.118  0.00  0.00    +0.008 A 
ATOM     32  C   UNL     1     -12.472 -12.584  20.843  0.00  0.00    +0.008 A 
ATOM     33  C   UNL     1     -13.106 -10.278  20.513  0.00  0.00    +0.001 A 
ATOM     34  C   UNL     1     -13.440 -11.580  20.874  0.00  0.00    +0.001 A 
ENDBRANCH   1  19
ENDBRANCH   8   1
ENDBRANCH  15   8
TORSDOF 6
ENDMDL
MODEL 10
REMARK VINA RESULT:      -6.7     27.286     30.321
REMARK  Name = 11887301
REMARK  7 active torsions:
REMARK  status: ('A' for Active; 'I' for Inactive)
REMARK    1  A    between atoms: S_1  and  N_8
REMARK    2  A    between atoms: S_1  and  C_19
REMARK    3  A    between atoms: O_6  and  C_28
REMARK    4  A    between atoms: O_6  and  C_35
REMARK    5  A    between atoms: N_7  and  C_14
REMARK    6  A    between atoms: N_8  and  C_15
REMARK    7  A    between atoms: C_18  and  C_20
REMARK                            x       y       z     vdW  Elec       q    Type
REMARK                         _______ _______ _______ _____ _____    ______ ____
ROOT
ATOM      2  O   UNL     1      -6.545 -12.707  16.303  0.00  0.00    -0.370 OA
ATOM      3  O   UNL     1      -5.512 -10.320  18.095  0.00  0.00    -0.370 OA
ATOM     12  C   UNL     1      -6.343 -10.413  16.923  0.00  0.00    +0.175 C 
ATOM     13  C   UNL     1      -5.776 -11.521  16.055  0.00  0.00    +0.170 C 
ATOM     14  C   UNL     1      -7.727 -10.896  17.310  0.00  0.00    +0.168 C 
ATOM     15  C   UNL     1      -4.362 -11.703  16.555  0.00  0.00    +0.133 C 
ATOM     16  C   UNL     1      -7.596 -12.413  17.233  0.00  0.00    +0.190 C 
ATOM     17  C   UNL     1      -4.462 -11.293  18.010  0.00  0.00    +0.183 C 
ENDROOT
BRANCH  14   7
ATOM      7  N   UNL     1      -8.779 -10.322  16.466  0.00  0.00    -0.217 N 
ATOM      9  N   UNL     1      -8.486  -9.821  15.262  0.00  0.00    -0.043 NA
ATOM     10  N   UNL     1     -10.667  -9.622  15.679  0.00  0.00    -0.108 NA
ATOM     11  N   UNL     1      -9.648  -9.393  14.783  0.00  0.00    -0.023 NA
ATOM     18  C   UNL     1     -10.105 -10.200  16.716  0.00  0.00    +0.182 A 
BRANCH  18  20
ATOM     20  C   UNL     1     -10.757 -10.637  17.923  0.00  0.00    +0.024 A 
ATOM     23  C   UNL     1     -11.217 -11.951  18.034  0.00  0.00    +0.057 A 
ATOM     24  C   UNL     1     -10.927  -9.749  18.986  0.00  0.00    +0.012 A 
ATOM     28  C   UNL     1     -11.846 -12.374  19.206  0.00  0.00    +0.121 A 
ATOM     29  C   UNL     1     -11.556 -10.173  20.157  0.00  0.00    +0.004 A 
ATOM     31  C   UNL     1     -12.015 -11.485  20.266  0.00  0.00    +0.045 A 
BRANCH  28   6
ATOM      6  O   UNL     1     -12.294 -13.655  19.313  0.00  0.00    -0.495 OA
ATOM     35  C   UNL     1     -12.782 -14.067  20.588  0.00  0.00    +0.277 C 
ENDBRANCH  28   6
ENDBRANCH  18  20
ENDBRANCH  14   7
BRANCH  15   8
ATOM      8  N   UNL     1      -3.451 -10.778  15.838  0.00  0.00    -0.182 NA
ATOM     36  H   UNL     1      -3.799  -9.822  15.685  0.00  0.00    +0.148 HD
BRANCH   8   1
ATOM      1  S   UNL     1      -2.267 -11.400  14.793  0.00  0.00    +0.059 S 
ATOM      4  O   UNL     1      -2.424 -12.838  14.688  0.00  0.00    -0.153 OA
ATOM      5  O   UNL     1      -0.982 -10.831  15.152  0.00  0.00    -0.153 OA
BRANCH   1  19
ATOM     19  C   UNL     1      -2.734 -10.685  13.245  0.00  0.00    +0.106 A 
ATOM     21  C   UNL     1      -4.075 -10.463  12.981  0.00  0.00    +0.037 A 
ATOM     22  C   UNL     1      -1.753 -10.363  12.329  0.00  0.00    +0.029 A 
ATOM     25  C   UNL     1      -4.462  -9.897  11.756  0.00  0.00    -0.016 A 
ATOM     26  C   UNL     1      -2.119  -9.798  11.107  0.00  0.00    +0.010 A 
ATOM     27  C   UNL     1      -3.470  -9.559  10.805  0.00  0.00    -0.018 A 
ATOM     30  C   UNL     1      -5.813  -9.656  11.454  0.00  0.00    +0.008 A 
ATOM     32  C   UNL     1      -3.857  -8.992   9.579  0.00  0.00    +0.008 A 
ATOM     33  C   UNL     1      -6.180  -9.093  10.232  0.00  0.00    +0.001 A 
ATOM     34  C   UNL     1      -5.204  -8.762   9.296  0.00  0.00    +0.001 A 
ENDBRANCH   1  19
ENDBRANCH   8   1
ENDBRANCH  15   8
TORSDOF 6
ENDMDL
