MODEL 1
REMARK VINA RESULT:      -6.8      0.000      0.000
REMARK  Name = 75536694
REMARK  8 active torsions:
REMARK  status: ('A' for Active; 'I' for Inactive)
REMARK    1  A    between atoms: S_1  and  N_8
REMARK    2  A    between atoms: S_1  and  C_16
REMARK    3  A    between atoms: O_4  and  C_10
REMARK    4  A    between atoms: N_7  and  C_9
REMARK    5  A    between atoms: N_7  and  C_14
REMARK    6  A    between atoms: N_8  and  C_13
REMARK    7  A    between atoms: C_11  and  C_13
REMARK    8  A    between atoms: C_14  and  C_15
REMARK                            x       y       z     vdW  Elec       q    Type
REMARK                         _______ _______ _______ _____ _____    ______ ____
ROOT
ATOM      3  O   UNL     1      10.560   8.487  19.972  0.00  0.00    -0.371 OA
ATOM      9  C   UNL     1      12.457   7.257  19.243  0.00  0.00    +0.111 C 
ATOM     10  C   UNL     1      12.432   7.275  20.760  0.00  0.00    +0.164 C 
ATOM     11  C   UNL     1      10.968   7.598  21.026  0.00  0.00    +0.164 C 
ATOM     12  C   UNL     1      11.532   8.417  18.913  0.00  0.00    +0.181 C 
ENDROOT
BRANCH  10   4
ATOM      4  O   UNL     1      12.809   6.035  21.327  0.00  0.00    -0.388 OA
ATOM     27  H   UNL     1      13.679   6.144  21.749  0.00  0.00    +0.210 HD
ENDBRANCH  10   4
BRANCH   9   7
ATOM      7  N   UNL     1      13.787   7.418  18.680  0.00  0.00    -0.304 NA
ATOM     25  H   UNL     1      13.703   7.770  17.726  0.00  0.00    +0.123 HD
BRANCH   7  14
ATOM     14  C   UNL     1      14.580   8.357  19.465  0.00  0.00    +0.124 C 
BRANCH  14  15
ATOM      2  S   UNL     1      16.809   8.544  21.118  0.00  0.00    -0.100 S 
ATOM     15  C   UNL     1      15.882   7.751  19.916  0.00  0.00    +0.004 A 
ATOM     17  C   UNL     1      16.482   6.589  19.484  0.00  0.00    +0.012 A 
ATOM     20  C   UNL     1      17.718   6.345  20.150  0.00  0.00    +0.008 A 
ATOM     21  C   UNL     1      18.016   7.331  21.064  0.00  0.00    +0.045 A 
ENDBRANCH  14  15
ENDBRANCH   7  14
ENDBRANCH   9   7
BRANCH  11  13
ATOM     13  C   UNL     1      10.733   8.258  22.373  0.00  0.00    +0.140 C 
BRANCH  13   8
ATOM      8  N   UNL     1      10.477   9.699  22.182  0.00  0.00    -0.187 NA
ATOM     26  H   UNL     1       9.629   9.933  21.650  0.00  0.00    +0.148 HD
BRANCH   8   1
ATOM      1  S   UNL     1      11.772  10.800  22.168  0.00  0.00    +0.058 S 
ATOM      5  O   UNL     1      11.868  11.415  20.858  0.00  0.00    -0.153 OA
ATOM      6  O   UNL     1      12.935  10.169  22.764  0.00  0.00    -0.153 OA
BRANCH   1  16
ATOM     16  C   UNL     1      11.214  12.031  23.308  0.00  0.00    +0.105 A 
ATOM     18  C   UNL     1      11.209  11.763  24.676  0.00  0.00    +0.028 A 
ATOM     19  C   UNL     1      10.774  13.268  22.837  0.00  0.00    +0.028 A 
ATOM     22  C   UNL     1      10.765  12.732  25.575  0.00  0.00    +0.002 A 
ATOM     23  C   UNL     1      10.330  14.238  23.736  0.00  0.00    +0.002 A 
ATOM     24  C   UNL     1      10.325  13.970  25.105  0.00  0.00    +0.000 A 
ENDBRANCH   1  16
ENDBRANCH   8   1
ENDBRANCH  13   8
ENDBRANCH  11  13
TORSDOF 8
ENDMDL
MODEL 2
REMARK VINA RESULT:      -6.5      3.613      5.755
REMARK  Name = 75536694
REMARK  8 active torsions:
REMARK  status: ('A' for Active; 'I' for Inactive)
REMARK    1  A    between atoms: S_1  and  N_8
REMARK    2  A    between atoms: S_1  and  C_16
REMARK    3  A    between atoms: O_4  and  C_10
REMARK    4  A    between atoms: N_7  and  C_9
REMARK    5  A    between atoms: N_7  and  C_14
REMARK    6  A    between atoms: N_8  and  C_13
REMARK    7  A    between atoms: C_11  and  C_13
REMARK    8  A    between atoms: C_14  and  C_15
REMARK                            x       y       z     vdW  Elec       q    Type
REMARK                         _______ _______ _______ _____ _____    ______ ____
ROOT
ATOM      3  O   UNL     1      16.976   7.810  21.077  0.00  0.00    -0.371 OA
ATOM      9  C   UNL     1      18.490   6.400  19.909  0.00  0.00    +0.111 C 
ATOM     10  C   UNL     1      17.078   5.882  19.711  0.00  0.00    +0.164 C 
ATOM     11  C   UNL     1      16.261   7.125  20.035  0.00  0.00    +0.164 C 
ATOM     12  C   UNL     1      18.316   7.287  21.132  0.00  0.00    +0.181 C 
ENDROOT
BRANCH  10   4
ATOM      4  O   UNL     1      16.843   5.427  18.392  0.00  0.00    -0.388 OA
ATOM     27  H   UNL     1      16.001   4.942  18.381  0.00  0.00    +0.210 HD
ENDBRANCH  10   4
BRANCH   9   7
ATOM      7  N   UNL     1      19.474   5.349  20.110  0.00  0.00    -0.304 NA
ATOM     25  H   UNL     1      19.623   4.861  19.226  0.00  0.00    +0.123 HD
BRANCH   7  14
ATOM     14  C   UNL     1      20.744   5.899  20.569  0.00  0.00    +0.124 C 
BRANCH  14  15
ATOM      2  S   UNL     1      22.059   5.571  22.999  0.00  0.00    -0.100 S 
ATOM     15  C   UNL     1      21.449   4.966  21.518  0.00  0.00    +0.004 A 
ATOM     17  C   UNL     1      21.695   3.619  21.370  0.00  0.00    +0.012 A 
ATOM     20  C   UNL     1      22.394   3.077  22.487  0.00  0.00    +0.008 A 
ATOM     21  C   UNL     1      22.655   4.031  23.446  0.00  0.00    +0.045 A 
ENDBRANCH  14  15
ENDBRANCH   7  14
ENDBRANCH   9   7
BRANCH  11  13
ATOM     13  C   UNL     1      14.850   6.813  20.502  0.00  0.00    +0.140 C 
BRANCH  13   8
ATOM      8  N   UNL     1      14.001   6.496  19.336  0.00  0.00    -0.187 NA
ATOM     26  H   UNL     1      14.351   5.753  18.720  0.00  0.00    +0.148 HD
BRANCH   8   1
ATOM      1  S   UNL     1      12.986   7.689  18.673  0.00  0.00    +0.058 S 
ATOM      5  O   UNL     1      12.043   7.066  17.764  0.00  0.00    -0.153 OA
ATOM      6  O   UNL     1      13.798   8.806  18.229  0.00  0.00    -0.153 OA
BRANCH   1  16
ATOM     16  C   UNL     1      12.092   8.236  20.096  0.00  0.00    +0.105 A 
ATOM     18  C   UNL     1      11.327   7.330  20.830  0.00  0.00    +0.028 A 
ATOM     19  C   UNL     1      12.147   9.576  20.482  0.00  0.00    +0.028 A 
ATOM     22  C   UNL     1      10.617   7.762  21.950  0.00  0.00    +0.002 A 
ATOM     23  C   UNL     1      11.438  10.009  21.602  0.00  0.00    +0.002 A 
ATOM     24  C   UNL     1      10.672   9.102  22.337  0.00  0.00    +0.000 A 
ENDBRANCH   1  16
ENDBRANCH   8   1
ENDBRANCH  13   8
ENDBRANCH  11  13
TORSDOF 8
ENDMDL
MODEL 3
REMARK VINA RESULT:      -6.3      5.187     10.535
REMARK  Name = 75536694
REMARK  8 active torsions:
REMARK  status: ('A' for Active; 'I' for Inactive)
REMARK    1  A    between atoms: S_1  and  N_8
REMARK    2  A    between atoms: S_1  and  C_16
REMARK    3  A    between atoms: O_4  and  C_10
REMARK    4  A    between atoms: N_7  and  C_9
REMARK    5  A    between atoms: N_7  and  C_14
REMARK    6  A    between atoms: N_8  and  C_13
REMARK    7  A    between atoms: C_11  and  C_13
REMARK    8  A    between atoms: C_14  and  C_15
REMARK                            x       y       z     vdW  Elec       q    Type
REMARK                         _______ _______ _______ _____ _____    ______ ____
ROOT
ATOM      3  O   UNL     1      17.307   5.885  19.152  0.00  0.00    -0.371 OA
ATOM      9  C   UNL     1      16.336   7.116  20.937  0.00  0.00    +0.111 C 
ATOM     10  C   UNL     1      17.647   6.513  21.406  0.00  0.00    +0.164 C 
ATOM     11  C   UNL     1      18.343   6.253  20.078  0.00  0.00    +0.164 C 
ATOM     12  C   UNL     1      16.037   6.267  19.711  0.00  0.00    +0.181 C 
ENDROOT
BRANCH  10   4
ATOM      4  O   UNL     1      18.390   7.394  22.227  0.00  0.00    -0.388 OA
ATOM     27  H   UNL     1      18.002   7.383  23.118  0.00  0.00    +0.210 HD
ENDBRANCH  10   4
BRANCH   9   7
ATOM      7  N   UNL     1      15.279   7.061  21.933  0.00  0.00    -0.304 NA
ATOM     25  H   UNL     1      15.681   6.780  22.828  0.00  0.00    +0.123 HD
BRANCH   7  14
ATOM     14  C   UNL     1      14.636   8.360  22.089  0.00  0.00    +0.124 C 
BRANCH  14  15
ATOM      2  S   UNL     1      12.494   6.892  21.092  0.00  0.00    -0.100 S 
ATOM     15  C   UNL     1      13.153   8.285  21.840  0.00  0.00    +0.004 A 
ATOM     17  C   UNL     1      12.185   9.219  22.136  0.00  0.00    +0.012 A 
ATOM     20  C   UNL     1      10.885   8.786  21.744  0.00  0.00    +0.008 A 
ATOM     21  C   UNL     1      10.910   7.537  21.164  0.00  0.00    +0.045 A 
ENDBRANCH  14  15
ENDBRANCH   7  14
ENDBRANCH   9   7
BRANCH  11  13
ATOM     13  C   UNL     1      19.382   5.148  20.150  0.00  0.00    +0.140 C 
BRANCH  13   8
ATOM      8  N   UNL     1      20.735   5.734  20.085  0.00  0.00    -0.187 NA
ATOM     26  H   UNL     1      21.165   5.759  19.152  0.00  0.00    +0.148 HD
BRANCH   8   1
ATOM      1  S   UNL     1      21.753   5.679  21.446  0.00  0.00    +0.058 S 
ATOM      5  O   UNL     1      20.996   5.216  22.594  0.00  0.00    -0.153 OA
ATOM      6  O   UNL     1      22.507   6.916  21.522  0.00  0.00    -0.153 OA
BRANCH   1  16
ATOM     16  C   UNL     1      22.893   4.406  20.995  0.00  0.00    +0.105 A 
ATOM     18  C   UNL     1      24.054   4.727  20.293  0.00  0.00    +0.028 A 
ATOM     19  C   UNL     1      22.629   3.080  21.337  0.00  0.00    +0.028 A 
ATOM     22  C   UNL     1      24.953   3.723  19.933  0.00  0.00    +0.002 A 
ATOM     23  C   UNL     1      23.527   2.075  20.978  0.00  0.00    +0.002 A 
ATOM     24  C   UNL     1      24.689   2.397  20.276  0.00  0.00    +0.000 A 
ENDBRANCH   1  16
ENDBRANCH   8   1
ENDBRANCH  13   8
ENDBRANCH  11  13
TORSDOF 8
ENDMDL
MODEL 4
REMARK VINA RESULT:      -6.1      2.871      4.474
REMARK  Name = 75536694
REMARK  8 active torsions:
REMARK  status: ('A' for Active; 'I' for Inactive)
REMARK    1  A    between atoms: S_1  and  N_8
REMARK    2  A    between atoms: S_1  and  C_16
REMARK    3  A    between atoms: O_4  and  C_10
REMARK    4  A    between atoms: N_7  and  C_9
REMARK    5  A    between atoms: N_7  and  C_14
REMARK    6  A    between atoms: N_8  and  C_13
REMARK    7  A    between atoms: C_11  and  C_13
REMARK    8  A    between atoms: C_14  and  C_15
REMARK                            x       y       z     vdW  Elec       q    Type
REMARK                         _______ _______ _______ _____ _____    ______ ____
ROOT
ATOM      3  O   UNL     1      16.150   6.217  19.044  0.00  0.00    -0.371 OA
ATOM      9  C   UNL     1      17.105   6.479  21.203  0.00  0.00    +0.111 C 
ATOM     10  C   UNL     1      15.793   7.239  21.147  0.00  0.00    +0.164 C 
ATOM     11  C   UNL     1      15.106   6.553  19.973  0.00  0.00    +0.164 C 
ATOM     12  C   UNL     1      17.414   6.304  19.725  0.00  0.00    +0.181 C 
ENDROOT
BRANCH  10   4
ATOM      4  O   UNL     1      15.041   7.120  22.339  0.00  0.00    -0.388 OA
ATOM     27  H   UNL     1      14.874   6.176  22.503  0.00  0.00    +0.210 HD
ENDBRANCH  10   4
BRANCH   9   7
ATOM      7  N   UNL     1      18.155   7.182  21.921  0.00  0.00    -0.304 NA
ATOM     25  H   UNL     1      18.341   6.694  22.798  0.00  0.00    +0.123 HD
BRANCH   7  14
ATOM     14  C   UNL     1      19.383   7.233  21.136  0.00  0.00    +0.124 C 
BRANCH  14  15
ATOM      2  S   UNL     1      21.119   5.106  20.688  0.00  0.00    -0.100 S 
ATOM     15  C   UNL     1      20.442   6.318  21.692  0.00  0.00    +0.004 A 
ATOM     17  C   UNL     1      20.982   6.301  22.958  0.00  0.00    +0.012 A 
ATOM     20  C   UNL     1      21.965   5.280  23.108  0.00  0.00    +0.008 A 
ATOM     21  C   UNL     1      22.138   4.556  21.949  0.00  0.00    +0.045 A 
ENDBRANCH  14  15
ENDBRANCH   7  14
ENDBRANCH   9   7
BRANCH  11  13
ATOM     13  C   UNL     1      14.070   7.427  19.288  0.00  0.00    +0.140 C 
BRANCH  13   8
ATOM      8  N   UNL     1      13.586   8.453  20.232  0.00  0.00    -0.187 NA
ATOM     26  H   UNL     1      14.314   8.981  20.728  0.00  0.00    +0.148 HD
BRANCH   8   1
ATOM      1  S   UNL     1      12.064   8.279  20.971  0.00  0.00    +0.058 S 
ATOM      5  O   UNL     1      12.030   7.034  21.714  0.00  0.00    -0.153 OA
ATOM      6  O   UNL     1      11.030   8.576  19.997  0.00  0.00    -0.153 OA
BRANCH   1  16
ATOM     16  C   UNL     1      12.072   9.609  22.135  0.00  0.00    +0.105 A 
ATOM     18  C   UNL     1      10.913   9.921  22.845  0.00  0.00    +0.028 A 
ATOM     19  C   UNL     1      13.236  10.350  22.339  0.00  0.00    +0.028 A 
ATOM     22  C   UNL     1      10.918  10.973  23.761  0.00  0.00    +0.002 A 
ATOM     23  C   UNL     1      13.241  11.402  23.255  0.00  0.00    +0.002 A 
ATOM     24  C   UNL     1      12.082  11.714  23.966  0.00  0.00    +0.000 A 
ENDBRANCH   1  16
ENDBRANCH   8   1
ENDBRANCH  13   8
ENDBRANCH  11  13
TORSDOF 8
ENDMDL
MODEL 5
REMARK VINA RESULT:      -6.1      1.919      2.497
REMARK  Name = 75536694
REMARK  8 active torsions:
REMARK  status: ('A' for Active; 'I' for Inactive)
REMARK    1  A    between atoms: S_1  and  N_8
REMARK    2  A    between atoms: S_1  and  C_16
REMARK    3  A    between atoms: O_4  and  C_10
REMARK    4  A    between atoms: N_7  and  C_9
REMARK    5  A    between atoms: N_7  and  C_14
REMARK    6  A    between atoms: N_8  and  C_13
REMARK    7  A    between atoms: C_11  and  C_13
REMARK    8  A    between atoms: C_14  and  C_15
REMARK                            x       y       z     vdW  Elec       q    Type
REMARK                         _______ _______ _______ _____ _____    ______ ____
ROOT
ATOM      3  O   UNL     1      11.878   9.878  20.586  0.00  0.00    -0.371 OA
ATOM      9  C   UNL     1      12.157   7.598  19.979  0.00  0.00    +0.111 C 
ATOM     10  C   UNL     1      11.782   7.678  21.447  0.00  0.00    +0.164 C 
ATOM     11  C   UNL     1      11.146   9.060  21.514  0.00  0.00    +0.164 C 
ATOM     12  C   UNL     1      12.632   9.018  19.714  0.00  0.00    +0.181 C 
ENDROOT
BRANCH  10   4
ATOM      4  O   UNL     1      10.877   6.662  21.835  0.00  0.00    -0.388 OA
ATOM     27  H   UNL     1       9.999   7.064  21.953  0.00  0.00    +0.210 HD
ENDBRANCH  10   4
BRANCH   9   7
ATOM      7  N   UNL     1      13.173   6.599  19.691  0.00  0.00    -0.304 NA
ATOM     25  H   UNL     1      12.761   5.865  19.114  0.00  0.00    +0.123 HD
BRANCH   7  14
ATOM     14  C   UNL     1      14.301   7.188  18.977  0.00  0.00    +0.124 C 
BRANCH  14  15
ATOM      2  S   UNL     1      15.843   7.201  21.292  0.00  0.00    -0.100 S 
ATOM     15  C   UNL     1      15.614   6.852  19.631  0.00  0.00    +0.004 A 
ATOM     17  C   UNL     1      16.730   6.275  19.067  0.00  0.00    +0.012 A 
ATOM     20  C   UNL     1      17.786   6.116  20.010  0.00  0.00    +0.008 A 
ATOM     21  C   UNL     1      17.437   6.579  21.259  0.00  0.00    +0.045 A 
ENDBRANCH  14  15
ENDBRANCH   7  14
ENDBRANCH   9   7
BRANCH  11  13
ATOM     13  C   UNL     1      11.200   9.681  22.898  0.00  0.00    +0.140 C 
BRANCH  13   8
ATOM      8  N   UNL     1      10.368  10.899  22.928  0.00  0.00    -0.187 NA
ATOM     26  H   UNL     1       9.662  10.975  22.185  0.00  0.00    +0.148 HD
BRANCH   8   1
ATOM      1  S   UNL     1      10.978  12.330  23.615  0.00  0.00    +0.058 S 
ATOM      5  O   UNL     1      12.399  12.178  23.861  0.00  0.00    -0.153 OA
ATOM      6  O   UNL     1      10.094  12.755  24.684  0.00  0.00    -0.153 OA
BRANCH   1  16
ATOM     16  C   UNL     1      10.775  13.484  22.291  0.00  0.00    +0.105 A 
ATOM     18  C   UNL     1       9.764  14.442  22.350  0.00  0.00    +0.028 A 
ATOM     19  C   UNL     1      11.622  13.431  21.184  0.00  0.00    +0.028 A 
ATOM     22  C   UNL     1       9.601  15.350  21.303  0.00  0.00    +0.002 A 
ATOM     23  C   UNL     1      11.460  14.338  20.137  0.00  0.00    +0.002 A 
ATOM     24  C   UNL     1      10.449  15.298  20.197  0.00  0.00    +0.000 A 
ENDBRANCH   1  16
ENDBRANCH   8   1
ENDBRANCH  13   8
ENDBRANCH  11  13
TORSDOF 8
ENDMDL
MODEL 6
REMARK VINA RESULT:      -6.0     27.036     29.214
REMARK  Name = 75536694
REMARK  8 active torsions:
REMARK  status: ('A' for Active; 'I' for Inactive)
REMARK    1  A    between atoms: S_1  and  N_8
REMARK    2  A    between atoms: S_1  and  C_16
REMARK    3  A    between atoms: O_4  and  C_10
REMARK    4  A    between atoms: N_7  and  C_9
REMARK    5  A    between atoms: N_7  and  C_14
REMARK    6  A    between atoms: N_8  and  C_13
REMARK    7  A    between atoms: C_11  and  C_13
REMARK    8  A    between atoms: C_14  and  C_15
REMARK                            x       y       z     vdW  Elec       q    Type
REMARK                         _______ _______ _______ _____ _____    ______ ____
ROOT
ATOM      3  O   UNL     1     -17.822   5.414  23.993  0.00  0.00    -0.371 OA
ATOM      9  C   UNL     1     -16.112   4.495  22.624  0.00  0.00    +0.111 C 
ATOM     10  C   UNL     1     -15.788   4.210  24.079  0.00  0.00    +0.164 C 
ATOM     11  C   UNL     1     -17.160   4.366  24.721  0.00  0.00    +0.164 C 
ATOM     12  C   UNL     1     -17.118   5.627  22.757  0.00  0.00    +0.181 C 
ENDROOT
BRANCH  10   4
ATOM      4  O   UNL     1     -15.259   2.912  24.277  0.00  0.00    -0.388 OA
ATOM     27  H   UNL     1     -15.883   2.267  23.902  0.00  0.00    +0.210 HD
ENDBRANCH  10   4
BRANCH   9   7
ATOM      7  N   UNL     1     -14.951   4.860  21.830  0.00  0.00    -0.304 NA
ATOM     25  H   UNL     1     -14.840   4.184  21.074  0.00  0.00    +0.123 HD
BRANCH   7  14
ATOM     14  C   UNL     1     -15.106   6.192  21.256  0.00  0.00    +0.124 C 
BRANCH  14  15
ATOM      2  S   UNL     1     -13.773   7.902  19.513  0.00  0.00    -0.100 S 
ATOM     15  C   UNL     1     -13.791   6.756  20.785  0.00  0.00    +0.004 A 
ATOM     17  C   UNL     1     -12.524   6.475  21.245  0.00  0.00    +0.012 A 
ATOM     20  C   UNL     1     -11.525   7.210  20.545  0.00  0.00    +0.008 A 
ATOM     21  C   UNL     1     -12.067   8.025  19.576  0.00  0.00    +0.045 A 
ENDBRANCH  14  15
ENDBRANCH   7  14
ENDBRANCH   9   7
BRANCH  11  13
ATOM     13  C   UNL     1     -17.097   4.726  26.195  0.00  0.00    +0.140 C 
BRANCH  13   8
ATOM      8  N   UNL     1     -16.182   3.801  26.892  0.00  0.00    -0.187 NA
ATOM     26  H   UNL     1     -15.193   3.866  26.622  0.00  0.00    +0.148 HD
BRANCH   8   1
ATOM      1  S   UNL     1     -16.764   2.321  27.494  0.00  0.00    +0.058 S 
ATOM      5  O   UNL     1     -16.518   1.275  26.518  0.00  0.00    -0.153 OA
ATOM      6  O   UNL     1     -18.097   2.520  28.029  0.00  0.00    -0.153 OA
BRANCH   1  16
ATOM     16  C   UNL     1     -15.692   2.042  28.872  0.00  0.00    +0.105 A 
ATOM     18  C   UNL     1     -15.641   0.785  29.472  0.00  0.00    +0.028 A 
ATOM     19  C   UNL     1     -14.901   3.082  29.361  0.00  0.00    +0.028 A 
ATOM     22  C   UNL     1     -14.798   0.566  30.563  0.00  0.00    +0.002 A 
ATOM     23  C   UNL     1     -14.059   2.864  30.451  0.00  0.00    +0.002 A 
ATOM     24  C   UNL     1     -14.007   1.606  31.052  0.00  0.00    +0.000 A 
ENDBRANCH   1  16
ENDBRANCH   8   1
ENDBRANCH  13   8
ENDBRANCH  11  13
TORSDOF 8
ENDMDL
MODEL 7
REMARK VINA RESULT:      -5.9     26.793     29.195
REMARK  Name = 75536694
REMARK  8 active torsions:
REMARK  status: ('A' for Active; 'I' for Inactive)
REMARK    1  A    between atoms: S_1  and  N_8
REMARK    2  A    between atoms: S_1  and  C_16
REMARK    3  A    between atoms: O_4  and  C_10
REMARK    4  A    between atoms: N_7  and  C_9
REMARK    5  A    between atoms: N_7  and  C_14
REMARK    6  A    between atoms: N_8  and  C_13
REMARK    7  A    between atoms: C_11  and  C_13
REMARK    8  A    between atoms: C_14  and  C_15
REMARK                            x       y       z     vdW  Elec       q    Type
REMARK                         _______ _______ _______ _____ _____    ______ ____
ROOT
ATOM      3  O   UNL     1     -16.341   1.689  24.968  0.00  0.00    -0.371 OA
ATOM      9  C   UNL     1     -17.058   2.324  27.143  0.00  0.00    +0.111 C 
ATOM     10  C   UNL     1     -16.118   3.385  26.602  0.00  0.00    +0.164 C 
ATOM     11  C   UNL     1     -16.197   3.113  25.106  0.00  0.00    +0.164 C 
ATOM     12  C   UNL     1     -16.729   1.144  26.242  0.00  0.00    +0.181 C 
ENDROOT
BRANCH  10   4
ATOM      4  O   UNL     1     -16.536   4.698  26.921  0.00  0.00    -0.388 OA
ATOM     27  H   UNL     1     -17.470   4.792  26.669  0.00  0.00    +0.210 HD
ENDBRANCH  10   4
BRANCH   9   7
ATOM      7  N   UNL     1     -16.859   2.032  28.552  0.00  0.00    -0.304 NA
ATOM     25  H   UNL     1     -17.622   1.439  28.879  0.00  0.00    +0.123 HD
BRANCH   7  14
ATOM     14  C   UNL     1     -15.593   1.340  28.771  0.00  0.00    +0.124 C 
BRANCH  14  15
ATOM      2  S   UNL     1     -14.671   0.852  31.350  0.00  0.00    -0.100 S 
ATOM     15  C   UNL     1     -14.871   1.865  29.983  0.00  0.00    +0.004 A 
ATOM     17  C   UNL     1     -14.312   3.109  30.176  0.00  0.00    +0.012 A 
ATOM     20  C   UNL     1     -13.712   3.232  31.463  0.00  0.00    +0.008 A 
ATOM     21  C   UNL     1     -13.835   2.077  32.203  0.00  0.00    +0.045 A 
ENDBRANCH  14  15
ENDBRANCH   7  14
ENDBRANCH   9   7
BRANCH  11  13
ATOM     13  C   UNL     1     -14.970   3.580  24.344  0.00  0.00    +0.140 C 
BRANCH  13   8
ATOM      8  N   UNL     1     -15.008   5.048  24.195  0.00  0.00    -0.187 NA
ATOM     26  H   UNL     1     -15.058   5.583  25.071  0.00  0.00    +0.148 HD
BRANCH   8   1
ATOM      1  S   UNL     1     -15.647   5.744  22.782  0.00  0.00    +0.058 S 
ATOM      5  O   UNL     1     -16.549   6.822  23.142  0.00  0.00    -0.153 OA
ATOM      6  O   UNL     1     -16.092   4.687  21.894  0.00  0.00    -0.153 OA
BRANCH   1  16
ATOM     16  C   UNL     1     -14.207   6.461  22.047  0.00  0.00    +0.105 A 
ATOM     18  C   UNL     1     -14.183   7.822  21.744  0.00  0.00    +0.028 A 
ATOM     19  C   UNL     1     -13.098   5.664  21.766  0.00  0.00    +0.028 A 
ATOM     22  C   UNL     1     -13.049   8.387  21.160  0.00  0.00    +0.002 A 
ATOM     23  C   UNL     1     -11.963   6.228  21.183  0.00  0.00    +0.002 A 
ATOM     24  C   UNL     1     -11.939   7.590  20.880  0.00  0.00    +0.000 A 
ENDBRANCH   1  16
ENDBRANCH   8   1
ENDBRANCH  13   8
ENDBRANCH  11  13
TORSDOF 8
ENDMDL
MODEL 8
REMARK VINA RESULT:      -5.9      2.429      5.434
REMARK  Name = 75536694
REMARK  8 active torsions:
REMARK  status: ('A' for Active; 'I' for Inactive)
REMARK    1  A    between atoms: S_1  and  N_8
REMARK    2  A    between atoms: S_1  and  C_16
REMARK    3  A    between atoms: O_4  and  C_10
REMARK    4  A    between atoms: N_7  and  C_9
REMARK    5  A    between atoms: N_7  and  C_14
REMARK    6  A    between atoms: N_8  and  C_13
REMARK    7  A    between atoms: C_11  and  C_13
REMARK    8  A    between atoms: C_14  and  C_15
REMARK                            x       y       z     vdW  Elec       q    Type
REMARK                         _______ _______ _______ _____ _____    ______ ____
ROOT
ATOM      3  O   UNL     1      12.296  11.134  23.757  0.00  0.00    -0.371 OA
ATOM      9  C   UNL     1      13.770  11.706  21.983  0.00  0.00    +0.111 C 
ATOM     10  C   UNL     1      12.849  10.593  21.522  0.00  0.00    +0.164 C 
ATOM     11  C   UNL     1      11.701  10.732  22.512  0.00  0.00    +0.164 C 
ATOM     12  C   UNL     1      13.631  11.605  23.494  0.00  0.00    +0.181 C 
ENDROOT
BRANCH  10   4
ATOM      4  O   UNL     1      12.415  10.761  20.185  0.00  0.00    -0.388 OA
ATOM     27  H   UNL     1      12.572  11.685  19.927  0.00  0.00    +0.210 HD
ENDBRANCH  10   4
BRANCH   9   7
ATOM      7  N   UNL     1      15.143  11.552  21.531  0.00  0.00    -0.304 NA
ATOM     25  H   UNL     1      15.762  12.039  22.179  0.00  0.00    +0.123 HD
BRANCH   7  14
ATOM     14  C   UNL     1      15.523  10.145  21.477  0.00  0.00    +0.124 C 
BRANCH  14  15
ATOM      2  S   UNL     1      17.966  11.251  22.216  0.00  0.00    -0.100 S 
ATOM     15  C   UNL     1      17.010   9.961  21.620  0.00  0.00    +0.004 A 
ATOM     17  C   UNL     1      17.768   8.849  21.327  0.00  0.00    +0.012 A 
ATOM     20  C   UNL     1      19.152   9.058  21.595  0.00  0.00    +0.008 A 
ATOM     21  C   UNL     1      19.398  10.323  22.083  0.00  0.00    +0.045 A 
ENDBRANCH  14  15
ENDBRANCH   7  14
ENDBRANCH   9   7
BRANCH  11  13
ATOM     13  C   UNL     1      10.918   9.445  22.710  0.00  0.00    +0.140 C 
BRANCH  13   8
ATOM      8  N   UNL     1      11.747   8.293  22.304  0.00  0.00    -0.187 NA
ATOM     26  H   UNL     1      12.728   8.321  22.611  0.00  0.00    +0.148 HD
BRANCH   8   1
ATOM      1  S   UNL     1      11.361   7.420  20.897  0.00  0.00    +0.058 S 
ATOM      5  O   UNL     1      10.543   8.245  20.029  0.00  0.00    -0.153 OA
ATOM      6  O   UNL     1      10.916   6.092  21.273  0.00  0.00    -0.153 OA
BRANCH   1  16
ATOM     16  C   UNL     1      12.947   7.236  20.138  0.00  0.00    +0.105 A 
ATOM     18  C   UNL     1      14.015   6.720  20.870  0.00  0.00    +0.028 A 
ATOM     19  C   UNL     1      13.131   7.614  18.807  0.00  0.00    +0.028 A 
ATOM     22  C   UNL     1      15.268   6.579  20.273  0.00  0.00    +0.002 A 
ATOM     23  C   UNL     1      14.383   7.472  18.209  0.00  0.00    +0.002 A 
ATOM     24  C   UNL     1      15.452   6.955  18.942  0.00  0.00    +0.000 A 
ENDBRANCH   1  16
ENDBRANCH   8   1
ENDBRANCH  13   8
ENDBRANCH  11  13
TORSDOF 8
ENDMDL
MODEL 9
REMARK VINA RESULT:      -5.9     26.285     28.575
REMARK  Name = 75536694
REMARK  8 active torsions:
REMARK  status: ('A' for Active; 'I' for Inactive)
REMARK    1  A    between atoms: S_1  and  N_8
REMARK    2  A    between atoms: S_1  and  C_16
REMARK    3  A    between atoms: O_4  and  C_10
REMARK    4  A    between atoms: N_7  and  C_9
REMARK    5  A    between atoms: N_7  and  C_14
REMARK    6  A    between atoms: N_8  and  C_13
REMARK    7  A    between atoms: C_11  and  C_13
REMARK    8  A    between atoms: C_14  and  C_15
REMARK                            x       y       z     vdW  Elec       q    Type
REMARK                         _______ _______ _______ _____ _____    ______ ____
ROOT
ATOM      3  O   UNL     1      -5.186 -12.485  18.199  0.00  0.00    -0.371 OA
ATOM      9  C   UNL     1      -7.134 -11.130  18.075  0.00  0.00    +0.111 C 
ATOM     10  C   UNL     1      -5.977 -10.395  17.422  0.00  0.00    +0.164 C 
ATOM     11  C   UNL     1      -5.030 -11.549  17.119  0.00  0.00    +0.164 C 
ATOM     12  C   UNL     1      -6.398 -12.169  18.906  0.00  0.00    +0.181 C 
ENDROOT
BRANCH  10   4
ATOM      4  O   UNL     1      -6.361  -9.706  16.248  0.00  0.00    -0.388 OA
ATOM     27  H   UNL     1      -5.998  -8.805  16.289  0.00  0.00    +0.210 HD
ENDBRANCH  10   4
BRANCH   9   7
ATOM      7  N   UNL     1      -7.993 -10.272  18.873  0.00  0.00    -0.304 NA
ATOM     25  H   UNL     1      -7.681  -9.306  18.774  0.00  0.00    +0.123 HD
BRANCH   7  14
ATOM     14  C   UNL     1      -9.382 -10.369  18.440  0.00  0.00    +0.124 C 
BRANCH  14  15
ATOM      2  S   UNL     1     -10.112 -10.026  15.778  0.00  0.00    -0.100 S 
ATOM     15  C   UNL     1      -9.688  -9.412  17.319  0.00  0.00    +0.004 A 
ATOM     17  C   UNL     1      -9.677  -8.035  17.341  0.00  0.00    +0.012 A 
ATOM     20  C   UNL     1     -10.022  -7.477  16.076  0.00  0.00    +0.008 A 
ATOM     21  C   UNL     1     -10.283  -8.449  15.136  0.00  0.00    +0.045 A 
ENDBRANCH  14  15
ENDBRANCH   7  14
ENDBRANCH   9   7
BRANCH  11  13
ATOM     13  C   UNL     1      -3.577 -11.122  17.015  0.00  0.00    +0.140 C 
BRANCH  13   8
ATOM      8  N   UNL     1      -3.383 -10.316  15.794  0.00  0.00    -0.187 NA
ATOM     26  H   UNL     1      -4.226  -9.862  15.422  0.00  0.00    +0.148 HD
BRANCH   8   1
ATOM      1  S   UNL     1      -2.121 -10.691  14.718  0.00  0.00    +0.058 S 
ATOM      5  O   UNL     1      -1.809 -12.105  14.817  0.00  0.00    -0.153 OA
ATOM      6  O   UNL     1      -1.070  -9.702  14.858  0.00  0.00    -0.153 OA
BRANCH   1  16
ATOM     16  C   UNL     1      -2.886 -10.411  13.149  0.00  0.00    +0.105 A 
ATOM     18  C   UNL     1      -2.100 -10.230  12.012  0.00  0.00    +0.028 A 
ATOM     19  C   UNL     1      -4.277 -10.363  13.050  0.00  0.00    +0.028 A 
ATOM     22  C   UNL     1      -2.703 -10.004  10.775  0.00  0.00    +0.002 A 
ATOM     23  C   UNL     1      -4.881 -10.138  11.813  0.00  0.00    +0.002 A 
ATOM     24  C   UNL     1      -4.094  -9.958  10.676  0.00  0.00    +0.000 A 
ENDBRANCH   1  16
ENDBRANCH   8   1
ENDBRANCH  13   8
ENDBRANCH  11  13
TORSDOF 8
ENDMDL
MODEL 10
REMARK VINA RESULT:      -5.8      2.449      3.414
REMARK  Name = 75536694
REMARK  8 active torsions:
REMARK  status: ('A' for Active; 'I' for Inactive)
REMARK    1  A    between atoms: S_1  and  N_8
REMARK    2  A    between atoms: S_1  and  C_16
REMARK    3  A    between atoms: O_4  and  C_10
REMARK    4  A    between atoms: N_7  and  C_9
REMARK    5  A    between atoms: N_7  and  C_14
REMARK    6  A    between atoms: N_8  and  C_13
REMARK    7  A    between atoms: C_11  and  C_13
REMARK    8  A    between atoms: C_14  and  C_15
REMARK                            x       y       z     vdW  Elec       q    Type
REMARK                         _______ _______ _______ _____ _____    ______ ____
ROOT
ATOM      3  O   UNL     1      10.600   7.644  21.766  0.00  0.00    -0.371 OA
ATOM      9  C   UNL     1      12.841   7.264  21.074  0.00  0.00    +0.111 C 
ATOM     10  C   UNL     1      12.752   8.625  21.738  0.00  0.00    +0.164 C 
ATOM     11  C   UNL     1      11.474   8.472  22.552  0.00  0.00    +0.164 C 
ATOM     12  C   UNL     1      11.381   6.993  20.748  0.00  0.00    +0.181 C 
ENDROOT
BRANCH  10   4
ATOM      4  O   UNL     1      13.869   8.906  22.560  0.00  0.00    -0.388 OA
ATOM     27  H   UNL     1      14.276   8.062  22.821  0.00  0.00    +0.210 HD
ENDBRANCH  10   4
BRANCH   9   7
ATOM      7  N   UNL     1      13.695   7.243  19.899  0.00  0.00    -0.304 NA
ATOM     25  H   UNL     1      13.202   6.774  19.139  0.00  0.00    +0.123 HD
BRANCH   7  14
ATOM     14  C   UNL     1      14.041   8.596  19.477  0.00  0.00    +0.124 C 
BRANCH  14  15
ATOM      2  S   UNL     1      11.926   8.817  17.685  0.00  0.00    -0.100 S 
ATOM     15  C   UNL     1      13.594   8.875  18.067  0.00  0.00    +0.004 A 
ATOM     17  C   UNL     1      14.365   9.188  16.970  0.00  0.00    +0.012 A 
ATOM     20  C   UNL     1      13.576   9.382  15.799  0.00  0.00    +0.008 A 
ATOM     21  C   UNL     1      12.232   9.210  16.048  0.00  0.00    +0.045 A 
ENDBRANCH  14  15
ENDBRANCH   7  14
ENDBRANCH   9   7
BRANCH  11  13
ATOM     13  C   UNL     1      10.792   9.795  22.854  0.00  0.00    +0.140 C 
BRANCH  13   8
ATOM      8  N   UNL     1      11.241  10.295  24.168  0.00  0.00    -0.187 NA
ATOM     26  H   UNL     1      10.644  10.047  24.967  0.00  0.00    +0.148 HD
BRANCH   8   1
ATOM      1  S   UNL     1      12.178  11.712  24.265  0.00  0.00    +0.058 S 
ATOM      5  O   UNL     1      13.396  11.536  23.497  0.00  0.00    -0.153 OA
ATOM      6  O   UNL     1      12.244  12.140  25.649  0.00  0.00    -0.153 OA
BRANCH   1  16
ATOM     16  C   UNL     1      11.159  12.879  23.413  0.00  0.00    +0.105 A 
ATOM     18  C   UNL     1      11.363  13.122  22.055  0.00  0.00    +0.028 A 
ATOM     19  C   UNL     1      10.156  13.561  24.101  0.00  0.00    +0.028 A 
ATOM     22  C   UNL     1      10.563  14.046  21.384  0.00  0.00    +0.002 A 
ATOM     23  C   UNL     1       9.355  14.485  23.430  0.00  0.00    +0.002 A 
ATOM     24  C   UNL     1       9.559  14.728  22.071  0.00  0.00    +0.000 A 
ENDBRANCH   1  16
ENDBRANCH   8   1
ENDBRANCH  13   8
ENDBRANCH  11  13
TORSDOF 8
ENDMDL
