MODEL 1
REMARK VINA RESULT:      -6.9      0.000      0.000
REMARK  Name = 45784212
REMARK  3 active torsions:
REMARK  status: ('A' for Active; 'I' for Inactive)
REMARK    1  A    between atoms: N_1  and  C_4
REMARK    2  A    between atoms: C_7  and  C_12
REMARK    3  A    between atoms: C_17  and  C_19
REMARK                            x       y       z     vdW  Elec       q    Type
REMARK                         _______ _______ _______ _____ _____    ______ ____
ROOT
ATOM      2  N   UNL     1      10.235   4.283   5.312  0.00  0.00    -0.342 N 
ATOM      3  N   UNL     1       9.598   6.365   4.867  0.00  0.00    -0.232 NA
ATOM     12  C   UNL     1      10.056   5.243   4.356  0.00  0.00    +0.113 A 
ATOM     13  C   UNL     1       9.869   4.820   6.520  0.00  0.00    +0.066 A 
ATOM     14  C   UNL     1       9.475   6.120   6.215  0.00  0.00    +0.089 A 
ATOM     15  C   UNL     1       9.848   4.295   7.813  0.00  0.00    +0.031 A 
ATOM     16  C   UNL     1       9.030   6.960   7.249  0.00  0.00    +0.030 A 
ATOM     17  C   UNL     1       9.404   5.146   8.830  0.00  0.00    -0.048 A 
ATOM     18  C   UNL     1       9.002   6.455   8.556  0.00  0.00    +0.005 A 
ATOM     19  C   UNL     1       9.359   4.644  10.235  0.00  0.00    +0.044 C 
ATOM     20  H   UNL     1      10.578   3.343   5.160  0.00  0.00    +0.167 HD
ENDROOT
BRANCH  12   7
ATOM      1  N   UNL     1      12.055   4.203   1.465  0.00  0.00    -0.299 NA
ATOM      7  C   UNL     1      10.371   4.974   2.903  0.00  0.00    +0.070 C 
ATOM      8  C   UNL     1      11.378   3.831   2.710  0.00  0.00    +0.096 C 
ATOM     10  C   UNL     1      12.300   5.642   1.586  0.00  0.00    +0.085 C 
ATOM     11  C   UNL     1      10.981   6.164   2.142  0.00  0.00    +0.028 C 
BRANCH   1   4
ATOM      4  C   UNL     1      13.318   3.471   1.321  0.00  0.00    +0.057 C 
ATOM      5  C   UNL     1      13.827   3.596  -0.130  0.00  0.00    +0.019 C 
ATOM      6  C   UNL     1      14.495   4.381   1.730  0.00  0.00    +0.019 C 
ATOM      9  C   UNL     1      15.221   3.881   0.464  0.00  0.00    +0.003 C 
ENDBRANCH   1   4
ENDBRANCH  12   7
TORSDOF 2
ENDMDL
MODEL 2
REMARK VINA RESULT:      -6.5     15.924     18.553
REMARK  Name = 45784212
REMARK  3 active torsions:
REMARK  status: ('A' for Active; 'I' for Inactive)
REMARK    1  A    between atoms: N_1  and  C_4
REMARK    2  A    between atoms: C_7  and  C_12
REMARK    3  A    between atoms: C_17  and  C_19
REMARK                            x       y       z     vdW  Elec       q    Type
REMARK                         _______ _______ _______ _____ _____    ______ ____
ROOT
ATOM      2  N   UNL     1      14.957   8.010  21.125  0.00  0.00    -0.342 N 
ATOM      3  N   UNL     1      14.406   6.896  19.282  0.00  0.00    -0.232 NA
ATOM     12  C   UNL     1      13.970   7.692  20.234  0.00  0.00    +0.113 A 
ATOM     13  C   UNL     1      16.105   7.376  20.723  0.00  0.00    +0.066 A 
ATOM     14  C   UNL     1      15.734   6.689  19.570  0.00  0.00    +0.089 A 
ATOM     15  C   UNL     1      17.396   7.348  21.252  0.00  0.00    +0.031 A 
ATOM     16  C   UNL     1      16.697   5.922  18.892  0.00  0.00    +0.030 A 
ATOM     17  C   UNL     1      18.341   6.579  20.564  0.00  0.00    -0.048 A 
ATOM     18  C   UNL     1      18.000   5.879  19.405  0.00  0.00    +0.005 A 
ATOM     19  C   UNL     1      19.740   6.508  21.080  0.00  0.00    +0.044 C 
ATOM     20  H   UNL     1      14.861   8.604  21.939  0.00  0.00    +0.167 HD
ENDROOT
BRANCH  12   7
ATOM      1  N   UNL     1      11.301   9.856  21.511  0.00  0.00    -0.299 NA
ATOM      7  C   UNL     1      12.567   8.231  20.390  0.00  0.00    +0.070 C 
ATOM      8  C   UNL     1      12.535   9.728  20.731  0.00  0.00    +0.096 C 
ATOM     10  C   UNL     1      11.305   8.702  22.412  0.00  0.00    +0.085 C 
ATOM     11  C   UNL     1      11.736   7.561  21.498  0.00  0.00    +0.028 C 
BRANCH   1   4
ATOM      4  C   UNL     1      11.294  11.110  22.272  0.00  0.00    +0.057 C 
ATOM      5  C   UNL     1      10.983  10.815  23.754  0.00  0.00    +0.019 C 
ATOM      6  C   UNL     1      12.730  11.451  22.721  0.00  0.00    +0.019 C 
ATOM      9  C   UNL     1      12.137  11.775  24.109  0.00  0.00    +0.003 C 
ENDBRANCH   1   4
ENDBRANCH  12   7
TORSDOF 2
ENDMDL
MODEL 3
REMARK VINA RESULT:      -6.5     16.025     18.790
REMARK  Name = 45784212
REMARK  3 active torsions:
REMARK  status: ('A' for Active; 'I' for Inactive)
REMARK    1  A    between atoms: N_1  and  C_4
REMARK    2  A    between atoms: C_7  and  C_12
REMARK    3  A    between atoms: C_17  and  C_19
REMARK                            x       y       z     vdW  Elec       q    Type
REMARK                         _______ _______ _______ _____ _____    ______ ____
ROOT
ATOM      2  N   UNL     1      17.896   7.471  21.674  0.00  0.00    -0.342 N 
ATOM      3  N   UNL     1      17.913   6.312  19.777  0.00  0.00    -0.232 NA
ATOM     12  C   UNL     1      17.255   7.193  20.499  0.00  0.00    +0.113 A 
ATOM     13  C   UNL     1      19.043   6.720  21.714  0.00  0.00    +0.066 A 
ATOM     14  C   UNL     1      19.031   6.006  20.518  0.00  0.00    +0.089 A 
ATOM     15  C   UNL     1      20.059   6.608  22.663  0.00  0.00    +0.031 A 
ATOM     16  C   UNL     1      20.087   5.124  20.238  0.00  0.00    +0.030 A 
ATOM     17  C   UNL     1      21.103   5.725  22.367  0.00  0.00    -0.048 A 
ATOM     18  C   UNL     1      21.119   4.995  21.177  0.00  0.00    +0.005 A 
ATOM     19  C   UNL     1      22.220   5.560  23.344  0.00  0.00    +0.044 C 
ATOM     20  H   UNL     1      17.583   8.114  22.389  0.00  0.00    +0.167 HD
ENDROOT
BRANCH  12   7
ATOM      1  N   UNL     1      13.683   7.978  20.739  0.00  0.00    -0.299 NA
ATOM      7  C   UNL     1      15.947   7.859  20.140  0.00  0.00    +0.070 C 
ATOM      8  C   UNL     1      15.015   8.035  21.347  0.00  0.00    +0.096 C 
ATOM     10  C   UNL     1      13.756   6.875  19.779  0.00  0.00    +0.085 C 
ATOM     11  C   UNL     1      15.101   7.105  19.101  0.00  0.00    +0.028 C 
BRANCH   1   4
ATOM      4  C   UNL     1      12.657   7.717  21.755  0.00  0.00    +0.057 C 
ATOM      5  C   UNL     1      11.411   8.580  21.466  0.00  0.00    +0.019 C 
ATOM      6  C   UNL     1      11.813   6.495  21.336  0.00  0.00    +0.019 C 
ATOM      9  C   UNL     1      10.568   7.316  21.733  0.00  0.00    +0.003 C 
ENDBRANCH   1   4
ENDBRANCH  12   7
TORSDOF 2
ENDMDL
MODEL 4
REMARK VINA RESULT:      -6.1     16.568     18.550
REMARK  Name = 45784212
REMARK  3 active torsions:
REMARK  status: ('A' for Active; 'I' for Inactive)
REMARK    1  A    between atoms: N_1  and  C_4
REMARK    2  A    between atoms: C_7  and  C_12
REMARK    3  A    between atoms: C_17  and  C_19
REMARK                            x       y       z     vdW  Elec       q    Type
REMARK                         _______ _______ _______ _____ _____    ______ ____
ROOT
ATOM      2  N   UNL     1      17.084   9.040  21.814  0.00  0.00    -0.342 N 
ATOM      3  N   UNL     1      16.079   7.996  20.129  0.00  0.00    -0.232 NA
ATOM     12  C   UNL     1      16.000   8.992  20.984  0.00  0.00    +0.113 A 
ATOM     13  C   UNL     1      17.919   8.006  21.473  0.00  0.00    +0.066 A 
ATOM     14  C   UNL     1      17.269   7.370  20.419  0.00  0.00    +0.089 A 
ATOM     15  C   UNL     1      19.149   7.587  21.981  0.00  0.00    +0.031 A 
ATOM     16  C   UNL     1      17.867   6.247  19.824  0.00  0.00    +0.030 A 
ATOM     17  C   UNL     1      19.730   6.467  21.377  0.00  0.00    -0.048 A 
ATOM     18  C   UNL     1      19.102   5.807  20.317  0.00  0.00    +0.005 A 
ATOM     19  C   UNL     1      21.046   5.968  21.875  0.00  0.00    +0.044 C 
ATOM     20  H   UNL     1      17.246   9.715  22.550  0.00  0.00    +0.167 HD
ENDROOT
BRANCH  12   7
ATOM      1  N   UNL     1      12.545  10.201  21.195  0.00  0.00    -0.299 NA
ATOM      7  C   UNL     1      14.880  10.001  21.095  0.00  0.00    +0.070 C 
ATOM      8  C   UNL     1      13.640   9.442  21.807  0.00  0.00    +0.096 C 
ATOM     10  C   UNL     1      12.859  10.225  19.765  0.00  0.00    +0.085 C 
ATOM     11  C   UNL     1      14.351  10.532  19.752  0.00  0.00    +0.028 C 
BRANCH   1   4
ATOM      4  C   UNL     1      11.257   9.541  21.433  0.00  0.00    +0.057 C 
ATOM      5  C   UNL     1      10.975   8.531  20.302  0.00  0.00    +0.019 C 
ATOM      6  C   UNL     1      11.461   8.327  22.362  0.00  0.00    +0.019 C 
ATOM      9  C   UNL     1      10.550   7.535  21.400  0.00  0.00    +0.003 C 
ENDBRANCH   1   4
ENDBRANCH  12   7
TORSDOF 2
ENDMDL
MODEL 5
REMARK VINA RESULT:      -6.1     31.065     34.939
REMARK  Name = 45784212
REMARK  3 active torsions:
REMARK  status: ('A' for Active; 'I' for Inactive)
REMARK    1  A    between atoms: N_1  and  C_4
REMARK    2  A    between atoms: C_7  and  C_12
REMARK    3  A    between atoms: C_17  and  C_19
REMARK                            x       y       z     vdW  Elec       q    Type
REMARK                         _______ _______ _______ _____ _____    ______ ____
ROOT
ATOM      2  N   UNL     1     -15.443   3.402  27.864  0.00  0.00    -0.342 N 
ATOM      3  N   UNL     1     -16.521   1.472  27.639  0.00  0.00    -0.232 NA
ATOM     12  C   UNL     1     -16.237   2.623  27.071  0.00  0.00    +0.113 A 
ATOM     13  C   UNL     1     -15.197   2.709  29.022  0.00  0.00    +0.066 A 
ATOM     14  C   UNL     1     -15.880   1.507  28.856  0.00  0.00    +0.089 A 
ATOM     15  C   UNL     1     -14.457   3.019  30.163  0.00  0.00    +0.031 A 
ATOM     16  C   UNL     1     -15.834   0.546  29.880  0.00  0.00    +0.030 A 
ATOM     17  C   UNL     1     -14.423   2.052  31.173  0.00  0.00    -0.048 A 
ATOM     18  C   UNL     1     -15.098   0.837  31.036  0.00  0.00    +0.005 A 
ATOM     19  C   UNL     1     -13.648   2.325  32.420  0.00  0.00    +0.044 C 
ATOM     20  H   UNL     1     -15.096   4.327  27.642  0.00  0.00    +0.167 HD
ENDROOT
BRANCH  12   7
ATOM      1  N   UNL     1     -16.212   4.627  24.002  0.00  0.00    -0.299 NA
ATOM      7  C   UNL     1     -16.697   3.098  25.712  0.00  0.00    +0.070 C 
ATOM      8  C   UNL     1     -15.548   3.627  24.842  0.00  0.00    +0.096 C 
ATOM     10  C   UNL     1     -17.094   5.358  24.913  0.00  0.00    +0.085 C 
ATOM     11  C   UNL     1     -17.723   4.244  25.740  0.00  0.00    +0.028 C 
BRANCH   1   4
ATOM      4  C   UNL     1     -15.229   5.531  23.393  0.00  0.00    +0.057 C 
ATOM      5  C   UNL     1     -13.831   4.877  23.431  0.00  0.00    +0.019 C 
ATOM      6  C   UNL     1     -15.204   5.315  21.866  0.00  0.00    +0.019 C 
ATOM      9  C   UNL     1     -13.664   5.331  21.966  0.00  0.00    +0.003 C 
ENDBRANCH   1   4
ENDBRANCH  12   7
TORSDOF 2
ENDMDL
MODEL 6
REMARK VINA RESULT:      -6.0     25.093     27.501
REMARK  Name = 45784212
REMARK  3 active torsions:
REMARK  status: ('A' for Active; 'I' for Inactive)
REMARK    1  A    between atoms: N_1  and  C_4
REMARK    2  A    between atoms: C_7  and  C_12
REMARK    3  A    between atoms: C_17  and  C_19
REMARK                            x       y       z     vdW  Elec       q    Type
REMARK                         _______ _______ _______ _____ _____    ______ ____
ROOT
ATOM      2  N   UNL     1     -11.119   7.467  19.908  0.00  0.00    -0.342 N 
ATOM      3  N   UNL     1     -12.725   8.398  18.685  0.00  0.00    -0.232 NA
ATOM     12  C   UNL     1     -11.426   8.286  18.857  0.00  0.00    +0.113 A 
ATOM     13  C   UNL     1     -12.298   7.021  20.450  0.00  0.00    +0.066 A 
ATOM     14  C   UNL     1     -13.284   7.616  19.668  0.00  0.00    +0.089 A 
ATOM     15  C   UNL     1     -12.576   6.174  21.523  0.00  0.00    +0.031 A 
ATOM     16  C   UNL     1     -14.635   7.362  19.961  0.00  0.00    +0.030 A 
ATOM     17  C   UNL     1     -13.925   5.932  21.800  0.00  0.00    -0.048 A 
ATOM     18  C   UNL     1     -14.938   6.514  21.035  0.00  0.00    +0.005 A 
ATOM     19  C   UNL     1     -14.289   5.034  22.937  0.00  0.00    +0.044 C 
ATOM     20  H   UNL     1     -10.190   7.230  20.231  0.00  0.00    +0.167 HD
ENDROOT
BRANCH  12   7
ATOM      1  N   UNL     1      -9.814  10.924  16.889  0.00  0.00    -0.299 NA
ATOM      7  C   UNL     1     -10.344   8.950  18.036  0.00  0.00    +0.070 C 
ATOM      8  C   UNL     1     -10.334  10.478  18.184  0.00  0.00    +0.096 C 
ATOM     10  C   UNL     1     -10.505  10.095  15.900  0.00  0.00    +0.085 C 
ATOM     11  C   UNL     1     -10.441   8.705  16.521  0.00  0.00    +0.028 C 
BRANCH   1   4
ATOM      4  C   UNL     1     -10.107  12.346  16.672  0.00  0.00    +0.057 C 
ATOM      5  C   UNL     1     -10.547  12.992  18.002  0.00  0.00    +0.019 C 
ATOM      6  C   UNL     1      -8.807  13.167  16.792  0.00  0.00    +0.019 C 
ATOM      9  C   UNL     1      -9.607  14.165  17.655  0.00  0.00    +0.003 C 
ENDBRANCH   1   4
ENDBRANCH  12   7
TORSDOF 2
ENDMDL
MODEL 7
REMARK VINA RESULT:      -5.9     21.866     24.679
REMARK  Name = 45784212
REMARK  3 active torsions:
REMARK  status: ('A' for Active; 'I' for Inactive)
REMARK    1  A    between atoms: N_1  and  C_4
REMARK    2  A    between atoms: C_7  and  C_12
REMARK    3  A    between atoms: C_17  and  C_19
REMARK                            x       y       z     vdW  Elec       q    Type
REMARK                         _______ _______ _______ _____ _____    ______ ____
ROOT
ATOM      2  N   UNL     1      -4.761 -10.630  15.706  0.00  0.00    -0.342 N 
ATOM      3  N   UNL     1      -3.197 -11.313  17.130  0.00  0.00    -0.232 NA
ATOM     12  C   UNL     1      -3.441 -10.931  15.896  0.00  0.00    +0.113 A 
ATOM     13  C   UNL     1      -5.412 -10.830  16.897  0.00  0.00    +0.066 A 
ATOM     14  C   UNL     1      -4.413 -11.256  17.769  0.00  0.00    +0.089 A 
ATOM     15  C   UNL     1      -6.747 -10.679  17.274  0.00  0.00    +0.031 A 
ATOM     16  C   UNL     1      -4.750 -11.553  19.100  0.00  0.00    +0.030 A 
ATOM     17  C   UNL     1      -7.063 -10.980  18.602  0.00  0.00    -0.048 A 
ATOM     18  C   UNL     1      -6.084 -11.409  19.501  0.00  0.00    +0.005 A 
ATOM     19  C   UNL     1      -8.475 -10.839  19.067  0.00  0.00    +0.044 C 
ATOM     20  H   UNL     1      -5.186 -10.315  14.843  0.00  0.00    +0.167 HD
ENDROOT
BRANCH  12   7
ATOM      1  N   UNL     1      -2.216 -10.971  12.441  0.00  0.00    -0.299 NA
ATOM      7  C   UNL     1      -2.439 -10.816  14.770  0.00  0.00    +0.070 C 
ATOM      8  C   UNL     1      -3.071 -10.343  13.453  0.00  0.00    +0.096 C 
ATOM     10  C   UNL     1      -2.000 -12.335  12.926  0.00  0.00    +0.085 C 
ATOM     11  C   UNL     1      -1.719 -12.126  14.408  0.00  0.00    +0.028 C 
BRANCH   1   4
ATOM      4  C   UNL     1      -2.882 -10.982  11.133  0.00  0.00    +0.057 C 
ATOM      5  C   UNL     1      -4.397 -10.765  11.321  0.00  0.00    +0.019 C 
ATOM      6  C   UNL     1      -2.833  -9.570  10.515  0.00  0.00    +0.019 C 
ATOM      9  C   UNL     1      -4.321  -9.761  10.152  0.00  0.00    +0.003 C 
ENDBRANCH   1   4
ENDBRANCH  12   7
TORSDOF 2
ENDMDL
MODEL 8
REMARK VINA RESULT:      -5.9     21.567     24.757
REMARK  Name = 45784212
REMARK  3 active torsions:
REMARK  status: ('A' for Active; 'I' for Inactive)
REMARK    1  A    between atoms: N_1  and  C_4
REMARK    2  A    between atoms: C_7  and  C_12
REMARK    3  A    between atoms: C_17  and  C_19
REMARK                            x       y       z     vdW  Elec       q    Type
REMARK                         _______ _______ _______ _____ _____    ______ ____
ROOT
ATOM      2  N   UNL     1      -4.922 -10.413  12.994  0.00  0.00    -0.342 N 
ATOM      3  N   UNL     1      -2.833 -10.513  12.241  0.00  0.00    -0.232 NA
ATOM     12  C   UNL     1      -3.639 -10.816  13.235  0.00  0.00    +0.113 A 
ATOM     13  C   UNL     1      -4.948  -9.808  11.763  0.00  0.00    +0.066 A 
ATOM     14  C   UNL     1      -3.632  -9.884  11.314  0.00  0.00    +0.089 A 
ATOM     15  C   UNL     1      -5.977  -9.222  11.026  0.00  0.00    +0.031 A 
ATOM     16  C   UNL     1      -3.306  -9.347  10.057  0.00  0.00    +0.030 A 
ATOM     17  C   UNL     1      -5.635  -8.692   9.778  0.00  0.00    -0.048 A 
ATOM     18  C   UNL     1      -4.324  -8.752   9.300  0.00  0.00    +0.005 A 
ATOM     19  C   UNL     1      -6.692  -8.049   8.942  0.00  0.00    +0.044 C 
ATOM     20  H   UNL     1      -5.715 -10.535  13.611  0.00  0.00    +0.167 HD
ENDROOT
BRANCH  12   7
ATOM      1  N   UNL     1      -4.014 -11.967  16.695  0.00  0.00    -0.299 NA
ATOM      7  C   UNL     1      -3.265 -11.522  14.518  0.00  0.00    +0.070 C 
ATOM      8  C   UNL     1      -4.485 -12.014  15.308  0.00  0.00    +0.096 C 
ATOM     10  C   UNL     1      -3.292 -10.699  16.803  0.00  0.00    +0.085 C 
ATOM     11  C   UNL     1      -2.472 -10.665  15.520  0.00  0.00    +0.028 C 
BRANCH   1   4
ATOM      4  C   UNL     1      -5.143 -12.005  17.630  0.00  0.00    +0.057 C 
ATOM      5  C   UNL     1      -4.622 -11.884  19.077  0.00  0.00    +0.019 C 
ATOM      6  C   UNL     1      -5.721 -10.585  17.802  0.00  0.00    +0.019 C 
ATOM      9  C   UNL     1      -5.753 -10.865  19.319  0.00  0.00    +0.003 C 
ENDBRANCH   1   4
ENDBRANCH  12   7
TORSDOF 2
ENDMDL
MODEL 9
REMARK VINA RESULT:      -5.9     26.071     30.652
REMARK  Name = 45784212
REMARK  3 active torsions:
REMARK  status: ('A' for Active; 'I' for Inactive)
REMARK    1  A    between atoms: N_1  and  C_4
REMARK    2  A    between atoms: C_7  and  C_12
REMARK    3  A    between atoms: C_17  and  C_19
REMARK                            x       y       z     vdW  Elec       q    Type
REMARK                         _______ _______ _______ _____ _____    ______ ____
ROOT
ATOM      2  N   UNL     1     -12.052  10.765  21.006  0.00  0.00    -0.342 N 
ATOM      3  N   UNL     1     -12.897   8.956  21.982  0.00  0.00    -0.232 NA
ATOM     12  C   UNL     1     -12.716  10.254  22.086  0.00  0.00    +0.113 A 
ATOM     13  C   UNL     1     -11.787   9.728  20.148  0.00  0.00    +0.066 A 
ATOM     14  C   UNL     1     -12.325   8.610  20.780  0.00  0.00    +0.089 A 
ATOM     15  C   UNL     1     -11.143   9.675  18.911  0.00  0.00    +0.031 A 
ATOM     16  C   UNL     1     -12.223   7.356  20.155  0.00  0.00    +0.030 A 
ATOM     17  C   UNL     1     -11.051   8.418  18.303  0.00  0.00    -0.048 A 
ATOM     18  C   UNL     1     -11.581   7.278  18.912  0.00  0.00    +0.005 A 
ATOM     19  C   UNL     1     -10.373   8.295  16.978  0.00  0.00    +0.044 C 
ATOM     20  H   UNL     1     -11.799  11.734  20.861  0.00  0.00    +0.167 HD
ENDROOT
BRANCH  12   7
ATOM      1  N   UNL     1     -12.767  11.606  25.492  0.00  0.00    -0.299 NA
ATOM      7  C   UNL     1     -13.157  11.140  23.228  0.00  0.00    +0.070 C 
ATOM      8  C   UNL     1     -12.035  11.420  24.236  0.00  0.00    +0.096 C 
ATOM     10  C   UNL     1     -13.774  10.544  25.501  0.00  0.00    +0.085 C 
ATOM     11  C   UNL     1     -14.310  10.575  24.075  0.00  0.00    +0.028 C 
BRANCH   1   4
ATOM      4  C   UNL     1     -11.866  11.479  26.644  0.00  0.00    +0.057 C 
ATOM      5  C   UNL     1     -12.401  10.395  27.602  0.00  0.00    +0.019 C 
ATOM      6  C   UNL     1     -10.722  10.503  26.301  0.00  0.00    +0.019 C 
ATOM      9  C   UNL     1     -10.955   9.864  27.686  0.00  0.00    +0.003 C 
ENDBRANCH   1   4
ENDBRANCH  12   7
TORSDOF 2
ENDMDL
MODEL 10
REMARK VINA RESULT:      -5.9     16.000     19.183
REMARK  Name = 45784212
REMARK  3 active torsions:
REMARK  status: ('A' for Active; 'I' for Inactive)
REMARK    1  A    between atoms: N_1  and  C_4
REMARK    2  A    between atoms: C_7  and  C_12
REMARK    3  A    between atoms: C_17  and  C_19
REMARK                            x       y       z     vdW  Elec       q    Type
REMARK                         _______ _______ _______ _____ _____    ______ ____
ROOT
ATOM      2  N   UNL     1      18.956   5.956  20.012  0.00  0.00    -0.342 N 
ATOM      3  N   UNL     1      19.242   7.677  21.390  0.00  0.00    -0.232 NA
ATOM     12  C   UNL     1      19.818   6.639  20.824  0.00  0.00    +0.113 A 
ATOM     13  C   UNL     1      17.743   6.594  20.058  0.00  0.00    +0.066 A 
ATOM     14  C   UNL     1      17.948   7.665  20.924  0.00  0.00    +0.089 A 
ATOM     15  C   UNL     1      16.522   6.335  19.434  0.00  0.00    +0.031 A 
ATOM     16  C   UNL     1      16.882   8.538  21.196  0.00  0.00    +0.030 A 
ATOM     17  C   UNL     1      15.472   7.214  19.717  0.00  0.00    -0.048 A 
ATOM     18  C   UNL     1      15.646   8.298  20.581  0.00  0.00    +0.005 A 
ATOM     19  C   UNL     1      14.139   6.990  19.081  0.00  0.00    +0.044 C 
ATOM     20  H   UNL     1      19.171   5.127  19.473  0.00  0.00    +0.167 HD
ENDROOT
BRANCH  12   7
ATOM      1  N   UNL     1      22.594   4.302  21.343  0.00  0.00    -0.299 NA
ATOM      7  C   UNL     1      21.252   6.194  21.000  0.00  0.00    +0.070 C 
ATOM      8  C   UNL     1      21.504   4.770  20.483  0.00  0.00    +0.096 C 
ATOM     10  C   UNL     1      22.227   4.746  22.689  0.00  0.00    +0.085 C 
ATOM     11  C   UNL     1      21.749   6.174  22.455  0.00  0.00    +0.028 C 
BRANCH   1   4
ATOM      4  C   UNL     1      22.707   2.840  21.291  0.00  0.00    +0.057 C 
ATOM      5  C   UNL     1      23.997   2.447  20.542  0.00  0.00    +0.019 C 
ATOM      6  C   UNL     1      23.388   2.327  22.576  0.00  0.00    +0.019 C 
ATOM      9  C   UNL     1      24.248   1.423  21.668  0.00  0.00    +0.003 C 
ENDBRANCH   1   4
ENDBRANCH  12   7
TORSDOF 2
ENDMDL
