MODEL 1
REMARK VINA RESULT:      -8.0      0.000      0.000
REMARK  Name = 11886077
REMARK  7 active torsions:
REMARK  status: ('A' for Active; 'I' for Inactive)
REMARK    1  A    between atoms: O_3  and  C_14
REMARK    2  A    between atoms: O_3  and  C_18
REMARK    3  A    between atoms: N_5  and  C_13
REMARK    4  A    between atoms: N_9  and  C_25
REMARK    5  A    between atoms: C_17  and  C_19
REMARK    6  A    between atoms: C_24  and  C_26
REMARK    7  A    between atoms: C_31  and  C_37
REMARK                            x       y       z     vdW  Elec       q    Type
REMARK                         _______ _______ _______ _____ _____    ______ ____
ROOT
ATOM      1  O   UNL     1     -12.329  -9.091  17.138  0.00  0.00    -0.368 OA
ATOM      2  O   UNL     1     -10.001  -8.447  15.210  0.00  0.00    -0.368 OA
ATOM     11  C   UNL     1     -10.046  -8.663  16.637  0.00  0.00    +0.177 C 
ATOM     12  C   UNL     1     -11.340  -8.049  17.132  0.00  0.00    +0.192 C 
ATOM     13  C   UNL     1     -10.195 -10.145  16.922  0.00  0.00    +0.168 C 
ATOM     14  C   UNL     1     -11.636  -7.005  16.081  0.00  0.00    +0.235 C 
ATOM     15  C   UNL     1     -11.704 -10.351  16.851  0.00  0.00    +0.190 C 
ATOM     16  C   UNL     1     -11.146  -7.677  14.820  0.00  0.00    +0.207 C 
ENDROOT
BRANCH  13   5
ATOM      5  N   UNL     1      -9.566 -10.540  18.184  0.00  0.00    -0.217 N 
ATOM      6  N   UNL     1     -10.296 -10.661  19.297  0.00  0.00    -0.043 NA
ATOM      7  N   UNL     1      -8.157 -11.132  19.714  0.00  0.00    -0.108 NA
ATOM      8  N   UNL     1      -9.428 -11.025  20.233  0.00  0.00    -0.023 NA
ATOM     17  C   UNL     1      -8.268 -10.828  18.442  0.00  0.00    +0.182 A 
BRANCH  17  19
ATOM     19  C   UNL     1      -7.210 -10.794  17.464  0.00  0.00    +0.021 A 
ATOM     20  C   UNL     1      -6.623  -9.578  17.109  0.00  0.00    +0.012 A 
ATOM     21  C   UNL     1      -6.769 -11.978  16.871  0.00  0.00    +0.012 A 
ATOM     22  C   UNL     1      -5.599  -9.547  16.163  0.00  0.00    +0.009 A 
ATOM     23  C   UNL     1      -5.744 -11.946  15.924  0.00  0.00    +0.009 A 
ATOM     24  C   UNL     1      -5.159 -10.731  15.570  0.00  0.00    -0.018 A 
BRANCH  24  26
ATOM     26  C   UNL     1      -4.097 -10.698  14.589  0.00  0.00    -0.018 A 
ATOM     29  C   UNL     1      -2.765 -10.691  15.002  0.00  0.00    +0.008 A 
ATOM     30  C   UNL     1      -4.405 -10.675  13.228  0.00  0.00    +0.008 A 
ATOM     34  C   UNL     1      -1.740 -10.661  14.056  0.00  0.00    +0.001 A 
ATOM     35  C   UNL     1      -3.381 -10.645  12.282  0.00  0.00    +0.001 A 
ATOM     36  C   UNL     1      -2.048 -10.638  12.696  0.00  0.00    +0.000 A 
ENDBRANCH  24  26
ENDBRANCH  17  19
ENDBRANCH  13   5
BRANCH  14   3
ATOM      3  O   UNL     1     -13.000  -6.656  16.003  0.00  0.00    -0.442 OA
BRANCH   3  18
ATOM      4  O   UNL     1     -14.225  -7.125  14.130  0.00  0.00    -0.226 OA
ATOM      9  N   UNL     1     -13.046  -5.116  14.356  0.00  0.00    -0.251 N 
ATOM     18  C   UNL     1     -13.497  -6.360  14.751  0.00  0.00    +0.405 C 
ATOM     38  H   UNL     1     -12.445  -4.627  15.015  0.00  0.00    +0.158 HD
BRANCH   9  25
ATOM     25  C   UNL     1     -13.316  -4.435  13.147  0.00  0.00    +0.038 A 
ATOM     27  C   UNL     1     -12.334  -4.366  12.171  0.00  0.00    +0.042 A 
ATOM     28  C   UNL     1     -14.556  -3.846  12.963  0.00  0.00    +0.023 A 
ATOM     31  C   UNL     1     -12.601  -3.692  10.980  0.00  0.00    +0.054 A 
ATOM     32  C   UNL     1     -14.823  -3.172  11.772  0.00  0.00    +0.003 A 
ATOM     33  C   UNL     1     -13.846  -3.095  10.780  0.00  0.00    +0.019 A 
BRANCH  31  37
ATOM     10  N   UNL     1     -10.785  -3.546   9.137  0.00  0.00    -0.191 NA
ATOM     37  C   UNL     1     -11.600  -3.613   9.964  0.00  0.00    +0.099 C 
ENDBRANCH  31  37
ENDBRANCH   9  25
ENDBRANCH   3  18
ENDBRANCH  14   3
TORSDOF 7
ENDMDL
MODEL 2
REMARK VINA RESULT:      -7.8      4.603     11.958
REMARK  Name = 11886077
REMARK  7 active torsions:
REMARK  status: ('A' for Active; 'I' for Inactive)
REMARK    1  A    between atoms: O_3  and  C_14
REMARK    2  A    between atoms: O_3  and  C_18
REMARK    3  A    between atoms: N_5  and  C_13
REMARK    4  A    between atoms: N_9  and  C_25
REMARK    5  A    between atoms: C_17  and  C_19
REMARK    6  A    between atoms: C_24  and  C_26
REMARK    7  A    between atoms: C_31  and  C_37
REMARK                            x       y       z     vdW  Elec       q    Type
REMARK                         _______ _______ _______ _____ _____    ______ ____
ROOT
ATOM      1  O   UNL     1      -5.840 -10.607   8.463  0.00  0.00    -0.368 OA
ATOM      2  O   UNL     1      -7.011  -8.465  10.359  0.00  0.00    -0.368 OA
ATOM     11  C   UNL     1      -6.625  -8.422   8.968  0.00  0.00    +0.177 C 
ATOM     12  C   UNL     1      -5.392  -9.292   8.829  0.00  0.00    +0.192 C 
ATOM     13  C   UNL     1      -7.678  -9.117   8.127  0.00  0.00    +0.168 C 
ATOM     14  C   UNL     1      -4.809  -9.268  10.222  0.00  0.00    +0.235 C 
ATOM     15  C   UNL     1      -7.249 -10.579   8.193  0.00  0.00    +0.190 C 
ATOM     16  C   UNL     1      -6.049  -9.243  11.084  0.00  0.00    +0.207 C 
ENDROOT
BRANCH  13   5
ATOM      5  N   UNL     1      -7.783  -8.553   6.780  0.00  0.00    -0.217 N 
ATOM      6  N   UNL     1      -7.047  -9.046   5.779  0.00  0.00    -0.043 NA
ATOM      7  N   UNL     1      -8.326  -7.370   5.053  0.00  0.00    -0.108 NA
ATOM      8  N   UNL     1      -7.383  -8.318   4.722  0.00  0.00    -0.023 NA
ATOM     17  C   UNL     1      -8.558  -7.535   6.334  0.00  0.00    +0.182 A 
BRANCH  17  19
ATOM     19  C   UNL     1      -9.472  -6.781   7.153  0.00  0.00    +0.021 A 
ATOM     20  C   UNL     1     -10.841  -7.055   7.109  0.00  0.00    +0.012 A 
ATOM     21  C   UNL     1      -8.992  -5.776   7.994  0.00  0.00    +0.012 A 
ATOM     22  C   UNL     1     -11.726  -6.325   7.902  0.00  0.00    +0.009 A 
ATOM     23  C   UNL     1      -9.878  -5.046   8.788  0.00  0.00    +0.009 A 
ATOM     24  C   UNL     1     -11.244  -5.320   8.742  0.00  0.00    -0.018 A 
BRANCH  24  26
ATOM     26  C   UNL     1     -12.162  -4.563   9.565  0.00  0.00    -0.018 A 
ATOM     29  C   UNL     1     -11.914  -4.412  10.929  0.00  0.00    +0.008 A 
ATOM     30  C   UNL     1     -13.294  -3.983   8.993  0.00  0.00    +0.008 A 
ATOM     34  C   UNL     1     -12.798  -3.681  11.722  0.00  0.00    +0.001 A 
ATOM     35  C   UNL     1     -14.178  -3.251   9.786  0.00  0.00    +0.001 A 
ATOM     36  C   UNL     1     -13.931  -3.100  11.151  0.00  0.00    +0.000 A 
ENDBRANCH  24  26
ENDBRANCH  17  19
ENDBRANCH  13   5
BRANCH  14   3
ATOM      3  O   UNL     1      -3.986 -10.376  10.507  0.00  0.00    -0.442 OA
BRANCH   3  18
ATOM      4  O   UNL     1      -1.966  -9.818  11.423  0.00  0.00    -0.226 OA
ATOM      9  N   UNL     1      -3.716 -10.663  12.728  0.00  0.00    -0.251 N 
ATOM     18  C   UNL     1      -3.106 -10.246  11.561  0.00  0.00    +0.405 C 
ATOM     38  H   UNL     1      -4.676 -10.987  12.639  0.00  0.00    +0.158 HD
BRANCH   9  25
ATOM     25  C   UNL     1      -3.172 -10.696  14.031  0.00  0.00    +0.038 A 
ATOM     27  C   UNL     1      -4.025 -10.763  15.123  0.00  0.00    +0.042 A 
ATOM     28  C   UNL     1      -1.797 -10.656  14.194  0.00  0.00    +0.023 A 
ATOM     31  C   UNL     1      -3.487 -10.792  16.409  0.00  0.00    +0.054 A 
ATOM     32  C   UNL     1      -1.259 -10.686  15.480  0.00  0.00    +0.003 A 
ATOM     33  C   UNL     1      -2.104 -10.754  16.588  0.00  0.00    +0.019 A 
BRANCH  31  37
ATOM     10  N   UNL     1      -5.057 -10.918  18.467  0.00  0.00    -0.191 NA
ATOM     37  C   UNL     1      -4.352 -10.862  17.544  0.00  0.00    +0.099 C 
ENDBRANCH  31  37
ENDBRANCH   9  25
ENDBRANCH   3  18
ENDBRANCH  14   3
TORSDOF 7
ENDMDL
MODEL 3
REMARK VINA RESULT:      -7.5      4.120      8.512
REMARK  Name = 11886077
REMARK  7 active torsions:
REMARK  status: ('A' for Active; 'I' for Inactive)
REMARK    1  A    between atoms: O_3  and  C_14
REMARK    2  A    between atoms: O_3  and  C_18
REMARK    3  A    between atoms: N_5  and  C_13
REMARK    4  A    between atoms: N_9  and  C_25
REMARK    5  A    between atoms: C_17  and  C_19
REMARK    6  A    between atoms: C_24  and  C_26
REMARK    7  A    between atoms: C_31  and  C_37
REMARK                            x       y       z     vdW  Elec       q    Type
REMARK                         _______ _______ _______ _____ _____    ______ ____
ROOT
ATOM      1  O   UNL     1      -4.260 -10.702  15.475  0.00  0.00    -0.368 OA
ATOM      2  O   UNL     1      -5.840 -13.316  15.001  0.00  0.00    -0.368 OA
ATOM     11  C   UNL     1      -5.330 -12.695  16.201  0.00  0.00    +0.177 C 
ATOM     12  C   UNL     1      -3.999 -12.067  15.837  0.00  0.00    +0.192 C 
ATOM     13  C   UNL     1      -6.213 -11.523  16.581  0.00  0.00    +0.168 C 
ATOM     14  C   UNL     1      -3.559 -12.886  14.647  0.00  0.00    +0.235 C 
ATOM     15  C   UNL     1      -5.631 -10.382  15.754  0.00  0.00    +0.190 C 
ATOM     16  C   UNL     1      -4.871 -13.169  13.954  0.00  0.00    +0.207 C 
ENDROOT
BRANCH  13   5
ATOM      5  N   UNL     1      -6.250 -11.294  18.027  0.00  0.00    -0.217 N 
ATOM      6  N   UNL     1      -5.286 -11.779  18.816  0.00  0.00    -0.043 NA
ATOM      7  N   UNL     1      -6.798 -10.672  20.024  0.00  0.00    -0.108 NA
ATOM      8  N   UNL     1      -5.626 -11.394  20.040  0.00  0.00    -0.023 NA
ATOM     17  C   UNL     1      -7.166 -10.622  18.765  0.00  0.00    +0.182 A 
BRANCH  17  19
ATOM     19  C   UNL     1      -8.336  -9.975  18.230  0.00  0.00    +0.021 A 
ATOM     20  C   UNL     1      -9.605 -10.504  18.477  0.00  0.00    +0.012 A 
ATOM     21  C   UNL     1      -8.205  -8.816  17.463  0.00  0.00    +0.012 A 
ATOM     22  C   UNL     1     -10.737  -9.876  17.959  0.00  0.00    +0.009 A 
ATOM     23  C   UNL     1      -9.338  -8.188  16.945  0.00  0.00    +0.009 A 
ATOM     24  C   UNL     1     -10.604  -8.718  17.193  0.00  0.00    -0.018 A 
BRANCH  24  26
ATOM     26  C   UNL     1     -11.779  -8.068  16.655  0.00  0.00    -0.018 A 
ATOM     29  C   UNL     1     -11.675  -6.798  16.087  0.00  0.00    +0.008 A 
ATOM     30  C   UNL     1     -13.016  -8.711  16.704  0.00  0.00    +0.008 A 
ATOM     34  C   UNL     1     -12.808  -6.171  15.567  0.00  0.00    +0.001 A 
ATOM     35  C   UNL     1     -14.148  -8.084  16.184  0.00  0.00    +0.001 A 
ATOM     36  C   UNL     1     -14.045  -6.814  15.615  0.00  0.00    +0.000 A 
ENDBRANCH  24  26
ENDBRANCH  17  19
ENDBRANCH  13   5
BRANCH  14   3
ATOM      3  O   UNL     1      -2.647 -12.214  13.808  0.00  0.00    -0.442 OA
BRANCH   3  18
ATOM      4  O   UNL     1      -2.966 -12.711  11.598  0.00  0.00    -0.226 OA
ATOM      9  N   UNL     1      -3.616 -10.651  12.501  0.00  0.00    -0.251 N 
ATOM     18  C   UNL     1      -3.075 -11.922  12.529  0.00  0.00    +0.405 C 
ATOM     38  H   UNL     1      -3.619 -10.146  13.384  0.00  0.00    +0.158 HD
BRANCH   9  25
ATOM     25  C   UNL     1      -4.168  -9.964  11.396  0.00  0.00    +0.038 A 
ATOM     27  C   UNL     1      -5.542  -9.799  11.316  0.00  0.00    +0.042 A 
ATOM     28  C   UNL     1      -3.325  -9.472  10.413  0.00  0.00    +0.023 A 
ATOM     31  C   UNL     1      -6.086  -9.123  10.224  0.00  0.00    +0.054 A 
ATOM     32  C   UNL     1      -3.868  -8.795   9.322  0.00  0.00    +0.003 A 
ATOM     33  C   UNL     1      -5.249  -8.621   9.226  0.00  0.00    +0.019 A 
BRANCH  31  37
ATOM     10  N   UNL     1      -8.650  -8.797  10.046  0.00  0.00    -0.191 NA
ATOM     37  C   UNL     1      -7.500  -8.944  10.126  0.00  0.00    +0.099 C 
ENDBRANCH  31  37
ENDBRANCH   9  25
ENDBRANCH   3  18
ENDBRANCH  14   3
TORSDOF 7
ENDMDL
MODEL 4
REMARK VINA RESULT:      -7.5      4.558      7.585
REMARK  Name = 11886077
REMARK  7 active torsions:
REMARK  status: ('A' for Active; 'I' for Inactive)
REMARK    1  A    between atoms: O_3  and  C_14
REMARK    2  A    between atoms: O_3  and  C_18
REMARK    3  A    between atoms: N_5  and  C_13
REMARK    4  A    between atoms: N_9  and  C_25
REMARK    5  A    between atoms: C_17  and  C_19
REMARK    6  A    between atoms: C_24  and  C_26
REMARK    7  A    between atoms: C_31  and  C_37
REMARK                            x       y       z     vdW  Elec       q    Type
REMARK                         _______ _______ _______ _____ _____    ______ ____
ROOT
ATOM      1  O   UNL     1      -5.664 -10.963  16.876  0.00  0.00    -0.368 OA
ATOM      2  O   UNL     1      -7.003 -10.252  14.183  0.00  0.00    -0.368 OA
ATOM     11  C   UNL     1      -5.715  -9.917  14.743  0.00  0.00    +0.177 C 
ATOM     12  C   UNL     1      -5.925  -9.708  16.230  0.00  0.00    +0.192 C 
ATOM     13  C   UNL     1      -4.795 -11.119  14.655  0.00  0.00    +0.168 C 
ATOM     14  C   UNL     1      -7.387  -9.333  16.309  0.00  0.00    +0.235 C 
ATOM     15  C   UNL     1      -5.135 -11.896  15.922  0.00  0.00    +0.190 C 
ATOM     16  C   UNL     1      -7.992 -10.185  15.219  0.00  0.00    +0.207 C 
ENDROOT
BRANCH  13   5
ATOM      5  N   UNL     1      -3.388 -10.739  14.510  0.00  0.00    -0.217 N 
ATOM      6  N   UNL     1      -2.624 -10.541  15.589  0.00  0.00    -0.043 NA
ATOM      7  N   UNL     1      -1.444 -10.208  13.727  0.00  0.00    -0.108 NA
ATOM      8  N   UNL     1      -1.432 -10.217  15.104  0.00  0.00    -0.023 NA
ATOM     17  C   UNL     1      -2.667 -10.535  13.382  0.00  0.00    +0.182 A 
BRANCH  17  19
ATOM     19  C   UNL     1      -3.184 -10.663  12.043  0.00  0.00    +0.021 A 
ATOM     20  C   UNL     1      -3.199 -11.910  11.415  0.00  0.00    +0.012 A 
ATOM     21  C   UNL     1      -3.672  -9.541  11.372  0.00  0.00    +0.012 A 
ATOM     22  C   UNL     1      -3.700 -12.034  10.120  0.00  0.00    +0.009 A 
ATOM     23  C   UNL     1      -4.174  -9.665  10.076  0.00  0.00    +0.009 A 
ATOM     24  C   UNL     1      -4.188 -10.911   9.449  0.00  0.00    -0.018 A 
BRANCH  24  26
ATOM     26  C   UNL     1      -4.708 -11.040   8.106  0.00  0.00    -0.018 A 
ATOM     29  C   UNL     1      -5.453 -10.003   7.543  0.00  0.00    +0.008 A 
ATOM     30  C   UNL     1      -4.462 -12.200   7.371  0.00  0.00    +0.008 A 
ATOM     34  C   UNL     1      -5.953 -10.126   6.247  0.00  0.00    +0.001 A 
ATOM     35  C   UNL     1      -4.963 -12.323   6.075  0.00  0.00    +0.001 A 
ATOM     36  C   UNL     1      -5.708 -11.286   5.513  0.00  0.00    +0.000 A 
ENDBRANCH  24  26
ENDBRANCH  17  19
ENDBRANCH  13   5
BRANCH  14   3
ATOM      3  O   UNL     1      -7.966  -9.589  17.569  0.00  0.00    -0.442 OA
BRANCH   3  18
ATOM      4  O   UNL     1      -9.567  -7.964  17.403  0.00  0.00    -0.226 OA
ATOM      9  N   UNL     1      -9.983  -9.995  18.493  0.00  0.00    -0.251 N 
ATOM     18  C   UNL     1      -9.226  -9.076  17.792  0.00  0.00    +0.405 C 
ATOM     38  H   UNL     1      -9.521 -10.870  18.727  0.00  0.00    +0.158 HD
BRANCH   9  25
ATOM     25  C   UNL     1     -11.323  -9.870  18.926  0.00  0.00    +0.038 A 
ATOM     27  C   UNL     1     -12.328  -9.704  17.985  0.00  0.00    +0.042 A 
ATOM     28  C   UNL     1     -11.605  -9.913  20.281  0.00  0.00    +0.023 A 
ATOM     31  C   UNL     1     -13.649  -9.579  18.414  0.00  0.00    +0.054 A 
ATOM     32  C   UNL     1     -12.926  -9.789  20.710  0.00  0.00    +0.003 A 
ATOM     33  C   UNL     1     -13.948  -9.621  19.776  0.00  0.00    +0.019 A 
BRANCH  31  37
ATOM     10  N   UNL     1     -15.550  -9.266  16.681  0.00  0.00    -0.191 NA
ATOM     37  C   UNL     1     -14.697  -9.407  17.459  0.00  0.00    +0.099 C 
ENDBRANCH  31  37
ENDBRANCH   9  25
ENDBRANCH   3  18
ENDBRANCH  14   3
TORSDOF 7
ENDMDL
MODEL 5
REMARK VINA RESULT:      -7.5     26.812     31.078
REMARK  Name = 11886077
REMARK  7 active torsions:
REMARK  status: ('A' for Active; 'I' for Inactive)
REMARK    1  A    between atoms: O_3  and  C_14
REMARK    2  A    between atoms: O_3  and  C_18
REMARK    3  A    between atoms: N_5  and  C_13
REMARK    4  A    between atoms: N_9  and  C_25
REMARK    5  A    between atoms: C_17  and  C_19
REMARK    6  A    between atoms: C_24  and  C_26
REMARK    7  A    between atoms: C_31  and  C_37
REMARK                            x       y       z     vdW  Elec       q    Type
REMARK                         _______ _______ _______ _____ _____    ______ ____
ROOT
ATOM      1  O   UNL     1      12.893   9.201   6.991  0.00  0.00    -0.368 OA
ATOM      2  O   UNL     1      13.178   8.580   3.976  0.00  0.00    -0.368 OA
ATOM     11  C   UNL     1      12.840   7.751   5.109  0.00  0.00    +0.177 C 
ATOM     12  C   UNL     1      13.680   8.237   6.273  0.00  0.00    +0.192 C 
ATOM     13  C   UNL     1      11.410   8.026   5.531  0.00  0.00    +0.168 C 
ATOM     14  C   UNL     1      14.861   8.880   5.586  0.00  0.00    +0.235 C 
ATOM     15  C   UNL     1      11.559   9.224   6.463  0.00  0.00    +0.190 C 
ATOM     16  C   UNL     1      14.221   9.486   4.359  0.00  0.00    +0.207 C 
ENDROOT
BRANCH  13   5
ATOM      5  N   UNL     1      10.762   6.851   6.118  0.00  0.00    -0.217 N 
ATOM      6  N   UNL     1      10.571   6.770   7.438  0.00  0.00    -0.043 NA
ATOM      7  N   UNL     1       9.786   4.946   6.425  0.00  0.00    -0.108 NA
ATOM      8  N   UNL     1       9.972   5.600   7.622  0.00  0.00    -0.023 NA
ATOM     17  C   UNL     1      10.283   5.741   5.507  0.00  0.00    +0.182 A 
BRANCH  17  19
ATOM     19  C   UNL     1      10.328   5.502   4.086  0.00  0.00    +0.021 A 
ATOM     20  C   UNL     1       9.833   6.461   3.199  0.00  0.00    +0.012 A 
ATOM     21  C   UNL     1      10.868   4.313   3.594  0.00  0.00    +0.012 A 
ATOM     22  C   UNL     1       9.877   6.230   1.825  0.00  0.00    +0.009 A 
ATOM     23  C   UNL     1      10.912   4.083   2.218  0.00  0.00    +0.009 A 
ATOM     24  C   UNL     1      10.417   5.041   1.334  0.00  0.00    -0.018 A 
BRANCH  24  26
ATOM     26  C   UNL     1      10.463   4.802  -0.092  0.00  0.00    -0.018 A 
ATOM     29  C   UNL     1      11.372   3.884  -0.617  0.00  0.00    +0.008 A 
ATOM     30  C   UNL     1       9.596   5.488  -0.942  0.00  0.00    +0.008 A 
ATOM     34  C   UNL     1      11.416   3.651  -1.992  0.00  0.00    +0.001 A 
ATOM     35  C   UNL     1       9.639   5.256  -2.317  0.00  0.00    +0.001 A 
ATOM     36  C   UNL     1      10.549   4.338  -2.842  0.00  0.00    +0.000 A 
ENDBRANCH  24  26
ENDBRANCH  17  19
ENDBRANCH  13   5
BRANCH  14   3
ATOM      3  O   UNL     1      15.515   9.846   6.377  0.00  0.00    -0.442 OA
BRANCH   3  18
ATOM      4  O   UNL     1      17.438  11.069   6.184  0.00  0.00    -0.226 OA
ATOM      9  N   UNL     1      17.450   8.732   6.054  0.00  0.00    -0.251 N 
ATOM     18  C   UNL     1      16.876   9.980   6.200  0.00  0.00    +0.405 C 
ATOM     38  H   UNL     1      16.814   7.939   6.097  0.00  0.00    +0.158 HD
BRANCH   9  25
ATOM     25  C   UNL     1      18.812   8.418   5.851  0.00  0.00    +0.038 A 
ATOM     27  C   UNL     1      19.243   8.046   4.587  0.00  0.00    +0.042 A 
ATOM     28  C   UNL     1      19.691   8.485   6.920  0.00  0.00    +0.023 A 
ATOM     31  C   UNL     1      20.588   7.734   4.388  0.00  0.00    +0.054 A 
ATOM     32  C   UNL     1      21.035   8.173   6.722  0.00  0.00    +0.003 A 
ATOM     33  C   UNL     1      21.484   7.797   5.456  0.00  0.00    +0.019 A 
BRANCH  31  37
ATOM     10  N   UNL     1      21.425   7.035   2.038  0.00  0.00    -0.191 NA
ATOM     37  C   UNL     1      21.049   7.349   3.092  0.00  0.00    +0.099 C 
ENDBRANCH  31  37
ENDBRANCH   9  25
ENDBRANCH   3  18
ENDBRANCH  14   3
TORSDOF 7
ENDMDL
MODEL 6
REMARK VINA RESULT:      -7.3      4.776      9.949
REMARK  Name = 11886077
REMARK  7 active torsions:
REMARK  status: ('A' for Active; 'I' for Inactive)
REMARK    1  A    between atoms: O_3  and  C_14
REMARK    2  A    between atoms: O_3  and  C_18
REMARK    3  A    between atoms: N_5  and  C_13
REMARK    4  A    between atoms: N_9  and  C_25
REMARK    5  A    between atoms: C_17  and  C_19
REMARK    6  A    between atoms: C_24  and  C_26
REMARK    7  A    between atoms: C_31  and  C_37
REMARK                            x       y       z     vdW  Elec       q    Type
REMARK                         _______ _______ _______ _____ _____    ______ ____
ROOT
ATOM      1  O   UNL     1      -7.087 -11.456  16.576  0.00  0.00    -0.368 OA
ATOM      2  O   UNL     1      -7.165 -10.959  19.626  0.00  0.00    -0.368 OA
ATOM     11  C   UNL     1      -7.462 -10.108  18.497  0.00  0.00    +0.177 C 
ATOM     12  C   UNL     1      -6.468 -10.463  17.408  0.00  0.00    +0.192 C 
ATOM     13  C   UNL     1      -8.811 -10.486  17.917  0.00  0.00    +0.168 C 
ATOM     14  C   UNL     1      -5.308 -11.033  18.190  0.00  0.00    +0.235 C 
ATOM     15  C   UNL     1      -8.460 -11.621  16.960  0.00  0.00    +0.190 C 
ATOM     16  C   UNL     1      -6.009 -11.751  19.319  0.00  0.00    +0.207 C 
ENDROOT
BRANCH  13   5
ATOM      5  N   UNL     1      -9.501  -9.346  17.312  0.00  0.00    -0.217 N 
ATOM      6  N   UNL     1      -8.912  -8.628  16.351  0.00  0.00    -0.043 NA
ATOM      7  N   UNL     1     -10.942  -7.818  16.795  0.00  0.00    -0.108 NA
ATOM      8  N   UNL     1      -9.800  -7.692  16.036  0.00  0.00    -0.023 NA
ATOM     17  C   UNL     1     -10.734  -8.850  17.578  0.00  0.00    +0.182 A 
BRANCH  17  19
ATOM     19  C   UNL     1     -11.639  -9.387  18.562  0.00  0.00    +0.021 A 
ATOM     20  C   UNL     1     -11.149  -9.863  19.780  0.00  0.00    +0.012 A 
ATOM     21  C   UNL     1     -13.010  -9.432  18.300  0.00  0.00    +0.012 A 
ATOM     22  C   UNL     1     -12.025 -10.382  20.731  0.00  0.00    +0.009 A 
ATOM     23  C   UNL     1     -13.887  -9.951  19.254  0.00  0.00    +0.009 A 
ATOM     24  C   UNL     1     -13.395 -10.426  20.469  0.00  0.00    -0.018 A 
BRANCH  24  26
ATOM     26  C   UNL     1     -14.304 -10.964  21.457  0.00  0.00    -0.018 A 
ATOM     29  C   UNL     1     -15.626 -10.523  21.502  0.00  0.00    +0.008 A 
ATOM     30  C   UNL     1     -13.858 -11.927  22.363  0.00  0.00    +0.008 A 
ATOM     34  C   UNL     1     -16.504 -11.043  22.454  0.00  0.00    +0.001 A 
ATOM     35  C   UNL     1     -14.736 -12.447  23.314  0.00  0.00    +0.001 A 
ATOM     36  C   UNL     1     -16.058 -12.006  23.360  0.00  0.00    +0.000 A 
ENDBRANCH  24  26
ENDBRANCH  17  19
ENDBRANCH  13   5
BRANCH  14   3
ATOM      3  O   UNL     1      -4.492 -11.899  17.435  0.00  0.00    -0.442 OA
BRANCH   3  18
ATOM      4  O   UNL     1      -2.766 -10.605  16.675  0.00  0.00    -0.226 OA
ATOM      9  N   UNL     1      -4.222 -11.700  15.204  0.00  0.00    -0.251 N 
ATOM     18  C   UNL     1      -3.728 -11.327  16.439  0.00  0.00    +0.405 C 
ATOM     38  H   UNL     1      -5.035 -12.311  15.213  0.00  0.00    +0.158 HD
BRANCH   9  25
ATOM     25  C   UNL     1      -3.737 -11.337  13.927  0.00  0.00    +0.038 A 
ATOM     27  C   UNL     1      -4.477 -10.466  13.142  0.00  0.00    +0.042 A 
ATOM     28  C   UNL     1      -2.534 -11.862  13.483  0.00  0.00    +0.023 A 
ATOM     31  C   UNL     1      -3.999 -10.111  11.881  0.00  0.00    +0.054 A 
ATOM     32  C   UNL     1      -2.057 -11.507  12.222  0.00  0.00    +0.003 A 
ATOM     33  C   UNL     1      -2.789 -10.632  11.421  0.00  0.00    +0.019 A 
BRANCH  31  37
ATOM     10  N   UNL     1      -5.357  -8.485  10.389  0.00  0.00    -0.191 NA
ATOM     37  C   UNL     1      -4.748  -9.214  11.059  0.00  0.00    +0.099 C 
ENDBRANCH  31  37
ENDBRANCH   9  25
ENDBRANCH   3  18
ENDBRANCH  14   3
TORSDOF 7
ENDMDL
MODEL 7
REMARK VINA RESULT:      -7.1      4.421     11.166
REMARK  Name = 11886077
REMARK  7 active torsions:
REMARK  status: ('A' for Active; 'I' for Inactive)
REMARK    1  A    between atoms: O_3  and  C_14
REMARK    2  A    between atoms: O_3  and  C_18
REMARK    3  A    between atoms: N_5  and  C_13
REMARK    4  A    between atoms: N_9  and  C_25
REMARK    5  A    between atoms: C_17  and  C_19
REMARK    6  A    between atoms: C_24  and  C_26
REMARK    7  A    between atoms: C_31  and  C_37
REMARK                            x       y       z     vdW  Elec       q    Type
REMARK                         _______ _______ _______ _____ _____    ______ ____
ROOT
ATOM      1  O   UNL     1      -5.338 -10.991  10.107  0.00  0.00    -0.368 OA
ATOM      2  O   UNL     1      -7.225  -8.866  11.322  0.00  0.00    -0.368 OA
ATOM     11  C   UNL     1      -6.504  -8.920  10.072  0.00  0.00    +0.177 C 
ATOM     12  C   UNL     1      -5.174  -9.587  10.363  0.00  0.00    +0.192 C 
ATOM     13  C   UNL     1      -7.205  -9.871   9.122  0.00  0.00    +0.168 C 
ATOM     14  C   UNL     1      -4.976  -9.308  11.834  0.00  0.00    +0.235 C 
ATOM     15  C   UNL     1      -6.621 -11.225   9.509  0.00  0.00    +0.190 C 
ATOM     16  C   UNL     1      -6.389  -9.388  12.364  0.00  0.00    +0.207 C 
ENDROOT
BRANCH  13   5
ATOM      5  N   UNL     1      -7.032  -9.490   7.719  0.00  0.00    -0.217 N 
ATOM      6  N   UNL     1      -6.130 -10.112   6.953  0.00  0.00    -0.043 NA
ATOM      7  N   UNL     1      -7.199  -8.546   5.781  0.00  0.00    -0.108 NA
ATOM      8  N   UNL     1      -6.237  -9.530   5.765  0.00  0.00    -0.023 NA
ATOM     17  C   UNL     1      -7.679  -8.540   7.002  0.00  0.00    +0.182 A 
BRANCH  17  19
ATOM     19  C   UNL     1      -8.714  -7.683   7.522  0.00  0.00    +0.021 A 
ATOM     20  C   UNL     1     -10.039  -8.123   7.549  0.00  0.00    +0.012 A 
ATOM     21  C   UNL     1      -8.394  -6.411   8.000  0.00  0.00    +0.012 A 
ATOM     22  C   UNL     1     -11.040  -7.293   8.053  0.00  0.00    +0.009 A 
ATOM     23  C   UNL     1      -9.397  -5.582   8.505  0.00  0.00    +0.009 A 
ATOM     24  C   UNL     1     -10.719  -6.022   8.531  0.00  0.00    -0.018 A 
BRANCH  24  26
ATOM     26  C   UNL     1     -11.758  -5.162   9.053  0.00  0.00    -0.018 A 
ATOM     29  C   UNL     1     -13.066  -5.282   8.584  0.00  0.00    +0.008 A 
ATOM     30  C   UNL     1     -11.452  -4.213  10.029  0.00  0.00    +0.008 A 
ATOM     34  C   UNL     1     -14.068  -4.454   9.089  0.00  0.00    +0.001 A 
ATOM     35  C   UNL     1     -12.454  -3.385  10.535  0.00  0.00    +0.001 A 
ATOM     36  C   UNL     1     -13.762  -3.505  10.065  0.00  0.00    +0.000 A 
ENDBRANCH  24  26
ENDBRANCH  17  19
ENDBRANCH  13   5
BRANCH  14   3
ATOM      3  O   UNL     1      -4.117 -10.226  12.471  0.00  0.00    -0.442 OA
BRANCH   3  18
ATOM      4  O   UNL     1      -5.264 -11.953  13.437  0.00  0.00    -0.226 OA
ATOM      9  N   UNL     1      -4.305 -10.244  14.719  0.00  0.00    -0.251 N 
ATOM     18  C   UNL     1      -4.628 -10.912  13.554  0.00  0.00    +0.405 C 
ATOM     38  H   UNL     1      -3.765  -9.389  14.610  0.00  0.00    +0.158 HD
BRANCH   9  25
ATOM     25  C   UNL     1      -4.632 -10.602  16.046  0.00  0.00    +0.038 A 
ATOM     27  C   UNL     1      -5.936 -10.442  16.492  0.00  0.00    +0.042 A 
ATOM     28  C   UNL     1      -3.644 -11.103  16.878  0.00  0.00    +0.023 A 
ATOM     31  C   UNL     1      -6.257 -10.793  17.802  0.00  0.00    +0.054 A 
ATOM     32  C   UNL     1      -3.965 -11.454  18.189  0.00  0.00    +0.003 A 
ATOM     33  C   UNL     1      -5.272 -11.299  18.651  0.00  0.00    +0.019 A 
BRANCH  31  37
ATOM     10  N   UNL     1      -8.684 -10.506  18.665  0.00  0.00    -0.191 NA
ATOM     37  C   UNL     1      -7.595 -10.634  18.277  0.00  0.00    +0.099 C 
ENDBRANCH  31  37
ENDBRANCH   9  25
ENDBRANCH   3  18
ENDBRANCH  14   3
TORSDOF 7
ENDMDL
MODEL 8
REMARK VINA RESULT:      -7.1      1.602      2.419
REMARK  Name = 11886077
REMARK  7 active torsions:
REMARK  status: ('A' for Active; 'I' for Inactive)
REMARK    1  A    between atoms: O_3  and  C_14
REMARK    2  A    between atoms: O_3  and  C_18
REMARK    3  A    between atoms: N_5  and  C_13
REMARK    4  A    between atoms: N_9  and  C_25
REMARK    5  A    between atoms: C_17  and  C_19
REMARK    6  A    between atoms: C_24  and  C_26
REMARK    7  A    between atoms: C_31  and  C_37
REMARK                            x       y       z     vdW  Elec       q    Type
REMARK                         _______ _______ _______ _____ _____    ______ ____
ROOT
ATOM      1  O   UNL     1     -11.879  -8.714  14.797  0.00  0.00    -0.368 OA
ATOM      2  O   UNL     1     -10.828  -6.249  16.338  0.00  0.00    -0.368 OA
ATOM     11  C   UNL     1     -11.320  -7.533  16.781  0.00  0.00    +0.177 C 
ATOM     12  C   UNL     1     -12.450  -7.916  15.846  0.00  0.00    +0.192 C 
ATOM     13  C   UNL     1     -10.259  -8.591  16.550  0.00  0.00    +0.168 C 
ATOM     14  C   UNL     1     -12.925  -6.577  15.333  0.00  0.00    +0.235 C 
ATOM     15  C   UNL     1     -10.508  -9.005  15.103  0.00  0.00    +0.190 C 
ATOM     16  C   UNL     1     -11.635  -5.797  15.242  0.00  0.00    +0.207 C 
ENDROOT
BRANCH  13   5
ATOM      5  N   UNL     1     -10.324  -9.675  17.532  0.00  0.00    -0.217 N 
ATOM      6  N   UNL     1     -11.450  -9.909  18.212  0.00  0.00    -0.043 NA
ATOM      7  N   UNL     1      -9.862 -11.351  18.818  0.00  0.00    -0.108 NA
ATOM      8  N   UNL     1     -11.163 -10.938  18.999  0.00  0.00    -0.023 NA
ATOM     17  C   UNL     1      -9.361 -10.553  17.904  0.00  0.00    +0.182 A 
BRANCH  17  19
ATOM     19  C   UNL     1      -8.024 -10.581  17.368  0.00  0.00    +0.021 A 
ATOM     20  C   UNL     1      -7.764 -11.248  16.169  0.00  0.00    +0.012 A 
ATOM     21  C   UNL     1      -6.986  -9.940  18.045  0.00  0.00    +0.012 A 
ATOM     22  C   UNL     1      -6.471 -11.274  15.650  0.00  0.00    +0.009 A 
ATOM     23  C   UNL     1      -5.691  -9.966  17.525  0.00  0.00    +0.009 A 
ATOM     24  C   UNL     1      -5.433 -10.633  16.328  0.00  0.00    -0.018 A 
BRANCH  24  26
ATOM     26  C   UNL     1      -4.091 -10.660  15.790  0.00  0.00    -0.018 A 
ATOM     29  C   UNL     1      -3.893 -10.671  14.409  0.00  0.00    +0.008 A 
ATOM     30  C   UNL     1      -2.994 -10.672  16.652  0.00  0.00    +0.008 A 
ATOM     34  C   UNL     1      -2.599 -10.696  13.889  0.00  0.00    +0.001 A 
ATOM     35  C   UNL     1      -1.700 -10.696  16.132  0.00  0.00    +0.001 A 
ATOM     36  C   UNL     1      -1.502 -10.707  14.751  0.00  0.00    +0.000 A 
ENDBRANCH  24  26
ENDBRANCH  17  19
ENDBRANCH  13   5
BRANCH  14   3
ATOM      3  O   UNL     1     -13.589  -6.653  14.091  0.00  0.00    -0.442 OA
BRANCH   3  18
ATOM      4  O   UNL     1     -13.856  -4.512  13.334  0.00  0.00    -0.226 OA
ATOM      9  N   UNL     1     -12.530  -6.065  12.189  0.00  0.00    -0.251 N 
ATOM     18  C   UNL     1     -13.364  -5.626  13.199  0.00  0.00    +0.405 C 
ATOM     38  H   UNL     1     -12.221  -7.032  12.251  0.00  0.00    +0.158 HD
BRANCH   9  25
ATOM     25  C   UNL     1     -12.051  -5.336  11.077  0.00  0.00    +0.038 A 
ATOM     27  C   UNL     1     -11.583  -6.020   9.966  0.00  0.00    +0.042 A 
ATOM     28  C   UNL     1     -12.056  -3.951  11.120  0.00  0.00    +0.023 A 
ATOM     31  C   UNL     1     -11.109  -5.300   8.870  0.00  0.00    +0.054 A 
ATOM     32  C   UNL     1     -11.582  -3.230  10.024  0.00  0.00    +0.003 A 
ATOM     33  C   UNL     1     -11.108  -3.905   8.899  0.00  0.00    +0.019 A 
BRANCH  31  37
ATOM     10  N   UNL     1     -10.226  -6.552   6.780  0.00  0.00    -0.191 NA
ATOM     37  C   UNL     1     -10.622  -5.989   7.717  0.00  0.00    +0.099 C 
ENDBRANCH  31  37
ENDBRANCH   9  25
ENDBRANCH   3  18
ENDBRANCH  14   3
TORSDOF 7
ENDMDL
MODEL 9
REMARK VINA RESULT:      -7.0     25.554     28.454
REMARK  Name = 11886077
REMARK  7 active torsions:
REMARK  status: ('A' for Active; 'I' for Inactive)
REMARK    1  A    between atoms: O_3  and  C_14
REMARK    2  A    between atoms: O_3  and  C_18
REMARK    3  A    between atoms: N_5  and  C_13
REMARK    4  A    between atoms: N_9  and  C_25
REMARK    5  A    between atoms: C_17  and  C_19
REMARK    6  A    between atoms: C_24  and  C_26
REMARK    7  A    between atoms: C_31  and  C_37
REMARK                            x       y       z     vdW  Elec       q    Type
REMARK                         _______ _______ _______ _____ _____    ______ ____
ROOT
ATOM      1  O   UNL     1       9.748   5.993  -4.546  0.00  0.00    -0.368 OA
ATOM      2  O   UNL     1       8.579   6.563  -1.742  0.00  0.00    -0.368 OA
ATOM     11  C   UNL     1       9.190   5.387  -2.317  0.00  0.00    +0.177 C 
ATOM     12  C   UNL     1       8.744   5.327  -3.765  0.00  0.00    +0.192 C 
ATOM     13  C   UNL     1      10.692   5.579  -2.390  0.00  0.00    +0.168 C 
ATOM     14  C   UNL     1       7.446   6.100  -3.746  0.00  0.00    +0.235 C 
ATOM     15  C   UNL     1      10.874   6.312  -3.715  0.00  0.00    +0.190 C 
ATOM     16  C   UNL     1       7.734   7.176  -2.725  0.00  0.00    +0.207 C 
ENDROOT
BRANCH  13   5
ATOM      5  N   UNL     1      11.425   4.318  -2.265  0.00  0.00    -0.217 N 
ATOM      6  N   UNL     1      11.760   3.616  -3.353  0.00  0.00    -0.043 NA
ATOM      7  N   UNL     1      12.470   2.582  -1.510  0.00  0.00    -0.108 NA
ATOM      8  N   UNL     1      12.402   2.553  -2.885  0.00  0.00    -0.023 NA
ATOM     17  C   UNL     1      11.859   3.685  -1.148  0.00  0.00    +0.182 A 
BRANCH  17  19
ATOM     19  C   UNL     1      11.665   4.167   0.195  0.00  0.00    +0.021 A 
ATOM     20  C   UNL     1      10.439   3.979   0.837  0.00  0.00    +0.012 A 
ATOM     21  C   UNL     1      12.703   4.823   0.860  0.00  0.00    +0.012 A 
ATOM     22  C   UNL     1      10.251   4.446   2.137  0.00  0.00    +0.009 A 
ATOM     23  C   UNL     1      12.515   5.289   2.162  0.00  0.00    +0.009 A 
ATOM     24  C   UNL     1      11.290   5.101   2.800  0.00  0.00    -0.018 A 
BRANCH  24  26
ATOM     26  C   UNL     1      11.095   5.585   4.149  0.00  0.00    -0.018 A 
ATOM     29  C   UNL     1      10.119   5.010   4.963  0.00  0.00    +0.008 A 
ATOM     30  C   UNL     1      11.886   6.625   4.638  0.00  0.00    +0.008 A 
ATOM     34  C   UNL     1       9.933   5.475   6.265  0.00  0.00    +0.001 A 
ATOM     35  C   UNL     1      11.700   7.090   5.940  0.00  0.00    +0.001 A 
ATOM     36  C   UNL     1      10.724   6.515   6.754  0.00  0.00    +0.000 A 
ENDBRANCH  24  26
ENDBRANCH  17  19
ENDBRANCH  13   5
BRANCH  14   3
ATOM      3  O   UNL     1       7.093   6.638  -5.000  0.00  0.00    -0.442 OA
BRANCH   3  18
ATOM      4  O   UNL     1       5.770   5.634  -6.572  0.00  0.00    -0.226 OA
ATOM      9  N   UNL     1       4.860   6.686  -4.689  0.00  0.00    -0.251 N 
ATOM     18  C   UNL     1       5.875   6.258  -5.522  0.00  0.00    +0.405 C 
ATOM     38  H   UNL     1       5.149   7.192  -3.855  0.00  0.00    +0.158 HD
BRANCH   9  25
ATOM     25  C   UNL     1       3.467   6.508  -4.850  0.00  0.00    +0.038 A 
ATOM     27  C   UNL     1       2.891   5.298  -4.493  0.00  0.00    +0.042 A 
ATOM     28  C   UNL     1       2.705   7.544  -5.364  0.00  0.00    +0.023 A 
ATOM     31  C   UNL     1       1.517   5.123  -4.655  0.00  0.00    +0.054 A 
ATOM     32  C   UNL     1       1.332   7.369  -5.526  0.00  0.00    +0.003 A 
ATOM     33  C   UNL     1       0.737   6.158  -5.172  0.00  0.00    +0.019 A 
BRANCH  31  37
ATOM     10  N   UNL     1       0.411   2.873  -3.999  0.00  0.00    -0.191 NA
ATOM     37  C   UNL     1       0.907   3.883  -4.292  0.00  0.00    +0.099 C 
ENDBRANCH  31  37
ENDBRANCH   9  25
ENDBRANCH   3  18
ENDBRANCH  14   3
TORSDOF 7
ENDMDL
MODEL 10
REMARK VINA RESULT:      -7.0      1.598      2.276
REMARK  Name = 11886077
REMARK  7 active torsions:
REMARK  status: ('A' for Active; 'I' for Inactive)
REMARK    1  A    between atoms: O_3  and  C_14
REMARK    2  A    between atoms: O_3  and  C_18
REMARK    3  A    between atoms: N_5  and  C_13
REMARK    4  A    between atoms: N_9  and  C_25
REMARK    5  A    between atoms: C_17  and  C_19
REMARK    6  A    between atoms: C_24  and  C_26
REMARK    7  A    between atoms: C_31  and  C_37
REMARK                            x       y       z     vdW  Elec       q    Type
REMARK                         _______ _______ _______ _____ _____    ______ ____
ROOT
ATOM      1  O   UNL     1     -12.174  -9.450  16.365  0.00  0.00    -0.368 OA
ATOM      2  O   UNL     1      -9.507  -9.591  14.809  0.00  0.00    -0.368 OA
ATOM     11  C   UNL     1      -9.803  -9.406  16.211  0.00  0.00    +0.177 C 
ATOM     12  C   UNL     1     -11.055  -8.554  16.284  0.00  0.00    +0.192 C 
ATOM     13  C   UNL     1     -10.209 -10.732  16.824  0.00  0.00    +0.168 C 
ATOM     14  C   UNL     1     -11.029  -7.810  14.970  0.00  0.00    +0.235 C 
ATOM     15  C   UNL     1     -11.704 -10.797  16.525  0.00  0.00    +0.190 C 
ATOM     16  C   UNL     1     -10.453  -8.845  14.032  0.00  0.00    +0.207 C 
ENDROOT
BRANCH  13   5
ATOM      5  N   UNL     1      -9.848 -10.830  18.239  0.00  0.00    -0.217 N 
ATOM      6  N   UNL     1     -10.783 -10.715  19.188  0.00  0.00    -0.043 NA
ATOM      7  N   UNL     1      -8.779 -11.048  20.106  0.00  0.00    -0.108 NA
ATOM      8  N   UNL     1     -10.123 -10.851  20.331  0.00  0.00    -0.023 NA
ATOM     17  C   UNL     1      -8.633 -11.032  18.802  0.00  0.00    +0.182 A 
BRANCH  17  19
ATOM     19  C   UNL     1      -7.405 -11.196  18.066  0.00  0.00    +0.021 A 
ATOM     20  C   UNL     1      -7.181 -12.361  17.329  0.00  0.00    +0.012 A 
ATOM     21  C   UNL     1      -6.437 -10.191  18.087  0.00  0.00    +0.012 A 
ATOM     22  C   UNL     1      -5.994 -12.520  16.616  0.00  0.00    +0.009 A 
ATOM     23  C   UNL     1      -5.249 -10.350  17.373  0.00  0.00    +0.009 A 
ATOM     24  C   UNL     1      -5.027 -11.515  16.638  0.00  0.00    -0.018 A 
BRANCH  24  26
ATOM     26  C   UNL     1      -3.795 -11.679  15.898  0.00  0.00    -0.018 A 
ATOM     29  C   UNL     1      -3.665 -12.723  14.982  0.00  0.00    +0.008 A 
ATOM     30  C   UNL     1      -2.737 -10.793  16.099  0.00  0.00    +0.008 A 
ATOM     34  C   UNL     1      -2.478 -12.882  14.267  0.00  0.00    +0.001 A 
ATOM     35  C   UNL     1      -1.550 -10.951  15.385  0.00  0.00    +0.001 A 
ATOM     36  C   UNL     1      -1.420 -11.995  14.468  0.00  0.00    +0.000 A 
ENDBRANCH  24  26
ENDBRANCH  17  19
ENDBRANCH  13   5
BRANCH  14   3
ATOM      3  O   UNL     1     -12.298  -7.361  14.552  0.00  0.00    -0.442 OA
BRANCH   3  18
ATOM      4  O   UNL     1     -12.079  -5.086  14.488  0.00  0.00    -0.226 OA
ATOM      9  N   UNL     1     -12.740  -6.310  12.605  0.00  0.00    -0.251 N 
ATOM     18  C   UNL     1     -12.350  -6.137  13.919  0.00  0.00    +0.405 C 
ATOM     38  H   UNL     1     -12.920  -7.268  12.315  0.00  0.00    +0.158 HD
BRANCH   9  25
ATOM     25  C   UNL     1     -12.919  -5.321  11.612  0.00  0.00    +0.038 A 
ATOM     27  C   UNL     1     -14.081  -4.564  11.608  0.00  0.00    +0.042 A 
ATOM     28  C   UNL     1     -11.931  -5.128  10.660  0.00  0.00    +0.023 A 
ATOM     31  C   UNL     1     -14.257  -3.590  10.626  0.00  0.00    +0.054 A 
ATOM     32  C   UNL     1     -12.107  -4.154   9.678  0.00  0.00    +0.003 A 
ATOM     33  C   UNL     1     -13.271  -3.385   9.661  0.00  0.00    +0.019 A 
BRANCH  31  37
ATOM     10  N   UNL     1     -16.418  -2.160  10.591  0.00  0.00    -0.191 NA
ATOM     37  C   UNL     1     -15.449  -2.802  10.608  0.00  0.00    +0.099 C 
ENDBRANCH  31  37
ENDBRANCH   9  25
ENDBRANCH   3  18
ENDBRANCH  14   3
TORSDOF 7
ENDMDL
