REMARK  Name = 51136901
REMARK  7 active torsions:
REMARK  status: ('A' for Active; 'I' for Inactive)
REMARK    1  A    between atoms: O_3  and  C_30
REMARK    2  A    between atoms: O_3  and  C_31
REMARK    3  A    between atoms: N_4  and  C_9
REMARK    4  A    between atoms: N_8  and  C_23
REMARK    5  A    between atoms: C_13  and  C_17
REMARK    6  A    between atoms: C_18  and  C_19
REMARK    7  A    between atoms: C_24  and  C_25
REMARK                            x       y       z     vdW  Elec       q    Type
REMARK                         _______ _______ _______ _____ _____    ______ ____
ROOT
ATOM      7  N   UNL     1      -0.932   0.873   0.162  0.00  0.00    -0.239 NA
ATOM     19  C   UNL     1       0.910  -0.634   0.586  0.00  0.00    +0.041 A 
ATOM     20  C   UNL     1       0.026  -1.705   0.661  0.00  0.00    +0.016 A 
ATOM     21  C   UNL     1       0.385   0.623   0.337  0.00  0.00    +0.124 A 
ATOM     22  C   UNL     1      -1.337  -1.488   0.487  0.00  0.00    +0.044 A 
ATOM     23  C   UNL     1      -1.761  -0.193   0.242  0.00  0.00    +0.125 A 
ENDROOT
BRANCH  19  18
ATOM      1  O   UNL     1       4.224  -1.734   1.102  0.00  0.00    -0.336 OA
ATOM      5  N   UNL     1       3.200   0.215   0.691  0.00  0.00    -0.190 NA
ATOM      6  N   UNL     1       2.858  -2.025   1.005  0.00  0.00    -0.056 NA
ATOM     17  C   UNL     1       4.338  -0.394   0.905  0.00  0.00    +0.245 A 
ATOM     18  C   UNL     1       2.320  -0.827   0.762  0.00  0.00    +0.204 A 
BRANCH  17  13
ATOM      4  N   UNL     1       6.102   0.890  -0.284  0.00  0.00    -0.288 NA
ATOM     13  C   UNL     1       5.739   0.179   0.960  0.00  0.00    +0.146 C 
ATOM     14  C   UNL     1       7.037   1.949   0.101  0.00  0.00    +0.085 C 
ATOM     15  C   UNL     1       5.913   1.226   2.076  0.00  0.00    +0.030 C 
ATOM     16  C   UNL     1       6.403   2.482   1.370  0.00  0.00    +0.017 C 
BRANCH   4   9
ATOM      9  C   UNL     1       6.726  -0.016  -1.259  0.00  0.00    +0.057 C 
ATOM     10  C   UNL     1       5.630  -0.791  -2.019  0.00  0.00    +0.019 C 
ATOM     11  C   UNL     1       6.994   0.745  -2.574  0.00  0.00    +0.019 C 
ATOM     12  C   UNL     1       6.415  -0.481  -3.311  0.00  0.00    +0.003 C 
ENDBRANCH   4   9
ENDBRANCH  17  13
ENDBRANCH  19  18
BRANCH  23   8
ATOM      2  O   UNL     1      -4.038  -2.141   0.310  0.00  0.00    -0.270 OA
ATOM      8  N   UNL     1      -3.134   0.015   0.069  0.00  0.00    -0.266 N 
ATOM     24  C   UNL     1      -4.158  -0.937   0.111  0.00  0.00    +0.249 C 
ATOM     32  H   UNL     1      -3.365   0.981  -0.143  0.00  0.00    +0.157 HD
BRANCH  24  25
ATOM     25  C   UNL     1      -5.531  -0.401  -0.084  0.00  0.00    +0.037 A 
ATOM     26  C   UNL     1      -6.529  -1.217  -0.615  0.00  0.00    +0.016 A 
ATOM     27  C   UNL     1      -5.820   0.919   0.264  0.00  0.00    +0.016 A 
ATOM     28  C   UNL     1      -7.817  -0.713  -0.798  0.00  0.00    +0.046 A 
ATOM     29  C   UNL     1      -7.107   1.423   0.080  0.00  0.00    +0.046 A 
ATOM     30  C   UNL     1      -8.106   0.606  -0.451  0.00  0.00    +0.120 A 
BRANCH  30   3
ATOM      3  O   UNL     1      -9.363   1.098  -0.630  0.00  0.00    -0.495 OA
ATOM     31  C   UNL     1      -9.589   2.455  -0.254  0.00  0.00    +0.277 C 
ENDBRANCH  30   3
ENDBRANCH  24  25
ENDBRANCH  23   8
TORSDOF 6
