REMARK  Name = 75367633
REMARK  4 active torsions:
REMARK  status: ('A' for Active; 'I' for Inactive)
REMARK    1  A    between atoms: O_3  and  C_12
REMARK    2  A    between atoms: O_3  and  C_15
REMARK    3  A    between atoms: C_6  and  C_9
REMARK    4  A    between atoms: C_17  and  C_20
REMARK                            x       y       z     vdW  Elec       q    Type
REMARK                         _______ _______ _______ _____ _____    ______ ____
ROOT
ATOM      1  O   UNL     1       1.838  -2.728   1.142  0.00  0.00    -0.375 OA
ATOM      2  O   UNL     1       0.946   1.784  -1.162  0.00  0.00    -0.275 OA
ATOM      4  N   UNL     1       1.859  -0.313  -0.679  0.00  0.00    -0.295 N 
ATOM      9  C   UNL     1       1.879   1.090  -0.766  0.00  0.00    +0.219 C 
ATOM     10  C   UNL     1       0.638  -1.025  -1.061  0.00  0.00    +0.154 C 
ATOM     11  C   UNL     1       3.012  -1.081  -0.195  0.00  0.00    +0.136 C 
ATOM     12  C   UNL     1      -0.106  -1.579   0.154  0.00  0.00    +0.218 C 
ATOM     13  C   UNL     1       2.776  -2.559   0.083  0.00  0.00    +0.179 C 
ATOM     14  C   UNL     1       0.497  -2.875   0.692  0.00  0.00    +0.206 C 
ENDROOT
BRANCH   9   6
ATOM      6  C   UNL     1       3.127   1.784  -0.320  0.00  0.00    +0.075 C 
ATOM      7  C   UNL     1       3.294   2.077   1.132  0.00  0.00    +0.013 C 
ATOM      8  C   UNL     1       3.022   3.190   0.165  0.00  0.00    +0.013 C 
ENDBRANCH   9   6
BRANCH  12   3
ATOM      3  O   UNL     1      -1.454  -1.833  -0.235  0.00  0.00    -0.469 OA
BRANCH   3  15
ATOM      5  N   UNL     1      -1.841   0.373   0.362  0.00  0.00    -0.218 NA
ATOM     15  C   UNL     1      -2.334  -0.792  -0.115  0.00  0.00    +0.215 A 
ATOM     16  C   UNL     1      -3.657  -0.984  -0.479  0.00  0.00    +0.067 A 
ATOM     17  C   UNL     1      -2.721   1.394   0.478  0.00  0.00    +0.042 A 
ATOM     18  C   UNL     1      -4.530   0.089  -0.345  0.00  0.00    +0.007 A 
ATOM     19  C   UNL     1      -4.062   1.304   0.142  0.00  0.00    +0.023 A 
ATOM     20  C   UNL     1      -2.184   2.682   1.007  0.00  0.00    +0.066 C 
ENDBRANCH   3  15
ENDBRANCH  12   3
TORSDOF 3
