MODEL 1
REMARK VINA RESULT:      -7.2      0.000      0.000
REMARK  Name = 40781553
REMARK  8 active torsions:
REMARK  status: ('A' for Active; 'I' for Inactive)
REMARK    1  A    between atoms: S_2  and  N_11
REMARK    2  A    between atoms: S_2  and  C_23
REMARK    3  A    between atoms: O_4  and  C_13
REMARK    4  A    between atoms: O_5  and  C_14
REMARK    5  A    between atoms: N_11  and  C_17
REMARK    6  A    between atoms: C_12  and  C_16
REMARK    7  A    between atoms: C_15  and  C_17
REMARK    8  A    between atoms: C_16  and  C_18
REMARK                            x       y       z     vdW  Elec       q    Type
REMARK                         _______ _______ _______ _____ _____    ______ ____
ROOT
ATOM      3  O   UNL     1      11.393   8.674  20.361  0.00  0.00    -0.366 OA
ATOM     12  C   UNL     1      11.681   7.275  20.201  0.00  0.00    +0.158 C 
ATOM     13  C   UNL     1      11.796   6.716  21.609  0.00  0.00    +0.175 C 
ATOM     14  C   UNL     1      10.751   7.529  22.344  0.00  0.00    +0.175 C 
ATOM     15  C   UNL     1      10.911   8.903  21.704  0.00  0.00    +0.165 C 
ENDROOT
BRANCH  13   4
ATOM      4  O   UNL     1      11.553   5.325  21.649  0.00  0.00    -0.387 OA
ATOM     29  H   UNL     1      11.803   4.961  20.784  0.00  0.00    +0.210 HD
ENDBRANCH  13   4
BRANCH  14   5
ATOM      5  O   UNL     1       9.443   7.047  22.037  0.00  0.00    -0.387 OA
ATOM     30  H   UNL     1       9.539   6.146  21.686  0.00  0.00    +0.210 HD
ENDBRANCH  14   5
BRANCH  12  16
ATOM     16  C   UNL     1      12.948   7.104  19.381  0.00  0.00    +0.130 C 
BRANCH  16  18
ATOM      6  O   UNL     1      14.777  11.029  16.783  0.00  0.00    -0.377 OA
ATOM      7  O   UNL     1      11.813   7.104  17.299  0.00  0.00    -0.276 OA
ATOM     10  N   UNL     1      13.598   8.575  17.509  0.00  0.00    -0.297 N 
ATOM     18  C   UNL     1      12.729   7.587  17.970  0.00  0.00    +0.218 C 
ATOM     19  C   UNL     1      13.451   9.103  16.153  0.00  0.00    +0.136 C 
ATOM     20  C   UNL     1      14.771   9.080  18.229  0.00  0.00    +0.136 C 
ATOM     21  C   UNL     1      13.556  10.621  16.159  0.00  0.00    +0.179 C 
ATOM     22  C   UNL     1      14.826  10.601  18.147  0.00  0.00    +0.179 C 
ENDBRANCH  16  18
ENDBRANCH  12  16
BRANCH  15  17
ATOM     17  C   UNL     1      11.930   9.779  22.421  0.00  0.00    +0.140 C 
BRANCH  17  11
ATOM     11  N   UNL     1      13.003  10.147  21.545  0.00  0.00    -0.187 NA
ATOM     31  H   UNL     1      13.036   9.670  20.636  0.00  0.00    +0.148 HD
BRANCH  11   2
ATOM      2  S   UNL     1      14.484  10.776  22.160  0.00  0.00    +0.058 S 
ATOM      8  O   UNL     1      14.397  10.834  23.607  0.00  0.00    -0.153 OA
ATOM      9  O   UNL     1      14.882  11.949  21.406  0.00  0.00    -0.153 OA
BRANCH   2  23
ATOM      1 CL   UNL     1      18.487   6.181  20.650  0.00  0.00    -0.084 Cl
ATOM     23  C   UNL     1      15.611   9.482  21.734  0.00  0.00    +0.105 A 
ATOM     24  C   UNL     1      15.211   8.150  21.831  0.00  0.00    +0.030 A 
ATOM     25  C   UNL     1      16.900   9.794  21.302  0.00  0.00    +0.030 A 
ATOM     26  C   UNL     1      16.101   7.129  21.496  0.00  0.00    +0.022 A 
ATOM     27  C   UNL     1      17.790   8.773  20.967  0.00  0.00    +0.022 A 
ATOM     28  C   UNL     1      17.391   7.440  21.064  0.00  0.00    +0.041 A 
ENDBRANCH   2  23
ENDBRANCH  11   2
ENDBRANCH  17  11
ENDBRANCH  15  17
TORSDOF 8
ENDMDL
MODEL 2
REMARK VINA RESULT:      -6.6      3.327      4.605
REMARK  Name = 40781553
REMARK  8 active torsions:
REMARK  status: ('A' for Active; 'I' for Inactive)
REMARK    1  A    between atoms: S_2  and  N_11
REMARK    2  A    between atoms: S_2  and  C_23
REMARK    3  A    between atoms: O_4  and  C_13
REMARK    4  A    between atoms: O_5  and  C_14
REMARK    5  A    between atoms: N_11  and  C_17
REMARK    6  A    between atoms: C_12  and  C_16
REMARK    7  A    between atoms: C_15  and  C_17
REMARK    8  A    between atoms: C_16  and  C_18
REMARK                            x       y       z     vdW  Elec       q    Type
REMARK                         _______ _______ _______ _____ _____    ______ ____
ROOT
ATOM      3  O   UNL     1      10.717   9.415  20.669  0.00  0.00    -0.366 OA
ATOM     12  C   UNL     1      11.098   8.306  19.837  0.00  0.00    +0.158 C 
ATOM     13  C   UNL     1      11.766   7.305  20.765  0.00  0.00    +0.175 C 
ATOM     14  C   UNL     1      10.954   7.480  22.032  0.00  0.00    +0.175 C 
ATOM     15  C   UNL     1      10.713   8.985  22.049  0.00  0.00    +0.165 C 
ENDROOT
BRANCH  13   4
ATOM      4  O   UNL     1      11.722   5.992  20.249  0.00  0.00    -0.387 OA
ATOM     29  H   UNL     1      12.577   5.573  20.444  0.00  0.00    +0.210 HD
ENDBRANCH  13   4
BRANCH  14   5
ATOM      5  O   UNL     1       9.690   6.831  21.904  0.00  0.00    -0.387 OA
ATOM     30  H   UNL     1       9.805   5.910  22.194  0.00  0.00    +0.210 HD
ENDBRANCH  14   5
BRANCH  12  16
ATOM     16  C   UNL     1      12.008   8.792  18.722  0.00  0.00    +0.130 C 
BRANCH  16  18
ATOM      6  O   UNL     1      16.677   7.280  19.912  0.00  0.00    -0.377 OA
ATOM      7  O   UNL     1      13.057  10.647  19.761  0.00  0.00    -0.276 OA
ATOM     10  N   UNL     1      14.416   8.831  19.262  0.00  0.00    -0.297 N 
ATOM     18  C   UNL     1      13.201   9.514  19.295  0.00  0.00    +0.218 C 
ATOM     19  C   UNL     1      15.622   9.457  19.802  0.00  0.00    +0.136 C 
ATOM     20  C   UNL     1      14.649   7.541  18.605  0.00  0.00    +0.136 C 
ATOM     21  C   UNL     1      16.396   8.467  20.659  0.00  0.00    +0.179 C 
ATOM     22  C   UNL     1      15.469   6.629  19.509  0.00  0.00    +0.179 C 
ENDBRANCH  16  18
ENDBRANCH  12  16
BRANCH  15  17
ATOM     17  C   UNL     1      11.805   9.755  22.779  0.00  0.00    +0.140 C 
BRANCH  17  11
ATOM     11  N   UNL     1      11.380  10.136  24.093  0.00  0.00    -0.187 NA
ATOM     31  H   UNL     1      10.619   9.584  24.506  0.00  0.00    +0.148 HD
BRANCH  11   2
ATOM      2  S   UNL     1      11.589  11.747  24.670  0.00  0.00    +0.058 S 
ATOM      8  O   UNL     1      12.770  11.787  25.512  0.00  0.00    -0.153 OA
ATOM      9  O   UNL     1      10.328  12.273  25.155  0.00  0.00    -0.153 OA
BRANCH   2  23
ATOM      1 CL   UNL     1      12.914  14.794  19.342  0.00  0.00    -0.084 Cl
ATOM     23  C   UNL     1      11.962  12.604  23.169  0.00  0.00    +0.105 A 
ATOM     24  C   UNL     1      13.285  12.916  22.855  0.00  0.00    +0.030 A 
ATOM     25  C   UNL     1      10.934  12.969  22.300  0.00  0.00    +0.030 A 
ATOM     26  C   UNL     1      13.580  13.593  21.671  0.00  0.00    +0.022 A 
ATOM     27  C   UNL     1      11.229  13.647  21.117  0.00  0.00    +0.022 A 
ATOM     28  C   UNL     1      12.551  13.959  20.802  0.00  0.00    +0.041 A 
ENDBRANCH   2  23
ENDBRANCH  11   2
ENDBRANCH  17  11
ENDBRANCH  15  17
TORSDOF 8
ENDMDL
MODEL 3
REMARK VINA RESULT:      -6.6      3.296      4.292
REMARK  Name = 40781553
REMARK  8 active torsions:
REMARK  status: ('A' for Active; 'I' for Inactive)
REMARK    1  A    between atoms: S_2  and  N_11
REMARK    2  A    between atoms: S_2  and  C_23
REMARK    3  A    between atoms: O_4  and  C_13
REMARK    4  A    between atoms: O_5  and  C_14
REMARK    5  A    between atoms: N_11  and  C_17
REMARK    6  A    between atoms: C_12  and  C_16
REMARK    7  A    between atoms: C_15  and  C_17
REMARK    8  A    between atoms: C_16  and  C_18
REMARK                            x       y       z     vdW  Elec       q    Type
REMARK                         _______ _______ _______ _____ _____    ______ ____
ROOT
ATOM      3  O   UNL     1      11.218   8.941  20.409  0.00  0.00    -0.366 OA
ATOM     12  C   UNL     1      11.743   7.614  20.229  0.00  0.00    +0.158 C 
ATOM     13  C   UNL     1      11.882   7.035  21.627  0.00  0.00    +0.175 C 
ATOM     14  C   UNL     1      10.682   7.638  22.326  0.00  0.00    +0.175 C 
ATOM     15  C   UNL     1      10.641   9.042  21.731  0.00  0.00    +0.165 C 
ENDROOT
BRANCH  13   4
ATOM      4  O   UNL     1      11.873   5.623  21.619  0.00  0.00    -0.387 OA
ATOM     29  H   UNL     1      10.945   5.338  21.571  0.00  0.00    +0.210 HD
ENDBRANCH  13   4
BRANCH  14   5
ATOM      5  O   UNL     1       9.489   6.959  21.939  0.00  0.00    -0.387 OA
ATOM     30  H   UNL     1       9.297   6.295  22.623  0.00  0.00    +0.210 HD
ENDBRANCH  14   5
BRANCH  12  16
ATOM     16  C   UNL     1      13.058   7.683  19.473  0.00  0.00    +0.130 C 
BRANCH  16  18
ATOM      6  O   UNL     1      14.576  11.125  16.105  0.00  0.00    -0.377 OA
ATOM      7  O   UNL     1      11.935   7.166  17.450  0.00  0.00    -0.276 OA
ATOM     10  N   UNL     1      13.595   8.786  17.331  0.00  0.00    -0.297 N 
ATOM     18  C   UNL     1      12.807   7.847  17.996  0.00  0.00    +0.218 C 
ATOM     19  C   UNL     1      13.412   9.012  15.898  0.00  0.00    +0.136 C 
ATOM     20  C   UNL     1      14.720   9.520  17.918  0.00  0.00    +0.136 C 
ATOM     21  C   UNL     1      13.394  10.502  15.593  0.00  0.00    +0.179 C 
ATOM     22  C   UNL     1      14.654  10.990  17.526  0.00  0.00    +0.179 C 
ENDBRANCH  16  18
ENDBRANCH  12  16
BRANCH  15  17
ATOM     17  C   UNL     1      11.465  10.049  22.522  0.00  0.00    +0.140 C 
BRANCH  17  11
ATOM     11  N   UNL     1      10.643  10.787  23.434  0.00  0.00    -0.187 NA
ATOM     31  H   UNL     1       9.628  10.652  23.348  0.00  0.00    +0.148 HD
BRANCH  11   2
ATOM      2  S   UNL     1      11.186  12.266  24.132  0.00  0.00    +0.058 S 
ATOM      8  O   UNL     1      12.404  12.006  24.876  0.00  0.00    -0.153 OA
ATOM      9  O   UNL     1      10.080  12.958  24.764  0.00  0.00    -0.153 OA
BRANCH   2  23
ATOM      1 CL   UNL     1      12.717  15.549  19.004  0.00  0.00    -0.084 Cl
ATOM     23  C   UNL     1      11.617  13.191  22.689  0.00  0.00    +0.105 A 
ATOM     24  C   UNL     1      10.619  13.634  21.821  0.00  0.00    +0.030 A 
ATOM     25  C   UNL     1      12.955  13.478  22.417  0.00  0.00    +0.030 A 
ATOM     26  C   UNL     1      10.959  14.363  20.681  0.00  0.00    +0.022 A 
ATOM     27  C   UNL     1      13.295  14.207  21.278  0.00  0.00    +0.022 A 
ATOM     28  C   UNL     1      12.297  14.649  20.409  0.00  0.00    +0.041 A 
ENDBRANCH   2  23
ENDBRANCH  11   2
ENDBRANCH  17  11
ENDBRANCH  15  17
TORSDOF 8
ENDMDL
MODEL 4
REMARK VINA RESULT:      -6.3      3.083      3.951
REMARK  Name = 40781553
REMARK  8 active torsions:
REMARK  status: ('A' for Active; 'I' for Inactive)
REMARK    1  A    between atoms: S_2  and  N_11
REMARK    2  A    between atoms: S_2  and  C_23
REMARK    3  A    between atoms: O_4  and  C_13
REMARK    4  A    between atoms: O_5  and  C_14
REMARK    5  A    between atoms: N_11  and  C_17
REMARK    6  A    between atoms: C_12  and  C_16
REMARK    7  A    between atoms: C_15  and  C_17
REMARK    8  A    between atoms: C_16  and  C_18
REMARK                            x       y       z     vdW  Elec       q    Type
REMARK                         _______ _______ _______ _____ _____    ______ ____
ROOT
ATOM      3  O   UNL     1      11.168   8.823  20.294  0.00  0.00    -0.366 OA
ATOM     12  C   UNL     1      11.685   7.487  20.166  0.00  0.00    +0.158 C 
ATOM     13  C   UNL     1      11.881   6.985  21.586  0.00  0.00    +0.175 C 
ATOM     14  C   UNL     1      10.711   7.630  22.299  0.00  0.00    +0.175 C 
ATOM     15  C   UNL     1      10.646   8.998  21.630  0.00  0.00    +0.165 C 
ENDROOT
BRANCH  13   4
ATOM      4  O   UNL     1      11.871   5.575  21.656  0.00  0.00    -0.387 OA
ATOM     29  H   UNL     1      10.991   5.305  21.970  0.00  0.00    +0.210 HD
ENDBRANCH  13   4
BRANCH  14   5
ATOM      5  O   UNL     1       9.502   6.933  22.000  0.00  0.00    -0.387 OA
ATOM     30  H   UNL     1       9.741   6.149  21.477  0.00  0.00    +0.210 HD
ENDBRANCH  14   5
BRANCH  12  16
ATOM     16  C   UNL     1      12.968   7.511  19.354  0.00  0.00    +0.130 C 
BRANCH  16  18
ATOM      6  O   UNL     1      13.523  10.795  15.558  0.00  0.00    -0.377 OA
ATOM      7  O   UNL     1      14.145   9.363  20.251  0.00  0.00    -0.276 OA
ATOM     10  N   UNL     1      13.290   9.617  18.108  0.00  0.00    -0.297 N 
ATOM     18  C   UNL     1      13.522   8.912  19.287  0.00  0.00    +0.218 C 
ATOM     19  C   UNL     1      13.798  10.980  17.957  0.00  0.00    +0.136 C 
ATOM     20  C   UNL     1      12.449   9.161  16.995  0.00  0.00    +0.136 C 
ATOM     21  C   UNL     1      14.443  11.159  16.591  0.00  0.00    +0.179 C 
ATOM     22  C   UNL     1      13.147   9.419  15.666  0.00  0.00    +0.179 C 
ENDBRANCH  16  18
ENDBRANCH  12  16
BRANCH  15  17
ATOM     17  C   UNL     1      11.502  10.045  22.330  0.00  0.00    +0.140 C 
BRANCH  17  11
ATOM     11  N   UNL     1      10.697  11.112  22.846  0.00  0.00    -0.187 NA
ATOM     31  H   UNL     1      10.227  11.707  22.153  0.00  0.00    +0.148 HD
BRANCH  11   2
ATOM      2  S   UNL     1      11.006  11.798  24.396  0.00  0.00    +0.058 S 
ATOM      8  O   UNL     1      11.139  10.722  25.360  0.00  0.00    -0.153 OA
ATOM      9  O   UNL     1      10.093  12.896  24.649  0.00  0.00    -0.153 OA
BRANCH   2  23
ATOM      1 CL   UNL     1      16.690  14.312  23.505  0.00  0.00    -0.084 Cl
ATOM     23  C   UNL     1      12.606  12.507  24.146  0.00  0.00    +0.105 A 
ATOM     24  C   UNL     1      12.759  13.598  23.291  0.00  0.00    +0.030 A 
ATOM     25  C   UNL     1      13.715  11.974  24.802  0.00  0.00    +0.030 A 
ATOM     26  C   UNL     1      14.023  14.157  23.093  0.00  0.00    +0.022 A 
ATOM     27  C   UNL     1      14.978  12.532  24.604  0.00  0.00    +0.022 A 
ATOM     28  C   UNL     1      15.132  13.623  23.749  0.00  0.00    +0.041 A 
ENDBRANCH   2  23
ENDBRANCH  11   2
ENDBRANCH  17  11
ENDBRANCH  15  17
TORSDOF 8
ENDMDL
MODEL 5
REMARK VINA RESULT:      -6.1      3.288      5.915
REMARK  Name = 40781553
REMARK  8 active torsions:
REMARK  status: ('A' for Active; 'I' for Inactive)
REMARK    1  A    between atoms: S_2  and  N_11
REMARK    2  A    between atoms: S_2  and  C_23
REMARK    3  A    between atoms: O_4  and  C_13
REMARK    4  A    between atoms: O_5  and  C_14
REMARK    5  A    between atoms: N_11  and  C_17
REMARK    6  A    between atoms: C_12  and  C_16
REMARK    7  A    between atoms: C_15  and  C_17
REMARK    8  A    between atoms: C_16  and  C_18
REMARK                            x       y       z     vdW  Elec       q    Type
REMARK                         _______ _______ _______ _____ _____    ______ ____
ROOT
ATOM      3  O   UNL     1      13.013   8.495  20.231  0.00  0.00    -0.366 OA
ATOM     12  C   UNL     1      12.006   8.777  21.218  0.00  0.00    +0.158 C 
ATOM     13  C   UNL     1      10.886   7.785  20.956  0.00  0.00    +0.175 C 
ATOM     14  C   UNL     1      11.662   6.560  20.521  0.00  0.00    +0.175 C 
ATOM     15  C   UNL     1      12.785   7.174  19.692  0.00  0.00    +0.165 C 
ENDROOT
BRANCH  13   4
ATOM      4  O   UNL     1      10.093   7.566  22.104  0.00  0.00    -0.387 OA
ATOM     29  H   UNL     1       9.210   7.296  21.800  0.00  0.00    +0.210 HD
ENDBRANCH  13   4
BRANCH  14   5
ATOM      5  O   UNL     1      12.247   5.916  21.651  0.00  0.00    -0.387 OA
ATOM     30  H   UNL     1      11.546   5.405  22.090  0.00  0.00    +0.210 HD
ENDBRANCH  14   5
BRANCH  12  16
ATOM     16  C   UNL     1      11.567  10.226  21.100  0.00  0.00    +0.130 C 
BRANCH  16  18
ATOM      6  O   UNL     1      11.624  14.893  23.027  0.00  0.00    -0.377 OA
ATOM      7  O   UNL     1      11.015   9.998  23.395  0.00  0.00    -0.276 OA
ATOM     10  N   UNL     1      11.106  12.163  22.559  0.00  0.00    -0.297 N 
ATOM     18  C   UNL     1      11.203  10.776  22.456  0.00  0.00    +0.218 C 
ATOM     19  C   UNL     1      10.764  12.780  23.840  0.00  0.00    +0.136 C 
ATOM     20  C   UNL     1      11.199  13.107  21.441  0.00  0.00    +0.136 C 
ATOM     21  C   UNL     1      11.673  13.968  24.117  0.00  0.00    +0.179 C 
ATOM     22  C   UNL     1      12.087  14.286  21.818  0.00  0.00    +0.179 C 
ENDBRANCH  16  18
ENDBRANCH  12  16
BRANCH  15  17
ATOM     17  C   UNL     1      12.425   7.327  18.221  0.00  0.00    +0.140 C 
BRANCH  17  11
ATOM     11  N   UNL     1      12.671   8.663  17.764  0.00  0.00    -0.187 NA
ATOM     31  H   UNL     1      12.085   9.402  18.172  0.00  0.00    +0.148 HD
BRANCH  11   2
ATOM      2  S   UNL     1      13.358   8.967  16.213  0.00  0.00    +0.058 S 
ATOM      8  O   UNL     1      12.295   9.354  15.305  0.00  0.00    -0.153 OA
ATOM      9  O   UNL     1      14.274   7.902  15.853  0.00  0.00    -0.153 OA
BRANCH   2  23
ATOM      1 CL   UNL     1      16.842  14.055  17.393  0.00  0.00    -0.084 Cl
ATOM     23  C   UNL     1      14.338  10.400  16.545  0.00  0.00    +0.105 A 
ATOM     24  C   UNL     1      15.193  10.902  15.564  0.00  0.00    +0.030 A 
ATOM     25  C   UNL     1      14.258  11.028  17.788  0.00  0.00    +0.030 A 
ATOM     26  C   UNL     1      15.968  12.033  15.826  0.00  0.00    +0.022 A 
ATOM     27  C   UNL     1      15.032  12.158  18.050  0.00  0.00    +0.022 A 
ATOM     28  C   UNL     1      15.887  12.661  17.070  0.00  0.00    +0.041 A 
ENDBRANCH   2  23
ENDBRANCH  11   2
ENDBRANCH  17  11
ENDBRANCH  15  17
TORSDOF 8
ENDMDL
MODEL 6
REMARK VINA RESULT:      -6.1      3.403      4.651
REMARK  Name = 40781553
REMARK  8 active torsions:
REMARK  status: ('A' for Active; 'I' for Inactive)
REMARK    1  A    between atoms: S_2  and  N_11
REMARK    2  A    between atoms: S_2  and  C_23
REMARK    3  A    between atoms: O_4  and  C_13
REMARK    4  A    between atoms: O_5  and  C_14
REMARK    5  A    between atoms: N_11  and  C_17
REMARK    6  A    between atoms: C_12  and  C_16
REMARK    7  A    between atoms: C_15  and  C_17
REMARK    8  A    between atoms: C_16  and  C_18
REMARK                            x       y       z     vdW  Elec       q    Type
REMARK                         _______ _______ _______ _____ _____    ______ ____
ROOT
ATOM      3  O   UNL     1      11.196   8.801  20.226  0.00  0.00    -0.366 OA
ATOM     12  C   UNL     1      11.631   7.435  20.102  0.00  0.00    +0.158 C 
ATOM     13  C   UNL     1      11.884   6.954  21.520  0.00  0.00    +0.175 C 
ATOM     14  C   UNL     1      10.796   7.679  22.285  0.00  0.00    +0.175 C 
ATOM     15  C   UNL     1      10.766   9.034  21.586  0.00  0.00    +0.165 C 
ENDROOT
BRANCH  13   4
ATOM      4  O   UNL     1      11.801   5.548  21.626  0.00  0.00    -0.387 OA
ATOM     29  H   UNL     1      12.456   5.266  22.286  0.00  0.00    +0.210 HD
ENDBRANCH  13   4
BRANCH  14   5
ATOM      5  O   UNL     1       9.536   7.044  22.074  0.00  0.00    -0.387 OA
ATOM     30  H   UNL     1       8.857   7.741  22.066  0.00  0.00    +0.210 HD
ENDBRANCH  14   5
BRANCH  12  16
ATOM     16  C   UNL     1      12.862   7.369  19.215  0.00  0.00    +0.130 C 
BRANCH  16  18
ATOM      6  O   UNL     1      13.726  10.869  15.679  0.00  0.00    -0.377 OA
ATOM      7  O   UNL     1      14.308   8.965  20.207  0.00  0.00    -0.276 OA
ATOM     10  N   UNL     1      13.422   9.515  18.132  0.00  0.00    -0.297 N 
ATOM     18  C   UNL     1      13.597   8.685  19.238  0.00  0.00    +0.218 C 
ATOM     19  C   UNL     1      14.104  10.807  18.070  0.00  0.00    +0.136 C 
ATOM     20  C   UNL     1      12.491   9.272  17.025  0.00  0.00    +0.136 C 
ATOM     21  C   UNL     1      14.721  11.017  16.696  0.00  0.00    +0.179 C 
ATOM     22  C   UNL     1      13.172   9.550  15.691  0.00  0.00    +0.179 C 
ENDBRANCH  16  18
ENDBRANCH  12  16
BRANCH  15  17
ATOM     17  C   UNL     1      11.719  10.046  22.208  0.00  0.00    +0.140 C 
BRANCH  17  11
ATOM     11  N   UNL     1      12.008  11.113  21.297  0.00  0.00    -0.187 NA
ATOM     31  H   UNL     1      11.813  10.932  20.304  0.00  0.00    +0.148 HD
BRANCH  11   2
ATOM      2  S   UNL     1      13.196  12.306  21.663  0.00  0.00    +0.058 S 
ATOM      8  O   UNL     1      13.166  13.321  20.627  0.00  0.00    -0.153 OA
ATOM      9  O   UNL     1      14.449  11.671  22.026  0.00  0.00    -0.153 OA
BRANCH   2  23
ATOM      1 CL   UNL     1      10.830  14.824  26.905  0.00  0.00    -0.084 Cl
ATOM     23  C   UNL     1      12.530  13.014  23.139  0.00  0.00    +0.105 A 
ATOM     24  C   UNL     1      11.324  13.713  23.093  0.00  0.00    +0.030 A 
ATOM     25  C   UNL     1      13.210  12.874  24.348  0.00  0.00    +0.030 A 
ATOM     26  C   UNL     1      10.798  14.273  24.258  0.00  0.00    +0.022 A 
ATOM     27  C   UNL     1      12.685  13.434  25.513  0.00  0.00    +0.022 A 
ATOM     28  C   UNL     1      11.479  14.134  25.468  0.00  0.00    +0.041 A 
ENDBRANCH   2  23
ENDBRANCH  11   2
ENDBRANCH  17  11
ENDBRANCH  15  17
TORSDOF 8
ENDMDL
MODEL 7
REMARK VINA RESULT:      -6.1     25.911     28.417
REMARK  Name = 40781553
REMARK  8 active torsions:
REMARK  status: ('A' for Active; 'I' for Inactive)
REMARK    1  A    between atoms: S_2  and  N_11
REMARK    2  A    between atoms: S_2  and  C_23
REMARK    3  A    between atoms: O_4  and  C_13
REMARK    4  A    between atoms: O_5  and  C_14
REMARK    5  A    between atoms: N_11  and  C_17
REMARK    6  A    between atoms: C_12  and  C_16
REMARK    7  A    between atoms: C_15  and  C_17
REMARK    8  A    between atoms: C_16  and  C_18
REMARK                            x       y       z     vdW  Elec       q    Type
REMARK                         _______ _______ _______ _____ _____    ______ ____
ROOT
ATOM      3  O   UNL     1      -4.525 -11.028  18.742  0.00  0.00    -0.366 OA
ATOM     12  C   UNL     1      -5.814 -11.593  19.041  0.00  0.00    +0.158 C 
ATOM     13  C   UNL     1      -6.199 -12.406  17.818  0.00  0.00    +0.175 C 
ATOM     14  C   UNL     1      -4.855 -12.949  17.379  0.00  0.00    +0.175 C 
ATOM     15  C   UNL     1      -3.932 -11.766  17.650  0.00  0.00    +0.165 C 
ENDROOT
BRANCH  13   4
ATOM      4  O   UNL     1      -7.137 -13.417  18.127  0.00  0.00    -0.387 OA
ATOM     29  H   UNL     1      -7.063 -13.601  19.078  0.00  0.00    +0.210 HD
ENDBRANCH  13   4
BRANCH  14   5
ATOM      5  O   UNL     1      -4.455 -14.026  18.225  0.00  0.00    -0.387 OA
ATOM     30  H   UNL     1      -5.259 -14.511  18.478  0.00  0.00    +0.210 HD
ENDBRANCH  14   5
BRANCH  12  16
ATOM     16  C   UNL     1      -6.798 -10.480  19.358  0.00  0.00    +0.130 C 
BRANCH  16  18
ATOM      6  O   UNL     1     -11.044  -8.811  17.196  0.00  0.00    -0.377 OA
ATOM      7  O   UNL     1      -8.530 -11.913  20.113  0.00  0.00    -0.276 OA
ATOM     10  N   UNL     1      -9.082 -10.415  18.427  0.00  0.00    -0.297 N 
ATOM     18  C   UNL     1      -8.211 -11.007  19.339  0.00  0.00    +0.218 C 
ATOM     19  C   UNL     1     -10.473 -10.863  18.347  0.00  0.00    +0.136 C 
ATOM     20  C   UNL     1      -8.708  -9.428  17.409  0.00  0.00    +0.136 C 
ATOM     21  C   UNL     1     -11.412  -9.668  18.280  0.00  0.00    +0.179 C 
ATOM     22  C   UNL     1      -9.723  -8.293  17.375  0.00  0.00    +0.179 C 
ENDBRANCH  16  18
ENDBRANCH  12  16
BRANCH  15  17
ATOM     17  C   UNL     1      -3.810 -10.821  16.463  0.00  0.00    +0.140 C 
BRANCH  17  11
ATOM     11  N   UNL     1      -3.491 -11.536  15.263  0.00  0.00    -0.187 NA
ATOM     31  H   UNL     1      -3.923 -12.462  15.153  0.00  0.00    +0.148 HD
BRANCH  11   2
ATOM      2  S   UNL     1      -2.022 -11.245  14.410  0.00  0.00    +0.058 S 
ATOM      8  O   UNL     1      -1.409 -12.522  14.097  0.00  0.00    -0.153 OA
ATOM      9  O   UNL     1      -1.254 -10.210  15.074  0.00  0.00    -0.153 OA
BRANCH   2  23
ATOM      1 CL   UNL     1      -4.182  -8.772   9.058  0.00  0.00    -0.084 Cl
ATOM     23  C   UNL     1      -2.630 -10.549  12.903  0.00  0.00    +0.105 A 
ATOM     24  C   UNL     1      -1.736 -10.077  11.942  0.00  0.00    +0.030 A 
ATOM     25  C   UNL     1      -4.004 -10.472  12.675  0.00  0.00    +0.030 A 
ATOM     26  C   UNL     1      -2.216  -9.527  10.753  0.00  0.00    +0.022 A 
ATOM     27  C   UNL     1      -4.484  -9.923  11.486  0.00  0.00    +0.022 A 
ATOM     28  C   UNL     1      -3.590  -9.450  10.525  0.00  0.00    +0.041 A 
ENDBRANCH   2  23
ENDBRANCH  11   2
ENDBRANCH  17  11
ENDBRANCH  15  17
TORSDOF 8
ENDMDL
MODEL 8
REMARK VINA RESULT:      -6.0     25.982     28.608
REMARK  Name = 40781553
REMARK  8 active torsions:
REMARK  status: ('A' for Active; 'I' for Inactive)
REMARK    1  A    between atoms: S_2  and  N_11
REMARK    2  A    between atoms: S_2  and  C_23
REMARK    3  A    between atoms: O_4  and  C_13
REMARK    4  A    between atoms: O_5  and  C_14
REMARK    5  A    between atoms: N_11  and  C_17
REMARK    6  A    between atoms: C_12  and  C_16
REMARK    7  A    between atoms: C_15  and  C_17
REMARK    8  A    between atoms: C_16  and  C_18
REMARK                            x       y       z     vdW  Elec       q    Type
REMARK                         _______ _______ _______ _____ _____    ______ ____
ROOT
ATOM      3  O   UNL     1      -4.506 -11.094  18.889  0.00  0.00    -0.366 OA
ATOM     12  C   UNL     1      -5.730 -11.754  19.253  0.00  0.00    +0.158 C 
ATOM     13  C   UNL     1      -6.157 -12.536  18.022  0.00  0.00    +0.175 C 
ATOM     14  C   UNL     1      -4.819 -12.970  17.460  0.00  0.00    +0.175 C 
ATOM     15  C   UNL     1      -3.953 -11.742  17.721  0.00  0.00    +0.165 C 
ENDROOT
BRANCH  13   4
ATOM      4  O   UNL     1      -7.003 -13.619  18.348  0.00  0.00    -0.387 OA
ATOM     29  H   UNL     1      -7.684 -13.284  18.955  0.00  0.00    +0.210 HD
ENDBRANCH  13   4
BRANCH  14   5
ATOM      5  O   UNL     1      -4.289 -14.054  18.220  0.00  0.00    -0.387 OA
ATOM     30  H   UNL     1      -3.345 -13.874  18.366  0.00  0.00    +0.210 HD
ENDBRANCH  14   5
BRANCH  12  16
ATOM     16  C   UNL     1      -6.755 -10.725  19.695  0.00  0.00    +0.130 C 
BRANCH  16  18
ATOM      6  O   UNL     1     -11.341 -12.147  18.130  0.00  0.00    -0.377 OA
ATOM      7  O   UNL     1      -7.120  -9.618  17.630  0.00  0.00    -0.276 OA
ATOM     10  N   UNL     1      -8.940 -10.732  18.547  0.00  0.00    -0.297 N 
ATOM     18  C   UNL     1      -7.614 -10.303  18.530  0.00  0.00    +0.218 C 
ATOM     19  C   UNL     1      -9.840 -10.372  17.452  0.00  0.00    +0.136 C 
ATOM     20  C   UNL     1      -9.591 -11.437  19.655  0.00  0.00    +0.136 C 
ATOM     21  C   UNL     1     -10.652 -11.581  17.012  0.00  0.00    +0.179 C 
ATOM     22  C   UNL     1     -10.419 -12.602  19.125  0.00  0.00    +0.179 C 
ENDBRANCH  16  18
ENDBRANCH  12  16
BRANCH  15  17
ATOM     17  C   UNL     1      -3.980 -10.739  16.576  0.00  0.00    +0.140 C 
BRANCH  17  11
ATOM     11  N   UNL     1      -3.735 -11.381  15.319  0.00  0.00    -0.187 NA
ATOM     31  H   UNL     1      -4.277 -12.232  15.126  0.00  0.00    +0.148 HD
BRANCH  11   2
ATOM      2  S   UNL     1      -2.228 -11.204  14.502  0.00  0.00    +0.058 S 
ATOM      8  O   UNL     1      -1.681 -12.524  14.249  0.00  0.00    -0.153 OA
ATOM      9  O   UNL     1      -1.420 -10.193  15.155  0.00  0.00    -0.153 OA
BRANCH   2  23
ATOM      1 CL   UNL     1      -4.089  -8.801   9.008  0.00  0.00    -0.084 Cl
ATOM     23  C   UNL     1      -2.752 -10.527  12.955  0.00  0.00    +0.105 A 
ATOM     24  C   UNL     1      -4.111 -10.452  12.652  0.00  0.00    +0.030 A 
ATOM     25  C   UNL     1      -1.806 -10.068  12.039  0.00  0.00    +0.030 A 
ATOM     26  C   UNL     1      -4.525  -9.918  11.431  0.00  0.00    +0.022 A 
ATOM     27  C   UNL     1      -2.220  -9.534  10.818  0.00  0.00    +0.022 A 
ATOM     28  C   UNL     1      -3.579  -9.459  10.514  0.00  0.00    +0.041 A 
ENDBRANCH   2  23
ENDBRANCH  11   2
ENDBRANCH  17  11
ENDBRANCH  15  17
TORSDOF 8
ENDMDL
MODEL 9
REMARK VINA RESULT:      -6.0     26.443     28.808
REMARK  Name = 40781553
REMARK  8 active torsions:
REMARK  status: ('A' for Active; 'I' for Inactive)
REMARK    1  A    between atoms: S_2  and  N_11
REMARK    2  A    between atoms: S_2  and  C_23
REMARK    3  A    between atoms: O_4  and  C_13
REMARK    4  A    between atoms: O_5  and  C_14
REMARK    5  A    between atoms: N_11  and  C_17
REMARK    6  A    between atoms: C_12  and  C_16
REMARK    7  A    between atoms: C_15  and  C_17
REMARK    8  A    between atoms: C_16  and  C_18
REMARK                            x       y       z     vdW  Elec       q    Type
REMARK                         _______ _______ _______ _____ _____    ______ ____
ROOT
ATOM      3  O   UNL     1      -6.348 -11.650  17.332  0.00  0.00    -0.366 OA
ATOM     12  C   UNL     1      -5.047 -11.338  16.802  0.00  0.00    +0.158 C 
ATOM     13  C   UNL     1      -4.114 -11.304  18.000  0.00  0.00    +0.175 C 
ATOM     14  C   UNL     1      -4.695 -12.400  18.869  0.00  0.00    +0.175 C 
ATOM     15  C   UNL     1      -6.193 -12.215  18.653  0.00  0.00    +0.165 C 
ENDROOT
BRANCH  13   4
ATOM      4  O   UNL     1      -2.770 -11.535  17.632  0.00  0.00    -0.387 OA
ATOM     29  H   UNL     1      -2.211 -11.006  18.225  0.00  0.00    +0.210 HD
ENDBRANCH  13   4
BRANCH  14   5
ATOM      5  O   UNL     1      -4.330 -13.682  18.360  0.00  0.00    -0.387 OA
ATOM     30  H   UNL     1      -4.831 -14.348  18.862  0.00  0.00    +0.210 HD
ENDBRANCH  14   5
BRANCH  12  16
ATOM     16  C   UNL     1      -5.105 -10.023  16.047  0.00  0.00    +0.130 C 
BRANCH  16  18
ATOM      6  O   UNL     1      -2.180 -10.555  11.965  0.00  0.00    -0.377 OA
ATOM      7  O   UNL     1      -6.577 -10.150  14.192  0.00  0.00    -0.276 OA
ATOM     10  N   UNL     1      -4.339 -10.608  13.775  0.00  0.00    -0.297 N 
ATOM     18  C   UNL     1      -5.415 -10.266  14.591  0.00  0.00    +0.218 C 
ATOM     19  C   UNL     1      -4.552 -10.855  12.349  0.00  0.00    +0.136 C 
ATOM     20  C   UNL     1      -2.973 -10.877  14.235  0.00  0.00    +0.136 C 
ATOM     21  C   UNL     1      -3.481 -10.158  11.523  0.00  0.00    +0.179 C 
ATOM     22  C   UNL     1      -1.964 -10.183  13.329  0.00  0.00    +0.179 C 
ENDBRANCH  16  18
ENDBRANCH  12  16
BRANCH  15  17
ATOM     17  C   UNL     1      -6.823 -11.249  19.648  0.00  0.00    +0.140 C 
BRANCH  17  11
ATOM     11  N   UNL     1      -7.807 -10.422  19.015  0.00  0.00    -0.187 NA
ATOM     31  H   UNL     1      -7.567  -9.429  18.903  0.00  0.00    +0.148 HD
BRANCH  11   2
ATOM      2  S   UNL     1      -9.481 -10.830  19.057  0.00  0.00    +0.058 S 
ATOM      8  O   UNL     1      -9.962 -10.668  20.416  0.00  0.00    -0.153 OA
ATOM      9  O   UNL     1      -9.713 -12.070  18.343  0.00  0.00    -0.153 OA
BRANCH   2  23
ATOM      1 CL   UNL     1     -11.948  -6.226  15.572  0.00  0.00    -0.084 Cl
ATOM     23  C   UNL     1     -10.176  -9.533  18.076  0.00  0.00    +0.105 A 
ATOM     24  C   UNL     1     -11.557  -9.460  17.895  0.00  0.00    +0.030 A 
ATOM     25  C   UNL     1      -9.343  -8.584  17.483  0.00  0.00    +0.030 A 
ATOM     26  C   UNL     1     -12.105  -8.437  17.120  0.00  0.00    +0.022 A 
ATOM     27  C   UNL     1      -9.891  -7.562  16.709  0.00  0.00    +0.022 A 
ATOM     28  C   UNL     1     -11.272  -7.488  16.527  0.00  0.00    +0.041 A 
ENDBRANCH   2  23
ENDBRANCH  11   2
ENDBRANCH  17  11
ENDBRANCH  15  17
TORSDOF 8
ENDMDL
MODEL 10
REMARK VINA RESULT:      -5.9     25.759     28.423
REMARK  Name = 40781553
REMARK  8 active torsions:
REMARK  status: ('A' for Active; 'I' for Inactive)
REMARK    1  A    between atoms: S_2  and  N_11
REMARK    2  A    between atoms: S_2  and  C_23
REMARK    3  A    between atoms: O_4  and  C_13
REMARK    4  A    between atoms: O_5  and  C_14
REMARK    5  A    between atoms: N_11  and  C_17
REMARK    6  A    between atoms: C_12  and  C_16
REMARK    7  A    between atoms: C_15  and  C_17
REMARK    8  A    between atoms: C_16  and  C_18
REMARK                            x       y       z     vdW  Elec       q    Type
REMARK                         _______ _______ _______ _____ _____    ______ ____
ROOT
ATOM      3  O   UNL     1      -3.760 -10.518  14.126  0.00  0.00    -0.366 OA
ATOM     12  C   UNL     1      -3.536 -10.850  15.507  0.00  0.00    +0.158 C 
ATOM     13  C   UNL     1      -2.094 -11.318  15.589  0.00  0.00    +0.175 C 
ATOM     14  C   UNL     1      -1.425 -10.420  14.569  0.00  0.00    +0.175 C 
ATOM     15  C   UNL     1      -2.482 -10.343  13.473  0.00  0.00    +0.165 C 
ENDROOT
BRANCH  13   4
ATOM      4  O   UNL     1      -1.564 -11.179  16.890  0.00  0.00    -0.387 OA
ATOM     29  H   UNL     1      -0.595 -11.183  16.812  0.00  0.00    +0.210 HD
ENDBRANCH  13   4
BRANCH  14   5
ATOM      5  O   UNL     1      -1.247  -9.109  15.104  0.00  0.00    -0.387 OA
ATOM     30  H   UNL     1      -0.298  -8.997  15.288  0.00  0.00    +0.210 HD
ENDBRANCH  14   5
BRANCH  12  16
ATOM     16  C   UNL     1      -4.537 -11.903  15.948  0.00  0.00    +0.130 C 
BRANCH  16  18
ATOM      6  O   UNL     1      -7.009 -10.721  20.189  0.00  0.00    -0.377 OA
ATOM      7  O   UNL     1      -6.683 -11.154  15.274  0.00  0.00    -0.276 OA
ATOM     10  N   UNL     1      -6.140 -10.867  17.513  0.00  0.00    -0.297 N 
ATOM     18  C   UNL     1      -5.883 -11.275  16.205  0.00  0.00    +0.218 C 
ATOM     19  C   UNL     1      -7.424 -10.254  17.850  0.00  0.00    +0.136 C 
ATOM     20  C   UNL     1      -5.171 -10.880  18.614  0.00  0.00    +0.136 C 
ATOM     21  C   UNL     1      -7.973 -10.844  19.140  0.00  0.00    +0.179 C 
ATOM     22  C   UNL     1      -5.813 -11.440  19.876  0.00  0.00    +0.179 C 
ENDBRANCH  16  18
ENDBRANCH  12  16
BRANCH  15  17
ATOM     17  C   UNL     1      -2.339 -11.442  12.429  0.00  0.00    +0.140 C 
BRANCH  17  11
ATOM     11  N   UNL     1      -3.382 -11.365  11.450  0.00  0.00    -0.187 NA
ATOM     31  H   UNL     1      -3.634 -12.243  10.979  0.00  0.00    +0.148 HD
BRANCH  11   2
ATOM      2  S   UNL     1      -3.718  -9.897  10.612  0.00  0.00    +0.058 S 
ATOM      8  O   UNL     1      -2.464  -9.215  10.354  0.00  0.00    -0.153 OA
ATOM      9  O   UNL     1      -4.812  -9.193  11.253  0.00  0.00    -0.153 OA
BRANCH   2  23
ATOM      1 CL   UNL     1      -5.895 -12.078   5.142  0.00  0.00    -0.084 Cl
ATOM     23  C   UNL     1      -4.331 -10.511   9.072  0.00  0.00    +0.105 A 
ATOM     24  C   UNL     1      -4.176 -11.859   8.748  0.00  0.00    +0.030 A 
ATOM     25  C   UNL     1      -4.971  -9.648   8.182  0.00  0.00    +0.030 A 
ATOM     26  C   UNL     1      -4.659 -12.343   7.532  0.00  0.00    +0.022 A 
ATOM     27  C   UNL     1      -5.454 -10.133   6.967  0.00  0.00    +0.022 A 
ATOM     28  C   UNL     1      -5.298 -11.480   6.641  0.00  0.00    +0.041 A 
ENDBRANCH   2  23
ENDBRANCH  11   2
ENDBRANCH  17  11
ENDBRANCH  15  17
TORSDOF 8
ENDMDL
