REMARK  Name = 75536765
REMARK  7 active torsions:
REMARK  status: ('A' for Active; 'I' for Inactive)
REMARK    1  A    between atoms: O_2  and  C_8
REMARK    2  A    between atoms: N_4  and  C_7
REMARK    3  A    between atoms: N_4  and  C_12
REMARK    4  A    between atoms: N_4  and  C_13
REMARK    5  A    between atoms: N_5  and  C_11
REMARK    6  A    between atoms: N_6  and  C_15
REMARK    7  A    between atoms: C_9  and  C_11
REMARK                            x       y       z     vdW  Elec       q    Type
REMARK                         _______ _______ _______ _____ _____    ______ ____
ROOT
ATOM      3  O   UNL     1       1.391   1.407   0.290  0.00  0.00    -0.253 OA
ATOM      5  N   UNL     1       0.349  -0.416   1.259  0.00  0.00    -0.297 N 
ATOM      6  N   UNL     1       2.553  -0.607   0.614  0.00  0.00    -0.269 N 
ATOM     14  C   UNL     1       1.445   0.242   0.677  0.00  0.00    +0.304 C 
ATOM     22  H   UNL     1       0.463  -1.384   1.543  0.00  0.00    +0.150 HD
ATOM     23  H   UNL     1       2.428  -1.547   0.979  0.00  0.00    +0.156 HD
ENDROOT
BRANCH   6  15
ATOM     15  C   UNL     1       3.838  -0.319   0.099  0.00  0.00    +0.035 A 
ATOM     16  C   UNL     1       4.832  -1.298   0.116  0.00  0.00    +0.023 A 
ATOM     17  C   UNL     1       4.113   0.944  -0.427  0.00  0.00    +0.023 A 
ATOM     18  C   UNL     1       6.100  -1.015  -0.392  0.00  0.00    +0.002 A 
ATOM     19  C   UNL     1       5.381   1.227  -0.934  0.00  0.00    +0.002 A 
ATOM     20  C   UNL     1       6.374   0.248  -0.917  0.00  0.00    +0.000 A 
ENDBRANCH   6  15
BRANCH   5  11
ATOM     11  C   UNL     1      -0.930   0.202   1.458  0.00  0.00    +0.140 C 
BRANCH  11   9
ATOM      1  O   UNL     1      -2.069  -1.407   0.058  0.00  0.00    -0.371 OA
ATOM      7  C   UNL     1      -4.039  -0.216  -0.523  0.00  0.00    +0.113 C 
ATOM      8  C   UNL     1      -3.209   0.633   0.422  0.00  0.00    +0.164 C 
ATOM      9  C   UNL     1      -1.835  -0.003   0.256  0.00  0.00    +0.165 C 
ATOM     10  C   UNL     1      -3.454  -1.597  -0.281  0.00  0.00    +0.181 C 
BRANCH   7   4
ATOM      4  N   UNL     1      -5.468  -0.153  -0.262  0.00  0.00    -0.301 NA
ATOM     12  C   UNL     1      -5.973   1.210  -0.452  0.00  0.00    +0.105 C 
ATOM     13  C   UNL     1      -6.198  -1.085  -1.126  0.00  0.00    +0.105 C 
ENDBRANCH   7   4
BRANCH   8   2
ATOM      2  O   UNL     1      -3.203   2.001   0.065  0.00  0.00    -0.388 OA
ATOM     21  H   UNL     1      -2.894   2.076  -0.854  0.00  0.00    +0.210 HD
ENDBRANCH   8   2
ENDBRANCH  11   9
ENDBRANCH   5  11
TORSDOF 5
