MODEL 1
REMARK VINA RESULT:      -6.8      0.000      0.000
REMARK  Name = 11865521
REMARK  10 active torsions:
REMARK  status: ('A' for Active; 'I' for Inactive)
REMARK    1  A    between atoms: O_1  and  C_11
REMARK    2  A    between atoms: O_2  and  C_13
REMARK    3  A    between atoms: N_7  and  C_12
REMARK    4  A    between atoms: N_8  and  C_19
REMARK    5  A    between atoms: N_9  and  C_21
REMARK    6  A    between atoms: C_15  and  C_17
REMARK    7  A    between atoms: C_19  and  C_20
REMARK    8  A    between atoms: C_20  and  C_24
REMARK    9  A    between atoms: C_27  and  C_28
REMARK   10  A    between atoms: C_28  and  C_29
REMARK                            x       y       z     vdW  Elec       q    Type
REMARK                         _______ _______ _______ _____ _____    ______ ____
ROOT
ATOM     11  C   UNL     1      20.508   7.373  23.636  0.00  0.00    +0.167 C 
ATOM     12  C   UNL     1      19.978   6.815  22.301  0.00  0.00    +0.129 C 
ATOM     13  C   UNL     1      22.039   7.309  23.705  0.00  0.00    +0.149 C 
ATOM     14  C   UNL     1      22.570   5.883  23.475  0.00  0.00    +0.074 C 
ATOM     15  C   UNL     1      21.810   5.127  22.422  0.00  0.00    +0.015 C 
ATOM     16  C   UNL     1      20.653   5.537  21.881  0.00  0.00    +0.006 C 
ENDROOT
BRANCH  12   7
ATOM      4  O   UNL     1      18.017   7.969  20.561  0.00  0.00    -0.252 OA
ATOM      7  N   UNL     1      18.553   6.599  22.344  0.00  0.00    -0.290 N 
ATOM      9  N   UNL     1      16.349   6.808  21.734  0.00  0.00    -0.269 N 
ATOM     18  C   UNL     1      17.659   7.203  21.452  0.00  0.00    +0.304 C 
ATOM     30  H   UNL     1      18.171   6.020  23.088  0.00  0.00    +0.151 HD
ATOM     34  H   UNL     1      16.224   6.163  22.511  0.00  0.00    +0.156 HD
BRANCH   9  21
ATOM     21  C   UNL     1      15.163   7.194  21.067  0.00  0.00    +0.035 A 
ATOM     22  C   UNL     1      14.258   8.052  21.693  0.00  0.00    +0.024 A 
ATOM     23  C   UNL     1      14.898   6.715  19.784  0.00  0.00    +0.024 A 
ATOM     25  C   UNL     1      13.088   8.432  21.035  0.00  0.00    +0.013 A 
ATOM     26  C   UNL     1      13.728   7.095  19.126  0.00  0.00    +0.013 A 
ATOM     27  C   UNL     1      12.823   7.953  19.751  0.00  0.00    +0.017 A 
BRANCH  27  28
ATOM      6  O   UNL     1      10.534   8.520  19.686  0.00  0.00    -0.292 OA
ATOM     28  C   UNL     1      11.603   8.350  19.066  0.00  0.00    +0.160 C 
ATOM     29  C   UNL     1      11.607   8.571  17.557  0.00  0.00    +0.091 C 
ENDBRANCH  27  28
ENDBRANCH   9  21
ENDBRANCH  12   7
BRANCH  15  17
ATOM      3  O   UNL     1      21.693   3.076  21.283  0.00  0.00    -0.271 OA
ATOM      8  N   UNL     1      23.705   3.700  22.283  0.00  0.00    -0.311 N 
ATOM     17  C   UNL     1      22.377   3.867  21.932  0.00  0.00    +0.240 C 
ATOM     33  H   UNL     1      24.179   4.423  22.816  0.00  0.00    +0.149 HD
BRANCH   8  19
ATOM     19  C   UNL     1      24.478   2.535  21.916  0.00  0.00    +0.113 C 
BRANCH  19  20
ATOM     20  C   UNL     1      25.565   2.861  20.902  0.00  0.00    +0.114 C 
BRANCH  20  24
ATOM      5  O   UNL     1      25.086   4.962  19.782  0.00  0.00    -0.276 OA
ATOM     10  N   UNL     1      24.620   2.992  18.693  0.00  0.00    -0.329 N 
ATOM     24  C   UNL     1      25.080   3.735  19.759  0.00  0.00    +0.212 C 
ATOM     35  H   UNL     1      24.261   3.444  17.858  0.00  0.00    +0.145 HD
ATOM     36  H   UNL     1      24.622   1.977  18.697  0.00  0.00    +0.145 HD
ENDBRANCH  20  24
ENDBRANCH  19  20
ENDBRANCH   8  19
ENDBRANCH  15  17
BRANCH  11   1
ATOM      1  O   UNL     1      19.968   6.615  24.721  0.00  0.00    -0.387 OA
ATOM     31  H   UNL     1      20.473   5.786  24.779  0.00  0.00    +0.210 HD
ENDBRANCH  11   1
BRANCH  13   2
ATOM      2  O   UNL     1      22.611   8.203  22.753  0.00  0.00    -0.389 OA
ATOM     32  H   UNL     1      21.880   8.655  22.297  0.00  0.00    +0.210 HD
ENDBRANCH  13   2
TORSDOF 9
ENDMDL
MODEL 2
REMARK VINA RESULT:      -6.8      3.506     11.181
REMARK  Name = 11865521
REMARK  10 active torsions:
REMARK  status: ('A' for Active; 'I' for Inactive)
REMARK    1  A    between atoms: O_1  and  C_11
REMARK    2  A    between atoms: O_2  and  C_13
REMARK    3  A    between atoms: N_7  and  C_12
REMARK    4  A    between atoms: N_8  and  C_19
REMARK    5  A    between atoms: N_9  and  C_21
REMARK    6  A    between atoms: C_15  and  C_17
REMARK    7  A    between atoms: C_19  and  C_20
REMARK    8  A    between atoms: C_20  and  C_24
REMARK    9  A    between atoms: C_27  and  C_28
REMARK   10  A    between atoms: C_28  and  C_29
REMARK                            x       y       z     vdW  Elec       q    Type
REMARK                         _______ _______ _______ _____ _____    ______ ____
ROOT
ATOM     11  C   UNL     1      13.240   7.174  20.003  0.00  0.00    +0.167 C 
ATOM     12  C   UNL     1      14.054   8.372  20.528  0.00  0.00    +0.129 C 
ATOM     13  C   UNL     1      11.866   7.612  19.480  0.00  0.00    +0.149 C 
ATOM     14  C   UNL     1      11.060   8.379  20.544  0.00  0.00    +0.074 C 
ATOM     15  C   UNL     1      11.902   9.303  21.378  0.00  0.00    +0.015 C 
ATOM     16  C   UNL     1      13.243   9.316  21.375  0.00  0.00    +0.006 C 
ENDROOT
BRANCH  12   7
ATOM      4  O   UNL     1      16.448   7.203  19.476  0.00  0.00    -0.252 OA
ATOM      7  N   UNL     1      15.206   7.942  21.281  0.00  0.00    -0.290 N 
ATOM      9  N   UNL     1      17.293   7.062  21.661  0.00  0.00    -0.269 N 
ATOM     18  C   UNL     1      16.342   7.379  20.688  0.00  0.00    +0.304 C 
ATOM     30  H   UNL     1      15.175   8.003  22.295  0.00  0.00    +0.151 HD
ATOM     34  H   UNL     1      17.047   7.273  22.625  0.00  0.00    +0.156 HD
BRANCH   9  21
ATOM     21  C   UNL     1      18.568   6.479  21.473  0.00  0.00    +0.035 A 
ATOM     22  C   UNL     1      18.818   5.698  20.344  0.00  0.00    +0.024 A 
ATOM     23  C   UNL     1      19.575   6.685  22.416  0.00  0.00    +0.024 A 
ATOM     25  C   UNL     1      20.076   5.123  20.159  0.00  0.00    +0.013 A 
ATOM     26  C   UNL     1      20.832   6.110  22.231  0.00  0.00    +0.013 A 
ATOM     27  C   UNL     1      21.083   5.329  21.102  0.00  0.00    +0.017 A 
BRANCH  27  28
ATOM      6  O   UNL     1      23.335   5.374  20.403  0.00  0.00    -0.292 OA
ATOM     28  C   UNL     1      22.394   4.729  20.908  0.00  0.00    +0.160 C 
ATOM     29  C   UNL     1      22.648   3.284  21.324  0.00  0.00    +0.091 C 
ENDBRANCH  27  28
ENDBRANCH   9  21
ENDBRANCH  12   7
BRANCH  15  17
ATOM      3  O   UNL     1      10.513   9.896  23.177  0.00  0.00    -0.271 OA
ATOM      8  N   UNL     1      11.459  11.584  21.877  0.00  0.00    -0.311 N 
ATOM     17  C   UNL     1      11.218  10.271  22.241  0.00  0.00    +0.240 C 
ATOM     33  H   UNL     1      12.068  11.783  21.088  0.00  0.00    +0.149 HD
BRANCH   8  19
ATOM     19  C   UNL     1      10.892  12.714  22.576  0.00  0.00    +0.113 C 
BRANCH  19  20
ATOM     20  C   UNL     1      11.700  13.093  23.809  0.00  0.00    +0.114 C 
BRANCH  20  24
ATOM      5  O   UNL     1      10.361  13.995  25.623  0.00  0.00    -0.276 OA
ATOM     10  N   UNL     1      10.855  11.750  25.619  0.00  0.00    -0.329 N 
ATOM     24  C   UNL     1      10.900  13.026  25.097  0.00  0.00    +0.212 C 
ATOM     35  H   UNL     1      10.357  11.557  26.481  0.00  0.00    +0.145 HD
ATOM     36  H   UNL     1      11.311  10.963  25.168  0.00  0.00    +0.145 HD
ENDBRANCH  20  24
ENDBRANCH  19  20
ENDBRANCH   8  19
ENDBRANCH  15  17
BRANCH  11   1
ATOM      1  O   UNL     1      13.049   6.225  21.055  0.00  0.00    -0.387 OA
ATOM     31  H   UNL     1      12.421   5.555  20.735  0.00  0.00    +0.210 HD
ENDBRANCH  11   1
BRANCH  13   2
ATOM      2  O   UNL     1      12.019   8.414  18.311  0.00  0.00    -0.389 OA
ATOM     32  H   UNL     1      12.931   8.750  18.302  0.00  0.00    +0.210 HD
ENDBRANCH  13   2
TORSDOF 9
ENDMDL
MODEL 3
REMARK VINA RESULT:      -6.3     28.641     31.364
REMARK  Name = 11865521
REMARK  10 active torsions:
REMARK  status: ('A' for Active; 'I' for Inactive)
REMARK    1  A    between atoms: O_1  and  C_11
REMARK    2  A    between atoms: O_2  and  C_13
REMARK    3  A    between atoms: N_7  and  C_12
REMARK    4  A    between atoms: N_8  and  C_19
REMARK    5  A    between atoms: N_9  and  C_21
REMARK    6  A    between atoms: C_15  and  C_17
REMARK    7  A    between atoms: C_19  and  C_20
REMARK    8  A    between atoms: C_20  and  C_24
REMARK    9  A    between atoms: C_27  and  C_28
REMARK   10  A    between atoms: C_28  and  C_29
REMARK                            x       y       z     vdW  Elec       q    Type
REMARK                         _______ _______ _______ _____ _____    ______ ____
ROOT
ATOM     11  C   UNL     1      -2.154 -10.998  13.596  0.00  0.00    +0.167 C 
ATOM     12  C   UNL     1      -3.647 -10.956  13.215  0.00  0.00    +0.129 C 
ATOM     13  C   UNL     1      -1.938 -11.693  14.946  0.00  0.00    +0.149 C 
ATOM     14  C   UNL     1      -2.757 -11.038  16.072  0.00  0.00    +0.074 C 
ATOM     15  C   UNL     1      -4.128 -10.604  15.636  0.00  0.00    +0.015 C 
ATOM     16  C   UNL     1      -4.543 -10.571  14.361  0.00  0.00    +0.006 C 
ENDROOT
BRANCH  12   7
ATOM      4  O   UNL     1      -5.463 -11.369  11.038  0.00  0.00    -0.252 OA
ATOM      7  N   UNL     1      -3.888 -10.060  12.111  0.00  0.00    -0.290 N 
ATOM      9  N   UNL     1      -4.820  -9.291  10.158  0.00  0.00    -0.269 N 
ATOM     18  C   UNL     1      -4.797 -10.337  11.084  0.00  0.00    +0.304 C 
ATOM     30  H   UNL     1      -3.337  -9.208  12.047  0.00  0.00    +0.151 HD
ATOM     34  H   UNL     1      -4.204  -8.503  10.345  0.00  0.00    +0.156 HD
BRANCH   9  21
ATOM     21  C   UNL     1      -5.600  -9.187   8.983  0.00  0.00    +0.035 A 
ATOM     22  C   UNL     1      -5.222  -9.877   7.831  0.00  0.00    +0.024 A 
ATOM     23  C   UNL     1      -6.748  -8.394   8.976  0.00  0.00    +0.024 A 
ATOM     25  C   UNL     1      -5.991  -9.774   6.672  0.00  0.00    +0.013 A 
ATOM     26  C   UNL     1      -7.518  -8.291   7.818  0.00  0.00    +0.013 A 
ATOM     27  C   UNL     1      -7.139  -8.981   6.665  0.00  0.00    +0.017 A 
BRANCH  27  28
ATOM      6  O   UNL     1      -7.827  -9.696   4.525  0.00  0.00    -0.292 OA
ATOM     28  C   UNL     1      -7.941  -8.874   5.457  0.00  0.00    +0.160 C 
ATOM     29  C   UNL     1      -8.952  -7.743   5.302  0.00  0.00    +0.091 C 
ENDBRANCH  27  28
ENDBRANCH   9  21
ENDBRANCH  12   7
BRANCH  15  17
ATOM      3  O   UNL     1      -5.975  -9.390  16.431  0.00  0.00    -0.271 OA
ATOM      8  N   UNL     1      -4.872 -10.846  17.880  0.00  0.00    -0.311 N 
ATOM     17  C   UNL     1      -5.089 -10.209  16.671  0.00  0.00    +0.240 C 
ATOM     33  H   UNL     1      -4.113 -11.515  17.967  0.00  0.00    +0.149 HD
BRANCH   8  19
ATOM     19  C   UNL     1      -5.689 -10.617  19.051  0.00  0.00    +0.113 C 
BRANCH  19  20
ATOM     20  C   UNL     1      -6.875 -11.568  19.119  0.00  0.00    +0.114 C 
BRANCH  20  24
ATOM      5  O   UNL     1      -9.079 -11.157  20.055  0.00  0.00    -0.276 OA
ATOM     10  N   UNL     1      -8.345  -9.837  18.322  0.00  0.00    -0.329 N 
ATOM     24  C   UNL     1      -8.211 -10.856  19.241  0.00  0.00    +0.212 C 
ATOM     35  H   UNL     1      -9.190  -9.276  18.285  0.00  0.00    +0.145 HD
ATOM     36  H   UNL     1      -7.615  -9.608  17.655  0.00  0.00    +0.145 HD
ENDBRANCH  20  24
ENDBRANCH  19  20
ENDBRANCH   8  19
ENDBRANCH  15  17
BRANCH  11   1
ATOM      1  O   UNL     1      -1.643  -9.666  13.678  0.00  0.00    -0.387 OA
ATOM     31  H   UNL     1      -1.755  -9.255  12.804  0.00  0.00    +0.210 HD
ENDBRANCH  11   1
BRANCH  13   2
ATOM      2  O   UNL     1      -2.266 -13.077  14.844  0.00  0.00    -0.389 OA
ATOM     32  H   UNL     1      -1.471 -13.586  15.079  0.00  0.00    +0.210 HD
ENDBRANCH  13   2
TORSDOF 9
ENDMDL
MODEL 4
REMARK VINA RESULT:      -6.2     28.197     31.470
REMARK  Name = 11865521
REMARK  10 active torsions:
REMARK  status: ('A' for Active; 'I' for Inactive)
REMARK    1  A    between atoms: O_1  and  C_11
REMARK    2  A    between atoms: O_2  and  C_13
REMARK    3  A    between atoms: N_7  and  C_12
REMARK    4  A    between atoms: N_8  and  C_19
REMARK    5  A    between atoms: N_9  and  C_21
REMARK    6  A    between atoms: C_15  and  C_17
REMARK    7  A    between atoms: C_19  and  C_20
REMARK    8  A    between atoms: C_20  and  C_24
REMARK    9  A    between atoms: C_27  and  C_28
REMARK   10  A    between atoms: C_28  and  C_29
REMARK                            x       y       z     vdW  Elec       q    Type
REMARK                         _______ _______ _______ _____ _____    ______ ____
ROOT
ATOM     11  C   UNL     1      -6.911 -11.179  17.628  0.00  0.00    +0.167 C 
ATOM     12  C   UNL     1      -6.473  -9.792  17.120  0.00  0.00    +0.129 C 
ATOM     13  C   UNL     1      -5.773 -11.892  18.368  0.00  0.00    +0.149 C 
ATOM     14  C   UNL     1      -4.507 -12.016  17.502  0.00  0.00    +0.074 C 
ATOM     15  C   UNL     1      -4.240 -10.801  16.659  0.00  0.00    +0.015 C 
ATOM     16  C   UNL     1      -5.108  -9.793  16.486  0.00  0.00    +0.006 C 
ENDROOT
BRANCH  12   7
ATOM      4  O   UNL     1      -9.173  -9.010  17.676  0.00  0.00    -0.252 OA
ATOM      7  N   UNL     1      -7.423  -9.245  16.183  0.00  0.00    -0.290 N 
ATOM      9  N   UNL     1      -9.415  -8.387  15.426  0.00  0.00    -0.269 N 
ATOM     18  C   UNL     1      -8.729  -8.886  16.536  0.00  0.00    +0.304 C 
ATOM     30  H   UNL     1      -7.151  -9.163  15.207  0.00  0.00    +0.151 HD
ATOM     34  H   UNL     1      -8.899  -8.351  14.550  0.00  0.00    +0.156 HD
BRANCH   9  21
ATOM     21  C   UNL     1     -10.748  -7.920  15.366  0.00  0.00    +0.035 A 
ATOM     22  C   UNL     1     -11.766  -8.768  14.925  0.00  0.00    +0.024 A 
ATOM     23  C   UNL     1     -11.046  -6.612  15.747  0.00  0.00    +0.024 A 
ATOM     25  C   UNL     1     -13.081  -8.306  14.866  0.00  0.00    +0.013 A 
ATOM     26  C   UNL     1     -12.361  -6.151  15.687  0.00  0.00    +0.013 A 
ATOM     27  C   UNL     1     -13.379  -6.998  15.246  0.00  0.00    +0.017 A 
BRANCH  27  28
ATOM      6  O   UNL     1     -15.172  -5.879  14.200  0.00  0.00    -0.292 OA
ATOM     28  C   UNL     1     -14.750  -6.518  15.185  0.00  0.00    +0.160 C 
ATOM     29  C   UNL     1     -15.712  -6.790  16.337  0.00  0.00    +0.091 C 
ENDBRANCH  27  28
ENDBRANCH   9  21
ENDBRANCH  12   7
BRANCH  15  17
ATOM      3  O   UNL     1      -1.892 -10.819  16.630  0.00  0.00    -0.271 OA
ATOM      8  N   UNL     1      -3.043 -10.446  14.637  0.00  0.00    -0.311 N 
ATOM     17  C   UNL     1      -2.938 -10.694  15.994  0.00  0.00    +0.240 C 
ATOM     33  H   UNL     1      -3.962 -10.369  14.209  0.00  0.00    +0.149 HD
BRANCH   8  19
ATOM     19  C   UNL     1      -1.896 -10.297  13.770  0.00  0.00    +0.113 C 
BRANCH  19  20
ATOM     20  C   UNL     1      -1.890 -11.320  12.643  0.00  0.00    +0.114 C 
BRANCH  20  24
ATOM      5  O   UNL     1      -3.231 -13.183  13.436  0.00  0.00    -0.276 OA
ATOM     10  N   UNL     1      -0.968 -13.481  13.166  0.00  0.00    -0.329 N 
ATOM     24  C   UNL     1      -2.131 -12.742  13.118  0.00  0.00    +0.212 C 
ATOM     35  H   UNL     1      -0.977 -14.449  13.469  0.00  0.00    +0.145 HD
ATOM     36  H   UNL     1      -0.067 -13.094  12.901  0.00  0.00    +0.145 HD
ENDBRANCH  20  24
ENDBRANCH  19  20
ENDBRANCH   8  19
ENDBRANCH  15  17
BRANCH  11   1
ATOM      1  O   UNL     1      -7.317 -11.988  16.521  0.00  0.00    -0.387 OA
ATOM     31  H   UNL     1      -6.791 -12.806  16.548  0.00  0.00    +0.210 HD
ENDBRANCH  11   1
BRANCH  13   2
ATOM      2  O   UNL     1      -5.470 -11.206  19.580  0.00  0.00    -0.389 OA
ATOM     32  H   UNL     1      -4.534 -11.373  19.787  0.00  0.00    +0.210 HD
ENDBRANCH  13   2
TORSDOF 9
ENDMDL
MODEL 5
REMARK VINA RESULT:      -6.0     28.853     33.873
REMARK  Name = 11865521
REMARK  10 active torsions:
REMARK  status: ('A' for Active; 'I' for Inactive)
REMARK    1  A    between atoms: O_1  and  C_11
REMARK    2  A    between atoms: O_2  and  C_13
REMARK    3  A    between atoms: N_7  and  C_12
REMARK    4  A    between atoms: N_8  and  C_19
REMARK    5  A    between atoms: N_9  and  C_21
REMARK    6  A    between atoms: C_15  and  C_17
REMARK    7  A    between atoms: C_19  and  C_20
REMARK    8  A    between atoms: C_20  and  C_24
REMARK    9  A    between atoms: C_27  and  C_28
REMARK   10  A    between atoms: C_28  and  C_29
REMARK                            x       y       z     vdW  Elec       q    Type
REMARK                         _______ _______ _______ _____ _____    ______ ____
ROOT
ATOM     11  C   UNL     1     -10.442 -11.332  20.063  0.00  0.00    +0.167 C 
ATOM     12  C   UNL     1     -10.305 -11.068  18.551  0.00  0.00    +0.129 C 
ATOM     13  C   UNL     1     -11.872 -11.742  20.436  0.00  0.00    +0.149 C 
ATOM     14  C   UNL     1     -12.910 -10.702  19.981  0.00  0.00    +0.074 C 
ATOM     15  C   UNL     1     -12.602 -10.100  18.638  0.00  0.00    +0.015 C 
ATOM     16  C   UNL     1     -11.443 -10.263  17.983  0.00  0.00    +0.006 C 
ENDROOT
BRANCH  12   7
ATOM      4  O   UNL     1      -8.128 -12.141  17.031  0.00  0.00    -0.252 OA
ATOM      7  N   UNL     1      -9.063 -10.405  18.238  0.00  0.00    -0.290 N 
ATOM      9  N   UNL     1      -6.966 -10.126  17.343  0.00  0.00    -0.269 N 
ATOM     18  C   UNL     1      -8.045 -11.002  17.485  0.00  0.00    +0.304 C 
ATOM     30  H   UNL     1      -8.894  -9.480  18.623  0.00  0.00    +0.151 HD
ATOM     34  H   UNL     1      -7.059  -9.213  17.783  0.00  0.00    +0.156 HD
BRANCH   9  21
ATOM     21  C   UNL     1      -5.750 -10.349  16.657  0.00  0.00    +0.035 A 
ATOM     22  C   UNL     1      -4.594 -10.665  17.371  0.00  0.00    +0.024 A 
ATOM     23  C   UNL     1      -5.707 -10.252  15.266  0.00  0.00    +0.024 A 
ATOM     25  C   UNL     1      -3.394 -10.884  16.693  0.00  0.00    +0.013 A 
ATOM     26  C   UNL     1      -4.507 -10.472  14.588  0.00  0.00    +0.013 A 
ATOM     27  C   UNL     1      -3.351 -10.788  15.302  0.00  0.00    +0.017 A 
BRANCH  27  28
ATOM      6  O   UNL     1      -1.084 -11.430  15.191  0.00  0.00    -0.292 OA
ATOM     28  C   UNL     1      -2.100 -11.017  14.597  0.00  0.00    +0.160 C 
ATOM     29  C   UNL     1      -2.004 -10.757  13.097  0.00  0.00    +0.091 C 
ENDBRANCH  27  28
ENDBRANCH   9  21
ENDBRANCH  12   7
BRANCH  15  17
ATOM      3  O   UNL     1     -14.782  -9.247  18.445  0.00  0.00    -0.271 OA
ATOM      8  N   UNL     1     -13.189  -8.648  16.852  0.00  0.00    -0.311 N 
ATOM     17  C   UNL     1     -13.642  -9.298  17.986  0.00  0.00    +0.240 C 
ATOM     33  H   UNL     1     -12.220  -8.752  16.565  0.00  0.00    +0.149 HD
BRANCH   8  19
ATOM     19  C   UNL     1     -14.031  -7.800  16.039  0.00  0.00    +0.113 C 
BRANCH  19  20
ATOM     20  C   UNL     1     -13.311  -6.538  15.585  0.00  0.00    +0.114 C 
BRANCH  20  24
ATOM      5  O   UNL     1     -11.188  -7.489  14.889  0.00  0.00    -0.276 OA
ATOM     10  N   UNL     1     -11.189  -5.793  16.441  0.00  0.00    -0.329 N 
ATOM     24  C   UNL     1     -11.799  -6.677  15.577  0.00  0.00    +0.212 C 
ATOM     35  H   UNL     1     -10.179  -5.776  16.543  0.00  0.00    +0.145 HD
ATOM     36  H   UNL     1     -11.716  -5.132  17.003  0.00  0.00    +0.145 HD
ENDBRANCH  20  24
ENDBRANCH  19  20
ENDBRANCH   8  19
ENDBRANCH  15  17
BRANCH  11   1
ATOM      1  O   UNL     1     -10.100 -10.150  20.789  0.00  0.00    -0.387 OA
ATOM     31  H   UNL     1     -10.176  -9.397  20.178  0.00  0.00    +0.210 HD
ENDBRANCH  11   1
BRANCH  13   2
ATOM      2  O   UNL     1     -12.179 -13.017  19.874  0.00  0.00    -0.389 OA
ATOM     32  H   UNL     1     -11.755 -13.063  19.000  0.00  0.00    +0.210 HD
ENDBRANCH  13   2
TORSDOF 9
ENDMDL
MODEL 6
REMARK VINA RESULT:      -6.0     23.621     26.675
REMARK  Name = 11865521
REMARK  10 active torsions:
REMARK  status: ('A' for Active; 'I' for Inactive)
REMARK    1  A    between atoms: O_1  and  C_11
REMARK    2  A    between atoms: O_2  and  C_13
REMARK    3  A    between atoms: N_7  and  C_12
REMARK    4  A    between atoms: N_8  and  C_19
REMARK    5  A    between atoms: N_9  and  C_21
REMARK    6  A    between atoms: C_15  and  C_17
REMARK    7  A    between atoms: C_19  and  C_20
REMARK    8  A    between atoms: C_20  and  C_24
REMARK    9  A    between atoms: C_27  and  C_28
REMARK   10  A    between atoms: C_28  and  C_29
REMARK                            x       y       z     vdW  Elec       q    Type
REMARK                         _______ _______ _______ _____ _____    ______ ____
ROOT
ATOM     11  C   UNL     1      19.563  -3.498  -1.856  0.00  0.00    +0.167 C 
ATOM     12  C   UNL     1      18.516  -4.485  -1.304  0.00  0.00    +0.129 C 
ATOM     13  C   UNL     1      18.903  -2.360  -2.644  0.00  0.00    +0.149 C 
ATOM     14  C   UNL     1      18.014  -2.885  -3.784  0.00  0.00    +0.074 C 
ATOM     15  C   UNL     1      17.242  -4.121  -3.417  0.00  0.00    +0.015 C 
ATOM     16  C   UNL     1      17.450  -4.842  -2.305  0.00  0.00    +0.006 C 
ENDROOT
BRANCH  12   7
ATOM      4  O   UNL     1      19.593  -4.940   1.311  0.00  0.00    -0.252 OA
ATOM      7  N   UNL     1      19.131  -5.698  -0.824  0.00  0.00    -0.290 N 
ATOM      9  N   UNL     1      20.167  -7.118   0.654  0.00  0.00    -0.269 N 
ATOM     18  C   UNL     1      19.633  -5.840   0.475  0.00  0.00    +0.304 C 
ATOM     30  H   UNL     1      19.253  -6.472  -1.472  0.00  0.00    +0.151 HD
ATOM     34  H   UNL     1      20.121  -7.748  -0.144  0.00  0.00    +0.156 HD
BRANCH   9  21
ATOM     21  C   UNL     1      20.768  -7.654   1.817  0.00  0.00    +0.035 A 
ATOM     22  C   UNL     1      21.753  -6.930   2.490  0.00  0.00    +0.024 A 
ATOM     23  C   UNL     1      20.376  -8.906   2.290  0.00  0.00    +0.024 A 
ATOM     25  C   UNL     1      22.346  -7.459   3.636  0.00  0.00    +0.013 A 
ATOM     26  C   UNL     1      20.969  -9.435   3.437  0.00  0.00    +0.013 A 
ATOM     27  C   UNL     1      21.955  -8.712   4.110  0.00  0.00    +0.017 A 
BRANCH  27  28
ATOM      6  O   UNL     1      23.411  -8.613   5.962  0.00  0.00    -0.292 OA
ATOM     28  C   UNL     1      22.573  -9.262   5.306  0.00  0.00    +0.160 C 
ATOM     29  C   UNL     1      22.203 -10.661   5.788  0.00  0.00    +0.091 C 
ENDBRANCH  27  28
ENDBRANCH   9  21
ENDBRANCH  12   7
BRANCH  15  17
ATOM      3  O   UNL     1      16.079  -4.106  -5.458  0.00  0.00    -0.271 OA
ATOM      8  N   UNL     1      15.337  -5.504  -3.746  0.00  0.00    -0.311 N 
ATOM     17  C   UNL     1      16.174  -4.562  -4.319  0.00  0.00    +0.240 C 
ATOM     33  H   UNL     1      15.512  -5.820  -2.796  0.00  0.00    +0.149 HD
BRANCH   8  19
ATOM     19  C   UNL     1      14.211  -6.086  -4.439  0.00  0.00    +0.113 C 
BRANCH  19  20
ATOM     20  C   UNL     1      14.263  -7.608  -4.447  0.00  0.00    +0.114 C 
BRANCH  20  24
ATOM      5  O   UNL     1      16.253  -8.091  -3.142  0.00  0.00    -0.276 OA
ATOM     10  N   UNL     1      14.220  -8.855  -2.389  0.00  0.00    -0.329 N 
ATOM     24  C   UNL     1      15.037  -8.190  -3.278  0.00  0.00    +0.212 C 
ATOM     35  H   UNL     1      14.601  -9.298  -1.560  0.00  0.00    +0.145 HD
ATOM     36  H   UNL     1      13.216  -8.927  -2.524  0.00  0.00    +0.145 HD
ENDBRANCH  20  24
ENDBRANCH  19  20
ENDBRANCH   8  19
ENDBRANCH  15  17
BRANCH  11   1
ATOM      1  O   UNL     1      20.467  -4.191  -2.719  0.00  0.00    -0.387 OA
ATOM     31  H   UNL     1      20.088  -4.173  -3.615  0.00  0.00    +0.210 HD
ENDBRANCH  11   1
BRANCH  13   2
ATOM      2  O   UNL     1      18.138  -1.535  -1.767  0.00  0.00    -0.389 OA
ATOM     32  H   UNL     1      18.645  -1.431  -0.944  0.00  0.00    +0.210 HD
ENDBRANCH  13   2
TORSDOF 9
ENDMDL
MODEL 7
REMARK VINA RESULT:      -6.0      1.680      2.659
REMARK  Name = 11865521
REMARK  10 active torsions:
REMARK  status: ('A' for Active; 'I' for Inactive)
REMARK    1  A    between atoms: O_1  and  C_11
REMARK    2  A    between atoms: O_2  and  C_13
REMARK    3  A    between atoms: N_7  and  C_12
REMARK    4  A    between atoms: N_8  and  C_19
REMARK    5  A    between atoms: N_9  and  C_21
REMARK    6  A    between atoms: C_15  and  C_17
REMARK    7  A    between atoms: C_19  and  C_20
REMARK    8  A    between atoms: C_20  and  C_24
REMARK    9  A    between atoms: C_27  and  C_28
REMARK   10  A    between atoms: C_28  and  C_29
REMARK                            x       y       z     vdW  Elec       q    Type
REMARK                         _______ _______ _______ _____ _____    ______ ____
ROOT
ATOM     11  C   UNL     1      20.533   7.621  24.137  0.00  0.00    +0.167 C 
ATOM     12  C   UNL     1      20.398   7.123  22.686  0.00  0.00    +0.129 C 
ATOM     13  C   UNL     1      21.998   7.884  24.508  0.00  0.00    +0.149 C 
ATOM     14  C   UNL     1      22.883   6.645  24.285  0.00  0.00    +0.074 C 
ATOM     15  C   UNL     1      22.524   5.871  23.048  0.00  0.00    +0.015 C 
ATOM     16  C   UNL     1      21.419   6.081  22.317  0.00  0.00    +0.006 C 
ENDROOT
BRANCH  12   7
ATOM      4  O   UNL     1      18.367   8.324  21.062  0.00  0.00    -0.252 OA
ATOM      7  N   UNL     1      19.080   6.598  22.425  0.00  0.00    -0.290 N 
ATOM      9  N   UNL     1      16.960   6.508  21.545  0.00  0.00    -0.269 N 
ATOM     18  C   UNL     1      18.143   7.250  21.615  0.00  0.00    +0.304 C 
ATOM     30  H   UNL     1      18.797   5.740  22.891  0.00  0.00    +0.151 HD
ATOM     34  H   UNL     1      16.939   5.634  22.066  0.00  0.00    +0.156 HD
BRANCH   9  21
ATOM     21  C   UNL     1      15.779   6.822  20.834  0.00  0.00    +0.035 A 
ATOM     22  C   UNL     1      15.756   6.725  19.442  0.00  0.00    +0.024 A 
ATOM     23  C   UNL     1      14.637   7.229  21.524  0.00  0.00    +0.024 A 
ATOM     25  C   UNL     1      14.591   7.036  18.741  0.00  0.00    +0.013 A 
ATOM     26  C   UNL     1      13.472   7.539  20.823  0.00  0.00    +0.013 A 
ATOM     27  C   UNL     1      13.449   7.443  19.431  0.00  0.00    +0.017 A 
BRANCH  27  28
ATOM      6  O   UNL     1      12.036   7.334  17.545  0.00  0.00    -0.292 OA
ATOM     28  C   UNL     1      12.234   7.765  18.699  0.00  0.00    +0.160 C 
ATOM     29  C   UNL     1      11.165   8.647  19.335  0.00  0.00    +0.091 C 
ENDBRANCH  27  28
ENDBRANCH   9  21
ENDBRANCH  12   7
BRANCH  15  17
ATOM      3  O   UNL     1      24.548   5.123  22.119  0.00  0.00    -0.271 OA
ATOM      8  N   UNL     1      22.948   3.551  22.756  0.00  0.00    -0.311 N 
ATOM     17  C   UNL     1      23.450   4.830  22.592  0.00  0.00    +0.240 C 
ATOM     33  H   UNL     1      22.028   3.421  23.167  0.00  0.00    +0.149 HD
BRANCH   8  19
ATOM     19  C   UNL     1      23.677   2.362  22.377  0.00  0.00    +0.113 C 
BRANCH  19  20
ATOM     20  C   UNL     1      23.792   1.368  23.524  0.00  0.00    +0.114 C 
BRANCH  20  24
ATOM      5  O   UNL     1      22.119   2.087  25.131  0.00  0.00    -0.276 OA
ATOM     10  N   UNL     1      24.341   2.224  25.705  0.00  0.00    -0.329 N 
ATOM     24  C   UNL     1      23.302   1.919  24.851  0.00  0.00    +0.212 C 
ATOM     35  H   UNL     1      24.163   2.605  26.628  0.00  0.00    +0.145 HD
ATOM     36  H   UNL     1      25.313   2.080  25.451  0.00  0.00    +0.145 HD
ENDBRANCH  20  24
ENDBRANCH  19  20
ENDBRANCH   8  19
ENDBRANCH  15  17
BRANCH  11   1
ATOM      1  O   UNL     1      20.002   6.642  25.032  0.00  0.00    -0.387 OA
ATOM     31  H   UNL     1      20.248   5.766  24.688  0.00  0.00    +0.210 HD
ENDBRANCH  11   1
BRANCH  13   2
ATOM      2  O   UNL     1      22.504   8.987  23.758  0.00  0.00    -0.389 OA
ATOM     32  H   UNL     1      23.051   8.627  23.039  0.00  0.00    +0.210 HD
ENDBRANCH  13   2
TORSDOF 9
ENDMDL
MODEL 8
REMARK VINA RESULT:      -6.0     18.927     23.192
REMARK  Name = 11865521
REMARK  10 active torsions:
REMARK  status: ('A' for Active; 'I' for Inactive)
REMARK    1  A    between atoms: O_1  and  C_11
REMARK    2  A    between atoms: O_2  and  C_13
REMARK    3  A    between atoms: N_7  and  C_12
REMARK    4  A    between atoms: N_8  and  C_19
REMARK    5  A    between atoms: N_9  and  C_21
REMARK    6  A    between atoms: C_15  and  C_17
REMARK    7  A    between atoms: C_19  and  C_20
REMARK    8  A    between atoms: C_20  and  C_24
REMARK    9  A    between atoms: C_27  and  C_28
REMARK   10  A    between atoms: C_28  and  C_29
REMARK                            x       y       z     vdW  Elec       q    Type
REMARK                         _______ _______ _______ _____ _____    ______ ____
ROOT
ATOM     11  C   UNL     1      12.198   6.375   1.512  0.00  0.00    +0.167 C 
ATOM     12  C   UNL     1      11.483   5.013   1.600  0.00  0.00    +0.129 C 
ATOM     13  C   UNL     1      12.902   6.726   2.829  0.00  0.00    +0.149 C 
ATOM     14  C   UNL     1      11.935   6.708   4.025  0.00  0.00    +0.074 C 
ATOM     15  C   UNL     1      10.927   5.595   3.960  0.00  0.00    +0.015 C 
ATOM     16  C   UNL     1      10.721   4.822   2.883  0.00  0.00    +0.006 C 
ENDROOT
BRANCH  12   7
ATOM      4  O   UNL     1      12.204   4.277  -1.073  0.00  0.00    -0.252 OA
ATOM      7  N   UNL     1      10.586   4.811   0.489  0.00  0.00    -0.290 N 
ATOM      9  N   UNL     1       9.932   4.327  -1.659  0.00  0.00    -0.269 N 
ATOM     18  C   UNL     1      11.020   4.450  -0.791  0.00  0.00    +0.304 C 
ATOM     30  H   UNL     1       9.594   4.989   0.626  0.00  0.00    +0.151 HD
ATOM     34  H   UNL     1       9.011   4.505  -1.263  0.00  0.00    +0.156 HD
BRANCH   9  21
ATOM     21  C   UNL     1       9.948   3.980  -3.029  0.00  0.00    +0.035 A 
ATOM     22  C   UNL     1       9.775   2.650  -3.415  0.00  0.00    +0.024 A 
ATOM     23  C   UNL     1      10.139   4.967  -3.996  0.00  0.00    +0.024 A 
ATOM     25  C   UNL     1       9.793   2.308  -4.767  0.00  0.00    +0.013 A 
ATOM     26  C   UNL     1      10.156   4.625  -5.349  0.00  0.00    +0.013 A 
ATOM     27  C   UNL     1       9.983   3.295  -5.734  0.00  0.00    +0.017 A 
BRANCH  27  28
ATOM      6  O   UNL     1       8.987   3.067  -7.860  0.00  0.00    -0.292 OA
ATOM     28  C   UNL     1      10.000   2.937  -7.144  0.00  0.00    +0.160 C 
ATOM     29  C   UNL     1      11.273   2.392  -7.783  0.00  0.00    +0.091 C 
ENDBRANCH  27  28
ENDBRANCH   9  21
ENDBRANCH  12   7
BRANCH  15  17
ATOM      3  O   UNL     1       9.799   4.166   5.444  0.00  0.00    -0.271 OA
ATOM      8  N   UNL     1       9.813   6.457   5.874  0.00  0.00    -0.311 N 
ATOM     17  C   UNL     1      10.128   5.316   5.157  0.00  0.00    +0.240 C 
ATOM     33  H   UNL     1      10.145   7.362   5.551  0.00  0.00    +0.149 HD
BRANCH   8  19
ATOM     19  C   UNL     1       9.031   6.436   7.089  0.00  0.00    +0.113 C 
BRANCH  19  20
ATOM     20  C   UNL     1       9.890   6.197   8.323  0.00  0.00    +0.114 C 
BRANCH  20  24
ATOM      5  O   UNL     1       8.851   4.829  10.039  0.00  0.00    -0.276 OA
ATOM     10  N   UNL     1      10.168   3.810   8.455  0.00  0.00    -0.329 N 
ATOM     24  C   UNL     1       9.563   4.901   9.042  0.00  0.00    +0.212 C 
ATOM     35  H   UNL     1      10.041   2.877   8.832  0.00  0.00    +0.145 HD
ATOM     36  H   UNL     1      10.757   3.894   7.631  0.00  0.00    +0.145 HD
ENDBRANCH  20  24
ENDBRANCH  19  20
ENDBRANCH   8  19
ENDBRANCH  15  17
BRANCH  11   1
ATOM      1  O   UNL     1      11.245   7.398   1.214  0.00  0.00    -0.387 OA
ATOM     31  H   UNL     1      10.713   7.545   2.015  0.00  0.00    +0.210 HD
ENDBRANCH  11   1
BRANCH  13   2
ATOM      2  O   UNL     1      13.985   5.828   3.061  0.00  0.00    -0.389 OA
ATOM     32  H   UNL     1      13.616   5.016   3.450  0.00  0.00    +0.210 HD
ENDBRANCH  13   2
TORSDOF 9
ENDMDL
MODEL 9
REMARK VINA RESULT:      -6.0     15.869     19.821
REMARK  Name = 11865521
REMARK  10 active torsions:
REMARK  status: ('A' for Active; 'I' for Inactive)
REMARK    1  A    between atoms: O_1  and  C_11
REMARK    2  A    between atoms: O_2  and  C_13
REMARK    3  A    between atoms: N_7  and  C_12
REMARK    4  A    between atoms: N_8  and  C_19
REMARK    5  A    between atoms: N_9  and  C_21
REMARK    6  A    between atoms: C_15  and  C_17
REMARK    7  A    between atoms: C_19  and  C_20
REMARK    8  A    between atoms: C_20  and  C_24
REMARK    9  A    between atoms: C_27  and  C_28
REMARK   10  A    between atoms: C_28  and  C_29
REMARK                            x       y       z     vdW  Elec       q    Type
REMARK                         _______ _______ _______ _____ _____    ______ ____
ROOT
ATOM     11  C   UNL     1      15.041   4.216   1.220  0.00  0.00    +0.167 C 
ATOM     12  C   UNL     1      14.517   5.499   1.893  0.00  0.00    +0.129 C 
ATOM     13  C   UNL     1      13.980   3.584   0.310  0.00  0.00    +0.149 C 
ATOM     14  C   UNL     1      12.671   3.293   1.064  0.00  0.00    +0.074 C 
ATOM     15  C   UNL     1      12.304   4.362   2.055  0.00  0.00    +0.015 C 
ATOM     16  C   UNL     1      13.118   5.360   2.429  0.00  0.00    +0.006 C 
ENDROOT
BRANCH  12   7
ATOM      4  O   UNL     1      15.164   8.203   2.585  0.00  0.00    -0.252 OA
ATOM      7  N   UNL     1      15.385   5.932   2.960  0.00  0.00    -0.290 N 
ATOM      9  N   UNL     1      16.521   7.393   4.320  0.00  0.00    -0.269 N 
ATOM     18  C   UNL     1      15.650   7.279   3.234  0.00  0.00    +0.304 C 
ATOM     30  H   UNL     1      15.870   5.227   3.509  0.00  0.00    +0.151 HD
ATOM     34  H   UNL     1      16.832   6.524   4.749  0.00  0.00    +0.156 HD
BRANCH   9  21
ATOM     21  C   UNL     1      17.030   8.575   4.906  0.00  0.00    +0.035 A 
ATOM     22  C   UNL     1      18.374   8.913   4.742  0.00  0.00    +0.024 A 
ATOM     23  C   UNL     1      16.187   9.403   5.648  0.00  0.00    +0.024 A 
ATOM     25  C   UNL     1      18.874  10.080   5.321  0.00  0.00    +0.013 A 
ATOM     26  C   UNL     1      16.688  10.569   6.227  0.00  0.00    +0.013 A 
ATOM     27  C   UNL     1      18.032  10.907   6.063  0.00  0.00    +0.017 A 
BRANCH  27  28
ATOM      6  O   UNL     1      18.644  13.185   6.016  0.00  0.00    -0.292 OA
ATOM     28  C   UNL     1      18.555  12.124   6.665  0.00  0.00    +0.160 C 
ATOM     29  C   UNL     1      19.011  12.126   8.121  0.00  0.00    +0.091 C 
ENDBRANCH  27  28
ENDBRANCH   9  21
ENDBRANCH  12   7
BRANCH  15  17
ATOM      3  O   UNL     1       9.987   3.980   1.973  0.00  0.00    -0.271 OA
ATOM      8  N   UNL     1      10.940   4.721   3.968  0.00  0.00    -0.311 N 
ATOM     17  C   UNL     1      10.960   4.329   2.641  0.00  0.00    +0.240 C 
ATOM     33  H   UNL     1      11.807   4.982   4.429  0.00  0.00    +0.149 HD
BRANCH   8  19
ATOM     19  C   UNL     1       9.731   4.772   4.758  0.00  0.00    +0.113 C 
BRANCH  19  20
ATOM     20  C   UNL     1       9.776   5.872   5.810  0.00  0.00    +0.114 C 
BRANCH  20  24
ATOM      5  O   UNL     1      12.077   6.645   5.885  0.00  0.00    -0.276 OA
ATOM     10  N   UNL     1      11.242   5.472   7.677  0.00  0.00    -0.329 N 
ATOM     24  C   UNL     1      11.149   6.055   6.430  0.00  0.00    +0.212 C 
ATOM     35  H   UNL     1      12.104   5.513   8.209  0.00  0.00    +0.145 HD
ATOM     36  H   UNL     1      10.461   4.986   8.108  0.00  0.00    +0.145 HD
ENDBRANCH  20  24
ENDBRANCH  19  20
ENDBRANCH   8  19
ENDBRANCH  15  17
BRANCH  11   1
ATOM      1  O   UNL     1      15.412   3.266   2.221  0.00  0.00    -0.387 OA
ATOM     31  H   UNL     1      15.126   2.389   1.913  0.00  0.00    +0.210 HD
ENDBRANCH  11   1
BRANCH  13   2
ATOM      2  O   UNL     1      13.723   4.431  -0.807  0.00  0.00    -0.389 OA
ATOM     32  H   UNL     1      14.313   4.155  -1.529  0.00  0.00    +0.210 HD
ENDBRANCH  13   2
TORSDOF 9
ENDMDL
MODEL 10
REMARK VINA RESULT:      -5.9      3.127      9.626
REMARK  Name = 11865521
REMARK  10 active torsions:
REMARK  status: ('A' for Active; 'I' for Inactive)
REMARK    1  A    between atoms: O_1  and  C_11
REMARK    2  A    between atoms: O_2  and  C_13
REMARK    3  A    between atoms: N_7  and  C_12
REMARK    4  A    between atoms: N_8  and  C_19
REMARK    5  A    between atoms: N_9  and  C_21
REMARK    6  A    between atoms: C_15  and  C_17
REMARK    7  A    between atoms: C_19  and  C_20
REMARK    8  A    between atoms: C_20  and  C_24
REMARK    9  A    between atoms: C_27  and  C_28
REMARK   10  A    between atoms: C_28  and  C_29
REMARK                            x       y       z     vdW  Elec       q    Type
REMARK                         _______ _______ _______ _____ _____    ______ ____
ROOT
ATOM     11  C   UNL     1      12.331   7.030  20.313  0.00  0.00    +0.167 C 
ATOM     12  C   UNL     1      13.257   8.147  19.795  0.00  0.00    +0.129 C 
ATOM     13  C   UNL     1      11.104   7.605  21.032  0.00  0.00    +0.149 C 
ATOM     14  C   UNL     1      11.496   8.548  22.182  0.00  0.00    +0.074 C 
ATOM     15  C   UNL     1      12.683   9.414  21.865  0.00  0.00    +0.015 C 
ATOM     16  C   UNL     1      13.475   9.251  20.795  0.00  0.00    +0.006 C 
ENDROOT
BRANCH  12   7
ATOM      4  O   UNL     1      15.483   7.547  21.495  0.00  0.00    -0.252 OA
ATOM      7  N   UNL     1      14.539   7.628  19.386  0.00  0.00    -0.290 N 
ATOM      9  N   UNL     1      16.694   6.866  19.604  0.00  0.00    -0.269 N 
ATOM     18  C   UNL     1      15.578   7.359  20.284  0.00  0.00    +0.304 C 
ATOM     30  H   UNL     1      14.716   7.496  18.394  0.00  0.00    +0.151 HD
ATOM     34  H   UNL     1      16.607   6.769  18.595  0.00  0.00    +0.156 HD
BRANCH   9  21
ATOM     21  C   UNL     1      17.941   6.477  20.147  0.00  0.00    +0.035 A 
ATOM     22  C   UNL     1      18.544   7.255  21.136  0.00  0.00    +0.024 A 
ATOM     23  C   UNL     1      18.569   5.318  19.692  0.00  0.00    +0.024 A 
ATOM     25  C   UNL     1      19.774   6.872  21.671  0.00  0.00    +0.013 A 
ATOM     26  C   UNL     1      19.799   4.935  20.227  0.00  0.00    +0.013 A 
ATOM     27  C   UNL     1      20.402   5.713  21.216  0.00  0.00    +0.017 A 
BRANCH  27  28
ATOM      6  O   UNL     1      22.493   6.156  22.213  0.00  0.00    -0.292 OA
ATOM     28  C   UNL     1      21.684   5.314  21.775  0.00  0.00    +0.160 C 
ATOM     29  C   UNL     1      22.070   3.840  21.838  0.00  0.00    +0.091 C 
ENDBRANCH  27  28
ENDBRANCH   9  21
ENDBRANCH  12   7
BRANCH  15  17
ATOM      3  O   UNL     1      12.171  11.423  22.970  0.00  0.00    -0.271 OA
ATOM      8  N   UNL     1      14.249  10.430  23.335  0.00  0.00    -0.311 N 
ATOM     17  C   UNL     1      12.989  10.525  22.771  0.00  0.00    +0.240 C 
ATOM     33  H   UNL     1      14.844   9.638  23.109  0.00  0.00    +0.149 HD
BRANCH   8  19
ATOM     19  C   UNL     1      14.777  11.409  24.259  0.00  0.00    +0.113 C 
BRANCH  19  20
ATOM     20  C   UNL     1      15.532  12.523  23.547  0.00  0.00    +0.114 C 
BRANCH  20  24
ATOM      5  O   UNL     1      16.891  10.901  22.356  0.00  0.00    -0.276 OA
ATOM     10  N   UNL     1      16.602  12.991  21.442  0.00  0.00    -0.329 N 
ATOM     24  C   UNL     1      16.405  12.027  22.409  0.00  0.00    +0.212 C 
ATOM     35  H   UNL     1      17.169  12.800  20.623  0.00  0.00    +0.145 HD
ATOM     36  H   UNL     1      16.192  13.917  21.509  0.00  0.00    +0.145 HD
ENDBRANCH  20  24
ENDBRANCH  19  20
ENDBRANCH   8  19
ENDBRANCH  15  17
BRANCH  11   1
ATOM      1  O   UNL     1      13.048   6.197  21.225  0.00  0.00    -0.387 OA
ATOM     31  H   UNL     1      12.772   5.279  21.063  0.00  0.00    +0.210 HD
ENDBRANCH  11   1
BRANCH  13   2
ATOM      2  O   UNL     1      10.266   8.289  20.103  0.00  0.00    -0.389 OA
ATOM     32  H   UNL     1      10.251   7.769  19.281  0.00  0.00    +0.210 HD
ENDBRANCH  13   2
TORSDOF 9
ENDMDL
