REMARK  Name = 11885189
REMARK  3 active torsions:
REMARK  status: ('A' for Active; 'I' for Inactive)
REMARK    1  A    between atoms: S_1  and  N_7
REMARK    2  A    between atoms: S_1  and  C_20
REMARK    3  A    between atoms: C_18  and  C_21
REMARK                            x       y       z     vdW  Elec       q    Type
REMARK                         _______ _______ _______ _____ _____    ______ ____
ROOT
ATOM      6  O   UNL     1       2.307   1.414   1.637  0.00  0.00    -0.267 OA
ATOM      7  N   UNL     1      -2.455   0.787   0.302  0.00  0.00    -0.175 NA
ATOM      8  N   UNL     1       0.567   1.686   0.107  0.00  0.00    -0.311 N 
ATOM      9  C   UNL     1      -1.519   3.080   0.623  0.00  0.00    +0.025 C 
ATOM     10  C   UNL     1      -1.303   1.970  -1.557  0.00  0.00    +0.052 C 
ATOM     11  C   UNL     1      -1.562   3.313  -0.881  0.00  0.00    +0.017 C 
ATOM     12  C   UNL     1      -2.600   2.072   1.046  0.00  0.00    +0.114 C 
ATOM     13  C   UNL     1      -2.418   0.979  -1.179  0.00  0.00    +0.119 C 
ATOM     14  C   UNL     1      -0.108   2.623   1.015  0.00  0.00    +0.130 C 
ATOM     15  C   UNL     1       0.053   1.413  -1.163  0.00  0.00    +0.026 A 
ATOM     16  C   UNL     1       0.746   0.646  -2.020  0.00  0.00    +0.022 A 
ATOM     17  C   UNL     1       1.804   1.167   0.539  0.00  0.00    +0.260 A 
ATOM     18  C   UNL     1       2.540   0.281  -0.430  0.00  0.00    +0.053 A 
ATOM     19  C   UNL     1       2.004   0.069  -1.641  0.00  0.00    +0.016 A 
ENDROOT
BRANCH  18  21
ATOM      3  S   UNL     1       3.818  -1.899   0.680  0.00  0.00    -0.096 S 
ATOM     21  C   UNL     1       3.819  -0.353  -0.065  0.00  0.00    +0.024 A 
ATOM     24  C   UNL     1       5.105   0.127  -0.235  0.00  0.00    +0.016 A 
ATOM     26  C   UNL     1       6.090  -0.781   0.249  0.00  0.00    +0.008 A 
ATOM     27  C   UNL     1       5.527  -1.924   0.772  0.00  0.00    +0.046 A 
ENDBRANCH  18  21
BRANCH   7   1
ATOM      1  S   UNL     1      -3.432  -0.503   0.857  0.00  0.00    +0.067 S 
ATOM      4  O   UNL     1      -4.756  -0.356   0.290  0.00  0.00    -0.152 OA
ATOM      5  O   UNL     1      -3.223  -0.681   2.279  0.00  0.00    -0.152 OA
BRANCH   1  20
ATOM      2  S   UNL     1      -1.283  -2.483   0.762  0.00  0.00    -0.077 S 
ATOM     20  C   UNL     1      -2.791  -2.011   0.137  0.00  0.00    +0.143 A 
ATOM     22  C   UNL     1      -3.280  -2.846  -0.813  0.00  0.00    +0.036 A 
ATOM     23  C   UNL     1      -2.387  -3.931  -1.050  0.00  0.00    +0.010 A 
ATOM     25  C   UNL     1      -1.261  -3.857  -0.260  0.00  0.00    +0.047 A 
ENDBRANCH   1  20
ENDBRANCH   7   1
TORSDOF 3
