MODEL 1
REMARK VINA RESULT:      -5.3      0.000      0.000
REMARK  Name = 56775678
REMARK  8 active torsions:
REMARK  status: ('A' for Active; 'I' for Inactive)
REMARK    1  A    between atoms: N_3  and  C_5
REMARK    2  A    between atoms: N_3  and  C_6
REMARK    3  A    between atoms: C_5  and  C_11
REMARK    4  A    between atoms: C_11  and  C_15
REMARK    5  A    between atoms: C_17  and  C_18
REMARK    6  A    between atoms: C_18  and  C_19
REMARK    7  A    between atoms: C_19  and  C_20
REMARK    8  A    between atoms: C_19  and  C_21
REMARK                            x       y       z     vdW  Elec       q    Type
REMARK                         _______ _______ _______ _____ _____    ______ ____
ROOT
ATOM      1  O   UNL     1       9.360   8.778   2.655  0.00  0.00    -0.376 OA
ATOM      5  C   UNL     1      10.025   7.177   3.901  0.00  0.00    +0.072 C 
ATOM      7  C   UNL     1       9.764   8.672   4.040  0.00  0.00    +0.184 C 
ATOM      8  C   UNL     1       9.496   7.349   2.481  0.00  0.00    +0.184 C 
ENDROOT
BRANCH   5   3
ATOM      3  N   UNL     1       9.028   6.448   4.690  0.00  0.00    -0.304 NA
ATOM     22  H   UNL     1       8.853   5.511   4.328  0.00  0.00    +0.123 HD
BRANCH   3   6
ATOM      6  C   UNL     1       9.490   6.347   6.073  0.00  0.00    +0.054 C 
ATOM      9  C   UNL     1       8.579   7.172   6.989  0.00  0.00    +0.019 C 
ATOM     10  C   UNL     1       9.521   4.876   6.505  0.00  0.00    +0.019 C 
ATOM     12  C   UNL     1       8.986   7.029   8.454  0.00  0.00    +0.002 C 
ATOM     13  C   UNL     1       9.928   4.736   7.971  0.00  0.00    +0.002 C 
ATOM     14  C   UNL     1       9.031   5.565   8.885  0.00  0.00    +0.000 C 
ENDBRANCH   3   6
ENDBRANCH   5   3
BRANCH   5  11
ATOM     11  C   UNL     1      11.417   6.660   4.099  0.00  0.00    +0.085 C 
BRANCH  11  15
ATOM      2  O   UNL     1      11.402   3.456   2.430  0.00  0.00    -0.359 OA
ATOM      4  N   UNL     1      10.910   4.358   3.365  0.00  0.00    -0.083 NA
ATOM     15  C   UNL     1      11.670   5.449   3.228  0.00  0.00    +0.086 A 
ATOM     16  C   UNL     1      12.649   5.294   2.231  0.00  0.00    +0.071 A 
ATOM     17  C   UNL     1      12.438   4.024   1.761  0.00  0.00    +0.138 A 
BRANCH  17  18
ATOM     18  C   UNL     1      13.080   3.203   0.728  0.00  0.00    +0.080 C 
BRANCH  18  19
ATOM     19  C   UNL     1      13.007   3.777  -0.719  0.00  0.00    -0.010 C 
ATOM     20  C   UNL     1      12.335   2.788  -1.674  0.00  0.00    +0.007 C 
ATOM     21  C   UNL     1      14.397   4.140  -1.249  0.00  0.00    +0.007 C 
ENDBRANCH  18  19
ENDBRANCH  17  18
ENDBRANCH  11  15
ENDBRANCH   5  11
TORSDOF 6
ENDMDL
MODEL 2
REMARK VINA RESULT:      -5.2     26.544     30.677
REMARK  Name = 56775678
REMARK  8 active torsions:
REMARK  status: ('A' for Active; 'I' for Inactive)
REMARK    1  A    between atoms: N_3  and  C_5
REMARK    2  A    between atoms: N_3  and  C_6
REMARK    3  A    between atoms: C_5  and  C_11
REMARK    4  A    between atoms: C_11  and  C_15
REMARK    5  A    between atoms: C_17  and  C_18
REMARK    6  A    between atoms: C_18  and  C_19
REMARK    7  A    between atoms: C_19  and  C_20
REMARK    8  A    between atoms: C_19  and  C_21
REMARK                            x       y       z     vdW  Elec       q    Type
REMARK                         _______ _______ _______ _____ _____    ______ ____
ROOT
ATOM      1  O   UNL     1     -15.113   6.968  21.314  0.00  0.00    -0.376 OA
ATOM      5  C   UNL     1     -13.752   8.609  21.427  0.00  0.00    +0.072 C 
ATOM      7  C   UNL     1     -14.301   7.540  22.365  0.00  0.00    +0.184 C 
ATOM      8  C   UNL     1     -14.560   7.893  20.350  0.00  0.00    +0.184 C 
ENDROOT
BRANCH   5   3
ATOM      3  N   UNL     1     -12.327   8.349  21.198  0.00  0.00    -0.304 NA
ATOM     22  H   UNL     1     -12.088   7.364  21.311  0.00  0.00    +0.123 HD
BRANCH   3   6
ATOM      6  C   UNL     1     -11.972   8.773  19.846  0.00  0.00    +0.054 C 
ATOM      9  C   UNL     1     -10.937   9.903  19.910  0.00  0.00    +0.019 C 
ATOM     10  C   UNL     1     -11.438   7.578  19.048  0.00  0.00    +0.019 C 
ATOM     12  C   UNL     1     -10.484  10.321  18.512  0.00  0.00    +0.002 C 
ATOM     13  C   UNL     1     -10.985   8.000  17.651  0.00  0.00    +0.002 C 
ATOM     14  C   UNL     1      -9.963   9.132  17.709  0.00  0.00    +0.000 C 
ENDBRANCH   3   6
ENDBRANCH   5   3
BRANCH   5  11
ATOM     11  C   UNL     1     -14.043  10.049  21.715  0.00  0.00    +0.085 C 
BRANCH  11  15
ATOM      2  O   UNL     1     -11.614  11.507  23.957  0.00  0.00    -0.359 OA
ATOM      4  N   UNL     1     -12.096  11.214  22.687  0.00  0.00    -0.083 NA
ATOM     15  C   UNL     1     -13.229  10.537  22.894  0.00  0.00    +0.086 A 
ATOM     16  C   UNL     1     -13.510  10.373  24.262  0.00  0.00    +0.071 A 
ATOM     17  C   UNL     1     -12.463  11.000  24.887  0.00  0.00    +0.138 A 
BRANCH  17  18
ATOM     18  C   UNL     1     -12.103  11.220  26.292  0.00  0.00    +0.080 C 
BRANCH  18  19
ATOM     19  C   UNL     1     -11.311  10.061  26.966  0.00  0.00    -0.010 C 
ATOM     20  C   UNL     1     -11.524  10.053  28.482  0.00  0.00    +0.007 C 
ATOM     21  C   UNL     1      -9.815  10.150  26.657  0.00  0.00    +0.007 C 
ENDBRANCH  18  19
ENDBRANCH  17  18
ENDBRANCH  11  15
ENDBRANCH   5  11
TORSDOF 6
ENDMDL
MODEL 3
REMARK VINA RESULT:      -5.1     22.992     26.175
REMARK  Name = 56775678
REMARK  8 active torsions:
REMARK  status: ('A' for Active; 'I' for Inactive)
REMARK    1  A    between atoms: N_3  and  C_5
REMARK    2  A    between atoms: N_3  and  C_6
REMARK    3  A    between atoms: C_5  and  C_11
REMARK    4  A    between atoms: C_11  and  C_15
REMARK    5  A    between atoms: C_17  and  C_18
REMARK    6  A    between atoms: C_18  and  C_19
REMARK    7  A    between atoms: C_19  and  C_20
REMARK    8  A    between atoms: C_19  and  C_21
REMARK                            x       y       z     vdW  Elec       q    Type
REMARK                         _______ _______ _______ _____ _____    ______ ____
ROOT
ATOM      1  O   UNL     1      -2.669 -13.834  14.512  0.00  0.00    -0.376 OA
ATOM      5  C   UNL     1      -3.530 -11.964  13.945  0.00  0.00    +0.072 C 
ATOM      7  C   UNL     1      -2.222 -12.713  13.716  0.00  0.00    +0.184 C 
ATOM      8  C   UNL     1      -3.967 -13.221  14.689  0.00  0.00    +0.184 C 
ENDROOT
BRANCH   5   3
ATOM      3  N   UNL     1      -4.260 -11.890  12.676  0.00  0.00    -0.304 NA
ATOM     22  H   UNL     1      -5.259 -12.058  12.791  0.00  0.00    +0.123 HD
BRANCH   3   6
ATOM      6  C   UNL     1      -4.063 -10.568  12.085  0.00  0.00    +0.054 C 
ATOM      9  C   UNL     1      -2.981 -10.637  11.002  0.00  0.00    +0.019 C 
ATOM     10  C   UNL     1      -5.388 -10.052  11.512  0.00  0.00    +0.019 C 
ATOM     12  C   UNL     1      -2.802  -9.288  10.308  0.00  0.00    +0.002 C 
ATOM     13  C   UNL     1      -5.205  -8.702  10.818  0.00  0.00    +0.002 C 
ATOM     14  C   UNL     1      -4.121  -8.764   9.746  0.00  0.00    +0.000 C 
ENDBRANCH   3   6
ENDBRANCH   5   3
BRANCH   5  11
ATOM     11  C   UNL     1      -3.502 -10.659  14.679  0.00  0.00    +0.085 C 
BRANCH  11  15
ATOM      2  O   UNL     1      -6.858 -10.264  15.958  0.00  0.00    -0.359 OA
ATOM      4  N   UNL     1      -5.947 -10.420  14.920  0.00  0.00    -0.083 NA
ATOM     15  C   UNL     1      -4.752 -10.485  15.515  0.00  0.00    +0.086 A 
ATOM     16  C   UNL     1      -4.846 -10.375  16.913  0.00  0.00    +0.071 A 
ATOM     17  C   UNL     1      -6.191 -10.238  17.140  0.00  0.00    +0.138 A 
BRANCH  17  18
ATOM     18  C   UNL     1      -7.006 -10.078  18.349  0.00  0.00    +0.080 C 
BRANCH  18  19
ATOM     19  C   UNL     1      -7.038 -11.313  19.298  0.00  0.00    -0.010 C 
ATOM     20  C   UNL     1      -5.774 -11.384  20.157  0.00  0.00    +0.007 C 
ATOM     21  C   UNL     1      -7.202 -12.618  18.515  0.00  0.00    +0.007 C 
ENDBRANCH  18  19
ENDBRANCH  17  18
ENDBRANCH  11  15
ENDBRANCH   5  11
TORSDOF 6
ENDMDL
MODEL 4
REMARK VINA RESULT:      -5.0     17.794     20.296
REMARK  Name = 56775678
REMARK  8 active torsions:
REMARK  status: ('A' for Active; 'I' for Inactive)
REMARK    1  A    between atoms: N_3  and  C_5
REMARK    2  A    between atoms: N_3  and  C_6
REMARK    3  A    between atoms: C_5  and  C_11
REMARK    4  A    between atoms: C_11  and  C_15
REMARK    5  A    between atoms: C_17  and  C_18
REMARK    6  A    between atoms: C_18  and  C_19
REMARK    7  A    between atoms: C_19  and  C_20
REMARK    8  A    between atoms: C_19  and  C_21
REMARK                            x       y       z     vdW  Elec       q    Type
REMARK                         _______ _______ _______ _____ _____    ______ ____
ROOT
ATOM      1  O   UNL     1      20.641   9.492  23.086  0.00  0.00    -0.376 OA
ATOM      5  C   UNL     1      20.126   7.885  21.778  0.00  0.00    +0.072 C 
ATOM      7  C   UNL     1      20.822   8.058  23.124  0.00  0.00    +0.184 C 
ATOM      8  C   UNL     1      19.888   9.389  21.855  0.00  0.00    +0.184 C 
ENDROOT
BRANCH   5   3
ATOM      3  N   UNL     1      18.851   7.194  21.992  0.00  0.00    -0.304 NA
ATOM     22  H   UNL     1      18.352   7.542  22.810  0.00  0.00    +0.123 HD
BRANCH   3   6
ATOM      6  C   UNL     1      18.009   7.364  20.810  0.00  0.00    +0.054 C 
ATOM      9  C   UNL     1      17.642   5.993  20.230  0.00  0.00    +0.019 C 
ATOM     10  C   UNL     1      16.753   8.163  21.177  0.00  0.00    +0.019 C 
ATOM     12  C   UNL     1      16.698   6.129  19.036  0.00  0.00    +0.002 C 
ATOM     13  C   UNL     1      15.810   8.296  19.982  0.00  0.00    +0.002 C 
ATOM     14  C   UNL     1      15.451   6.934  19.394  0.00  0.00    +0.000 C 
ENDBRANCH   3   6
ENDBRANCH   5   3
BRANCH   5  11
ATOM     11  C   UNL     1      20.904   7.331  20.624  0.00  0.00    +0.085 C 
BRANCH  11  15
ATOM      2  O   UNL     1      21.323   3.761  20.985  0.00  0.00    -0.359 OA
ATOM      4  N   UNL     1      20.604   4.881  20.585  0.00  0.00    -0.083 NA
ATOM     15  C   UNL     1      21.373   5.922  20.917  0.00  0.00    +0.086 A 
ATOM     16  C   UNL     1      22.577   5.524  21.525  0.00  0.00    +0.071 A 
ATOM     17  C   UNL     1      22.495   4.156  21.544  0.00  0.00    +0.138 A 
BRANCH  17  18
ATOM     18  C   UNL     1      23.383   3.092  22.025  0.00  0.00    +0.080 C 
BRANCH  18  19
ATOM     19  C   UNL     1      23.798   2.038  20.957  0.00  0.00    -0.010 C 
ATOM     20  C   UNL     1      24.454   0.818  21.609  0.00  0.00    +0.007 C 
ATOM     21  C   UNL     1      24.747   2.637  19.916  0.00  0.00    +0.007 C 
ENDBRANCH  18  19
ENDBRANCH  17  18
ENDBRANCH  11  15
ENDBRANCH   5  11
TORSDOF 6
ENDMDL
MODEL 5
REMARK VINA RESULT:      -5.0     23.783     27.072
REMARK  Name = 56775678
REMARK  8 active torsions:
REMARK  status: ('A' for Active; 'I' for Inactive)
REMARK    1  A    between atoms: N_3  and  C_5
REMARK    2  A    between atoms: N_3  and  C_6
REMARK    3  A    between atoms: C_5  and  C_11
REMARK    4  A    between atoms: C_11  and  C_15
REMARK    5  A    between atoms: C_17  and  C_18
REMARK    6  A    between atoms: C_18  and  C_19
REMARK    7  A    between atoms: C_19  and  C_20
REMARK    8  A    between atoms: C_19  and  C_21
REMARK                            x       y       z     vdW  Elec       q    Type
REMARK                         _______ _______ _______ _____ _____    ______ ____
ROOT
ATOM      1  O   UNL     1      -5.651 -12.869  18.585  0.00  0.00    -0.376 OA
ATOM      5  C   UNL     1      -4.643 -11.533  17.260  0.00  0.00    +0.072 C 
ATOM      7  C   UNL     1      -4.483 -12.024  18.694  0.00  0.00    +0.184 C 
ATOM      8  C   UNL     1      -5.804 -12.518  17.190  0.00  0.00    +0.184 C 
ENDROOT
BRANCH   5   3
ATOM      3  N   UNL     1      -3.533 -12.053  16.456  0.00  0.00    -0.304 NA
ATOM     22  H   UNL     1      -3.765 -12.934  15.997  0.00  0.00    +0.123 HD
BRANCH   3   6
ATOM      6  C   UNL     1      -3.170 -11.066  15.442  0.00  0.00    +0.054 C 
ATOM      9  C   UNL     1      -1.666 -10.778  15.511  0.00  0.00    +0.019 C 
ATOM     10  C   UNL     1      -3.573 -11.575  14.053  0.00  0.00    +0.019 C 
ATOM     12  C   UNL     1      -1.235  -9.806  14.413  0.00  0.00    +0.002 C 
ATOM     13  C   UNL     1      -3.140 -10.601  12.958  0.00  0.00    +0.002 C 
ATOM     14  C   UNL     1      -1.645 -10.303  13.029  0.00  0.00    +0.000 C 
ENDBRANCH   3   6
ENDBRANCH   5   3
BRANCH   5  11
ATOM     11  C   UNL     1      -4.909 -10.079  17.015  0.00  0.00    +0.085 C 
BRANCH  11  15
ATOM      2  O   UNL     1      -7.821  -9.756  14.900  0.00  0.00    -0.359 OA
ATOM      4  N   UNL     1      -6.467  -9.996  15.102  0.00  0.00    -0.083 NA
ATOM     15  C   UNL     1      -6.287  -9.877  16.420  0.00  0.00    +0.086 A 
ATOM     16  C   UNL     1      -7.480  -9.566  17.096  0.00  0.00    +0.071 A 
ATOM     17  C   UNL     1      -8.413  -9.500  16.095  0.00  0.00    +0.138 A 
BRANCH  17  18
ATOM     18  C   UNL     1      -9.854  -9.222  16.066  0.00  0.00    +0.080 C 
BRANCH  18  19
ATOM     19  C   UNL     1     -10.396  -8.390  17.265  0.00  0.00    -0.010 C 
ATOM     20  C   UNL     1     -11.536  -9.122  17.977  0.00  0.00    +0.007 C 
ATOM     21  C   UNL     1     -10.874  -7.006  16.818  0.00  0.00    +0.007 C 
ENDBRANCH  18  19
ENDBRANCH  17  18
ENDBRANCH  11  15
ENDBRANCH   5  11
TORSDOF 6
ENDMDL
MODEL 6
REMARK VINA RESULT:      -4.9      1.974      6.625
REMARK  Name = 56775678
REMARK  8 active torsions:
REMARK  status: ('A' for Active; 'I' for Inactive)
REMARK    1  A    between atoms: N_3  and  C_5
REMARK    2  A    between atoms: N_3  and  C_6
REMARK    3  A    between atoms: C_5  and  C_11
REMARK    4  A    between atoms: C_11  and  C_15
REMARK    5  A    between atoms: C_17  and  C_18
REMARK    6  A    between atoms: C_18  and  C_19
REMARK    7  A    between atoms: C_19  and  C_20
REMARK    8  A    between atoms: C_19  and  C_21
REMARK                            x       y       z     vdW  Elec       q    Type
REMARK                         _______ _______ _______ _____ _____    ______ ____
ROOT
ATOM      1  O   UNL     1       8.640   8.513   1.757  0.00  0.00    -0.376 OA
ATOM      5  C   UNL     1      10.265   7.178   2.126  0.00  0.00    +0.072 C 
ATOM      7  C   UNL     1       8.986   7.612   2.834  0.00  0.00    +0.184 C 
ATOM      8  C   UNL     1       9.785   8.075   0.990  0.00  0.00    +0.184 C 
ENDROOT
BRANCH   5   3
ATOM      3  N   UNL     1      10.124   5.779   1.714  0.00  0.00    -0.304 NA
ATOM     22  H   UNL     1       9.491   5.668   0.922  0.00  0.00    +0.123 HD
BRANCH   3   6
ATOM      6  C   UNL     1      11.437   5.250   1.352  0.00  0.00    +0.054 C 
ATOM      9  C   UNL     1      11.659   3.895   2.036  0.00  0.00    +0.019 C 
ATOM     10  C   UNL     1      11.546   5.124  -0.172  0.00  0.00    +0.019 C 
ATOM     12  C   UNL     1      12.992   3.275   1.620  0.00  0.00    +0.002 C 
ATOM     13  C   UNL     1      12.880   4.502  -0.584  0.00  0.00    +0.002 C 
ATOM     14  C   UNL     1      13.110   3.159   0.103  0.00  0.00    +0.000 C 
ENDBRANCH   3   6
ENDBRANCH   5   3
BRANCH   5  11
ATOM     11  C   UNL     1      11.586   7.466   2.770  0.00  0.00    +0.085 C 
BRANCH  11  15
ATOM      2  O   UNL     1      11.509   7.962   6.348  0.00  0.00    -0.359 OA
ATOM      4  N   UNL     1      11.665   8.420   5.046  0.00  0.00    -0.083 NA
ATOM     15  C   UNL     1      11.489   7.342   4.276  0.00  0.00    +0.086 A 
ATOM     16  C   UNL     1      11.221   6.187   5.030  0.00  0.00    +0.071 A 
ATOM     17  C   UNL     1      11.246   6.630   6.326  0.00  0.00    +0.138 A 
BRANCH  17  18
ATOM     18  C   UNL     1      11.052   5.979   7.627  0.00  0.00    +0.080 C 
BRANCH  18  19
ATOM     19  C   UNL     1       9.568   5.789   8.061  0.00  0.00    -0.010 C 
ATOM     20  C   UNL     1       8.863   7.138   8.226  0.00  0.00    +0.007 C 
ATOM     21  C   UNL     1       9.462   4.991   9.363  0.00  0.00    +0.007 C 
ENDBRANCH  18  19
ENDBRANCH  17  18
ENDBRANCH  11  15
ENDBRANCH   5  11
TORSDOF 6
ENDMDL
MODEL 7
REMARK VINA RESULT:      -4.8     23.474     25.900
REMARK  Name = 56775678
REMARK  8 active torsions:
REMARK  status: ('A' for Active; 'I' for Inactive)
REMARK    1  A    between atoms: N_3  and  C_5
REMARK    2  A    between atoms: N_3  and  C_6
REMARK    3  A    between atoms: C_5  and  C_11
REMARK    4  A    between atoms: C_11  and  C_15
REMARK    5  A    between atoms: C_17  and  C_18
REMARK    6  A    between atoms: C_18  and  C_19
REMARK    7  A    between atoms: C_19  and  C_20
REMARK    8  A    between atoms: C_19  and  C_21
REMARK                            x       y       z     vdW  Elec       q    Type
REMARK                         _______ _______ _______ _____ _____    ______ ____
ROOT
ATOM      1  O   UNL     1     -10.340  -9.176  16.163  0.00  0.00    -0.376 OA
ATOM      5  C   UNL     1      -8.368  -9.895  15.777  0.00  0.00    +0.072 C 
ATOM      7  C   UNL     1      -9.248  -8.735  15.324  0.00  0.00    +0.184 C 
ATOM      8  C   UNL     1      -9.527 -10.241  16.706  0.00  0.00    +0.184 C 
ENDROOT
BRANCH   5   3
ATOM      3  N   UNL     1      -7.263  -9.363  16.580  0.00  0.00    -0.304 NA
ATOM     22  H   UNL     1      -7.586  -8.893  17.425  0.00  0.00    +0.123 HD
BRANCH   3   6
ATOM      6  C   UNL     1      -6.370 -10.457  16.955  0.00  0.00    +0.054 C 
ATOM      9  C   UNL     1      -4.917 -10.069  16.660  0.00  0.00    +0.019 C 
ATOM     10  C   UNL     1      -6.561 -10.801  18.436  0.00  0.00    +0.019 C 
ATOM     12  C   UNL     1      -3.947 -11.160  17.111  0.00  0.00    +0.002 C 
ATOM     13  C   UNL     1      -5.590 -11.892  18.884  0.00  0.00    +0.002 C 
ATOM     14  C   UNL     1      -4.142 -11.514  18.583  0.00  0.00    +0.000 C 
ENDBRANCH   3   6
ENDBRANCH   5   3
BRANCH   5  11
ATOM     11  C   UNL     1      -7.921 -10.907  14.767  0.00  0.00    +0.085 C 
BRANCH  11  15
ATOM      2  O   UNL     1      -7.497  -9.392  11.515  0.00  0.00    -0.359 OA
ATOM      4  N   UNL     1      -8.262 -10.027  12.486  0.00  0.00    -0.083 NA
ATOM     15  C   UNL     1      -7.425 -10.228  13.509  0.00  0.00    +0.086 A 
ATOM     16  C   UNL     1      -6.132  -9.745  13.242  0.00  0.00    +0.071 A 
ATOM     17  C   UNL     1      -6.230  -9.230  11.976  0.00  0.00    +0.138 A 
BRANCH  17  18
ATOM     18  C   UNL     1      -5.282  -8.571  11.071  0.00  0.00    +0.080 C 
BRANCH  18  19
ATOM     19  C   UNL     1      -4.439  -9.529  10.178  0.00  0.00    -0.010 C 
ATOM     20  C   UNL     1      -2.940  -9.286  10.369  0.00  0.00    +0.007 C 
ATOM     21  C   UNL     1      -4.799  -9.379   8.698  0.00  0.00    +0.007 C 
ENDBRANCH  18  19
ENDBRANCH  17  18
ENDBRANCH  11  15
ENDBRANCH   5  11
TORSDOF 6
ENDMDL
MODEL 8
REMARK VINA RESULT:      -4.8     23.006     26.185
REMARK  Name = 56775678
REMARK  8 active torsions:
REMARK  status: ('A' for Active; 'I' for Inactive)
REMARK    1  A    between atoms: N_3  and  C_5
REMARK    2  A    between atoms: N_3  and  C_6
REMARK    3  A    between atoms: C_5  and  C_11
REMARK    4  A    between atoms: C_11  and  C_15
REMARK    5  A    between atoms: C_17  and  C_18
REMARK    6  A    between atoms: C_18  and  C_19
REMARK    7  A    between atoms: C_19  and  C_20
REMARK    8  A    between atoms: C_19  and  C_21
REMARK                            x       y       z     vdW  Elec       q    Type
REMARK                         _______ _______ _______ _____ _____    ______ ____
ROOT
ATOM      1  O   UNL     1     -12.321  12.777  17.797  0.00  0.00    -0.376 OA
ATOM      5  C   UNL     1     -10.360  12.476  17.009  0.00  0.00    +0.072 C 
ATOM      7  C   UNL     1     -11.710  12.968  16.501  0.00  0.00    +0.184 C 
ATOM      8  C   UNL     1     -11.048  12.393  18.367  0.00  0.00    +0.184 C 
ENDROOT
BRANCH   5   3
ATOM      3  N   UNL     1      -9.422  13.603  17.024  0.00  0.00    -0.304 NA
ATOM     22  H   UNL     1      -8.992  13.739  17.939  0.00  0.00    +0.123 HD
BRANCH   3   6
ATOM      6  C   UNL     1      -8.374  13.369  16.034  0.00  0.00    +0.054 C 
ATOM      9  C   UNL     1      -8.593  14.279  14.819  0.00  0.00    +0.019 C 
ATOM     10  C   UNL     1      -6.998  13.610  16.665  0.00  0.00    +0.019 C 
ATOM     12  C   UNL     1      -7.472  14.117  13.794  0.00  0.00    +0.002 C 
ATOM     13  C   UNL     1      -5.879  13.449  15.636  0.00  0.00    +0.002 C 
ATOM     14  C   UNL     1      -6.098  14.344  14.421  0.00  0.00    +0.000 C 
ENDBRANCH   3   6
ENDBRANCH   5   3
BRANCH   5  11
ATOM     11  C   UNL     1      -9.769  11.233  16.418  0.00  0.00    +0.085 C 
BRANCH  11  15
ATOM      2  O   UNL     1     -11.948   8.418  17.031  0.00  0.00    -0.359 OA
ATOM      4  N   UNL     1     -11.559   9.537  16.306  0.00  0.00    -0.083 NA
ATOM     15  C   UNL     1     -10.477  10.000  16.938  0.00  0.00    +0.086 A 
ATOM     16  C   UNL     1     -10.140   9.222  18.059  0.00  0.00    +0.071 A 
ATOM     17  C   UNL     1     -11.097   8.240  18.073  0.00  0.00    +0.138 A 
BRANCH  17  18
ATOM     18  C   UNL     1     -11.363   7.094  18.950  0.00  0.00    +0.080 C 
BRANCH  18  19
ATOM     19  C   UNL     1     -11.561   7.440  20.456  0.00  0.00    -0.010 C 
ATOM     20  C   UNL     1     -12.163   6.258  21.220  0.00  0.00    +0.007 C 
ATOM     21  C   UNL     1     -12.448   8.674  20.636  0.00  0.00    +0.007 C 
ENDBRANCH  18  19
ENDBRANCH  17  18
ENDBRANCH  11  15
ENDBRANCH   5  11
TORSDOF 6
ENDMDL
MODEL 9
REMARK VINA RESULT:      -4.8     38.133     39.650
REMARK  Name = 56775678
REMARK  8 active torsions:
REMARK  status: ('A' for Active; 'I' for Inactive)
REMARK    1  A    between atoms: N_3  and  C_5
REMARK    2  A    between atoms: N_3  and  C_6
REMARK    3  A    between atoms: C_5  and  C_11
REMARK    4  A    between atoms: C_11  and  C_15
REMARK    5  A    between atoms: C_17  and  C_18
REMARK    6  A    between atoms: C_18  and  C_19
REMARK    7  A    between atoms: C_19  and  C_20
REMARK    8  A    between atoms: C_19  and  C_21
REMARK                            x       y       z     vdW  Elec       q    Type
REMARK                         _______ _______ _______ _____ _____    ______ ____
ROOT
ATOM      1  O   UNL     1     -17.442   7.553  32.422  0.00  0.00    -0.376 OA
ATOM      5  C   UNL     1     -16.012   5.984  32.646  0.00  0.00    +0.072 C 
ATOM      7  C   UNL     1     -16.775   6.945  33.552  0.00  0.00    +0.184 C 
ATOM      8  C   UNL     1     -16.825   6.609  31.518  0.00  0.00    +0.184 C 
ENDROOT
BRANCH   5   3
ATOM      3  N   UNL     1     -16.503   4.623  32.883  0.00  0.00    -0.304 NA
ATOM     22  H   UNL     1     -17.439   4.475  32.505  0.00  0.00    +0.123 HD
BRANCH   3   6
ATOM      6  C   UNL     1     -15.584   3.667  32.269  0.00  0.00    +0.054 C 
ATOM      9  C   UNL     1     -15.336   2.495  33.224  0.00  0.00    +0.019 C 
ATOM     10  C   UNL     1     -16.157   3.179  30.933  0.00  0.00    +0.019 C 
ATOM     12  C   UNL     1     -14.439   1.436  32.586  0.00  0.00    +0.002 C 
ATOM     13  C   UNL     1     -15.258   2.120  30.296  0.00  0.00    +0.002 C 
ATOM     14  C   UNL     1     -14.999   0.956  31.249  0.00  0.00    +0.000 C 
ENDBRANCH   3   6
ENDBRANCH   5   3
BRANCH   5  11
ATOM     11  C   UNL     1     -14.518   6.064  32.595  0.00  0.00    +0.085 C 
BRANCH  11  15
ATOM      2  O   UNL     1     -13.409   5.980  36.032  0.00  0.00    -0.359 OA
ATOM      4  N   UNL     1     -14.018   5.408  34.921  0.00  0.00    -0.083 NA
ATOM     15  C   UNL     1     -13.946   6.343  33.969  0.00  0.00    +0.086 A 
ATOM     16  C   UNL     1     -13.309   7.513  34.416  0.00  0.00    +0.071 A 
ATOM     17  C   UNL     1     -12.992   7.233  35.720  0.00  0.00    +0.138 A 
BRANCH  17  18
ATOM     18  C   UNL     1     -12.322   7.986  36.786  0.00  0.00    +0.080 C 
BRANCH  18  19
ATOM     19  C   UNL     1     -10.769   8.048  36.683  0.00  0.00    -0.010 C 
ATOM     20  C   UNL     1     -10.113   7.769  38.037  0.00  0.00    +0.007 C 
ATOM     21  C   UNL     1     -10.296   9.403  36.151  0.00  0.00    +0.007 C 
ENDBRANCH  18  19
ENDBRANCH  17  18
ENDBRANCH  11  15
ENDBRANCH   5  11
TORSDOF 6
ENDMDL
MODEL 10
REMARK VINA RESULT:      -4.8     23.049     25.398
REMARK  Name = 56775678
REMARK  8 active torsions:
REMARK  status: ('A' for Active; 'I' for Inactive)
REMARK    1  A    between atoms: N_3  and  C_5
REMARK    2  A    between atoms: N_3  and  C_6
REMARK    3  A    between atoms: C_5  and  C_11
REMARK    4  A    between atoms: C_11  and  C_15
REMARK    5  A    between atoms: C_17  and  C_18
REMARK    6  A    between atoms: C_18  and  C_19
REMARK    7  A    between atoms: C_19  and  C_20
REMARK    8  A    between atoms: C_19  and  C_21
REMARK                            x       y       z     vdW  Elec       q    Type
REMARK                         _______ _______ _______ _____ _____    ______ ____
ROOT
ATOM      1  O   UNL     1      -3.988 -15.401  13.420  0.00  0.00    -0.376 OA
ATOM      5  C   UNL     1      -4.013 -13.527  14.443  0.00  0.00    +0.072 C 
ATOM      7  C   UNL     1      -4.489 -14.082  13.105  0.00  0.00    +0.184 C 
ATOM      8  C   UNL     1      -3.598 -14.963  14.742  0.00  0.00    +0.184 C 
ENDROOT
BRANCH   5   3
ATOM      3  N   UNL     1      -5.185 -13.195  15.259  0.00  0.00    -0.304 NA
ATOM     22  H   UNL     1      -5.691 -14.024  15.569  0.00  0.00    +0.123 HD
BRANCH   3   6
ATOM      6  C   UNL     1      -4.755 -12.432  16.429  0.00  0.00    +0.054 C 
ATOM      9  C   UNL     1      -5.628 -11.183  16.586  0.00  0.00    +0.019 C 
ATOM     10  C   UNL     1      -4.823 -13.316  17.680  0.00  0.00    +0.019 C 
ATOM     12  C   UNL     1      -5.257 -10.399  17.844  0.00  0.00    +0.002 C 
ATOM     13  C   UNL     1      -4.452 -12.530  18.937  0.00  0.00    +0.002 C 
ATOM     14  C   UNL     1      -5.312 -11.278  19.091  0.00  0.00    +0.000 C 
ENDBRANCH   3   6
ENDBRANCH   5   3
BRANCH   5  11
ATOM     11  C   UNL     1      -2.970 -12.453  14.455  0.00  0.00    +0.085 C 
BRANCH  11  15
ATOM      2  O   UNL     1      -4.264  -9.852  12.307  0.00  0.00    -0.359 OA
ATOM      4  N   UNL     1      -4.328 -10.661  13.434  0.00  0.00    -0.083 NA
ATOM     15  C   UNL     1      -3.237 -11.431  13.370  0.00  0.00    +0.086 A 
ATOM     16  C   UNL     1      -2.456 -11.155  12.235  0.00  0.00    +0.071 A 
ATOM     17  C   UNL     1      -3.145 -10.155  11.600  0.00  0.00    +0.138 A 
BRANCH  17  18
ATOM     18  C   UNL     1      -2.919  -9.389  10.369  0.00  0.00    +0.080 C 
BRANCH  18  19
ATOM     19  C   UNL     1      -3.986  -9.593   9.253  0.00  0.00    -0.010 C 
ATOM     20  C   UNL     1      -5.191  -8.672   9.464  0.00  0.00    +0.007 C 
ATOM     21  C   UNL     1      -4.457 -11.048   9.185  0.00  0.00    +0.007 C 
ENDBRANCH  18  19
ENDBRANCH  17  18
ENDBRANCH  11  15
ENDBRANCH   5  11
TORSDOF 6
ENDMDL
