MODEL 1
REMARK VINA RESULT:      -7.5      0.000      0.000
REMARK  Name = 40777714
REMARK  16 active torsions:
REMARK  status: ('A' for Active; 'I' for Inactive)
REMARK    1  A    between atoms: O_2  and  C_28
REMARK    2  A    between atoms: N_4  and  C_9
REMARK    3  A    between atoms: N_5  and  C_22
REMARK    4  A    between atoms: C_7  and  C_10
REMARK    5  A    between atoms: C_13  and  C_14
REMARK    6  A    between atoms: C_13  and  C_18
REMARK    7  A    between atoms: C_13  and  C_19
REMARK    8  A    between atoms: C_13  and  C_20
REMARK    9  A    between atoms: C_14  and  C_17
REMARK   10  A    between atoms: C_15  and  C_21
REMARK   11  A    between atoms: C_16  and  C_24
REMARK   12  A    between atoms: C_18  and  C_28
REMARK   13  A    between atoms: C_23  and  C_25
REMARK   14  A    between atoms: C_23  and  C_31
REMARK   15  A    between atoms: C_23  and  C_32
REMARK   16  A    between atoms: C_23  and  C_33
REMARK                            x       y       z     vdW  Elec       q    Type
REMARK                         _______ _______ _______ _____ _____    ______ ____
ROOT
ATOM      7  C   UNL     1     -15.916   3.615  24.411  0.00  0.00    +0.047 C 
ATOM      8  C   UNL     1     -16.603   4.147  25.686  0.00  0.00    +0.039 C 
ATOM      9  C   UNL     1     -17.480   2.998  26.199  0.00  0.00    +0.097 C 
ATOM     11  C   UNL     1     -16.821   2.490  24.003  0.00  0.00    -0.021 C 
ATOM     12  C   UNL     1     -17.668   2.155  24.982  0.00  0.00    -0.009 C 
ENDROOT
BRANCH   7  10
ATOM      5  N   UNL     1     -14.857   6.049  21.887  0.00  0.00    -0.236 N 
ATOM      6  N   UNL     1     -16.169   6.331  21.849  0.00  0.00    -0.171 NA
ATOM     10  C   UNL     1     -15.712   4.677  23.355  0.00  0.00    +0.003 A 
ATOM     15  C   UNL     1     -14.530   5.065  22.774  0.00  0.00    +0.046 A 
ATOM     16  C   UNL     1     -16.687   5.490  22.748  0.00  0.00    +0.064 A 
ATOM     21  C   UNL     1     -13.148   4.589  22.983  0.00  0.00    +0.066 C 
ATOM     24  C   UNL     1     -18.139   5.499  22.996  0.00  0.00    +0.068 C 
BRANCH   5  22
ATOM     22  C   UNL     1     -13.974   6.747  21.061  0.00  0.00    +0.066 A 
ATOM     25  C   UNL     1     -12.207   8.133  19.407  0.00  0.00    -0.042 A 
ATOM     26  C   UNL     1     -14.467   7.570  20.050  0.00  0.00    +0.028 A 
ATOM     27  C   UNL     1     -12.597   6.616  21.246  0.00  0.00    +0.028 A 
ATOM     29  C   UNL     1     -13.583   8.263  19.223  0.00  0.00    +0.006 A 
ATOM     30  C   UNL     1     -11.714   7.309  20.419  0.00  0.00    +0.006 A 
BRANCH  25  23
ATOM     23  C   UNL     1     -11.263   8.874  18.522  0.00  0.00    -0.013 C 
ATOM     31  C   UNL     1     -10.609   7.925  17.470  0.00  0.00    +0.015 C 
ATOM     32  C   UNL     1     -10.109   9.527  19.345  0.00  0.00    +0.015 C 
ATOM     33  C   UNL     1     -11.894  10.040  17.693  0.00  0.00    +0.015 C 
ENDBRANCH  25  23
ENDBRANCH   5  22
ENDBRANCH   7  10
BRANCH   9   4
ATOM      1  O   UNL     1     -17.879   3.207  29.038  0.00  0.00    -0.276 OA
ATOM      4  N   UNL     1     -16.832   2.217  27.219  0.00  0.00    -0.309 N 
ATOM     17  C   UNL     1     -17.090   2.390  28.569  0.00  0.00    +0.214 C 
ATOM     34  H   UNL     1     -16.133   1.536  26.936  0.00  0.00    +0.149 HD
BRANCH  17  14
ATOM     14  C   UNL     1     -16.291   1.448  29.455  0.00  0.00    +0.102 C 
BRANCH  14  13
ATOM     13  C   UNL     1     -15.125   2.116  30.230  0.00  0.00    -0.017 C 
ATOM     19  C   UNL     1     -14.647   3.385  29.493  0.00  0.00    +0.012 C 
ATOM     20  C   UNL     1     -15.663   2.557  31.608  0.00  0.00    +0.012 C 
BRANCH  13  18
ATOM     18  C   UNL     1     -13.907   1.179  30.409  0.00  0.00    +0.127 C 
BRANCH  18  28
ATOM      3  O   UNL     1     -13.982  -0.970  29.296  0.00  0.00    -0.251 OA
ATOM     28  C   UNL     1     -14.217  -0.297  30.291  0.00  0.00    +0.305 C 
BRANCH  28   2
ATOM      2  O   UNL     1     -14.797  -0.804  31.408  0.00  0.00    -0.481 OA
ATOM     35  H   UNL     1     -15.491  -0.209  31.761  0.00  0.00    +0.295 HD
ENDBRANCH  28   2
ENDBRANCH  18  28
ENDBRANCH  13  18
ENDBRANCH  14  13
ENDBRANCH  17  14
ENDBRANCH   9   4
TORSDOF 9
ENDMDL
MODEL 2
REMARK VINA RESULT:      -7.1     19.761     21.560
REMARK  Name = 40777714
REMARK  16 active torsions:
REMARK  status: ('A' for Active; 'I' for Inactive)
REMARK    1  A    between atoms: O_2  and  C_28
REMARK    2  A    between atoms: N_4  and  C_9
REMARK    3  A    between atoms: N_5  and  C_22
REMARK    4  A    between atoms: C_7  and  C_10
REMARK    5  A    between atoms: C_13  and  C_14
REMARK    6  A    between atoms: C_13  and  C_18
REMARK    7  A    between atoms: C_13  and  C_19
REMARK    8  A    between atoms: C_13  and  C_20
REMARK    9  A    between atoms: C_14  and  C_17
REMARK   10  A    between atoms: C_15  and  C_21
REMARK   11  A    between atoms: C_16  and  C_24
REMARK   12  A    between atoms: C_18  and  C_28
REMARK   13  A    between atoms: C_23  and  C_25
REMARK   14  A    between atoms: C_23  and  C_31
REMARK   15  A    between atoms: C_23  and  C_32
REMARK   16  A    between atoms: C_23  and  C_33
REMARK                            x       y       z     vdW  Elec       q    Type
REMARK                         _______ _______ _______ _____ _____    ______ ____
ROOT
ATOM      7  C   UNL     1      -4.899 -10.670  12.054  0.00  0.00    +0.047 C 
ATOM      8  C   UNL     1      -5.736  -9.885  13.085  0.00  0.00    +0.039 C 
ATOM      9  C   UNL     1      -6.266 -10.930  14.076  0.00  0.00    +0.097 C 
ATOM     11  C   UNL     1      -5.441 -12.062  12.191  0.00  0.00    -0.021 C 
ATOM     12  C   UNL     1      -6.182 -12.199  13.296  0.00  0.00    -0.009 C 
ENDROOT
BRANCH   7  10
ATOM      5  N   UNL     1      -5.644  -9.453   8.681  0.00  0.00    -0.236 N 
ATOM      6  N   UNL     1      -4.359  -9.063   8.718  0.00  0.00    -0.171 NA
ATOM     10  C   UNL     1      -4.977 -10.094  10.659  0.00  0.00    +0.003 A 
ATOM     15  C   UNL     1      -6.064 -10.076   9.819  0.00  0.00    +0.046 A 
ATOM     16  C   UNL     1      -3.957  -9.457   9.929  0.00  0.00    +0.064 A 
ATOM     21  C   UNL     1      -7.437 -10.588  10.005  0.00  0.00    +0.066 C 
ATOM     24  C   UNL     1      -2.569  -9.200  10.350  0.00  0.00    +0.068 C 
BRANCH   5  22
ATOM     22  C   UNL     1      -6.411  -9.205   7.542  0.00  0.00    +0.066 A 
ATOM     25  C   UNL     1      -7.938  -8.702   5.263  0.00  0.00    -0.042 A 
ATOM     26  C   UNL     1      -6.233  -9.982   6.398  0.00  0.00    +0.028 A 
ATOM     27  C   UNL     1      -7.353  -8.176   7.546  0.00  0.00    +0.028 A 
ATOM     29  C   UNL     1      -6.997  -9.730   5.258  0.00  0.00    +0.006 A 
ATOM     30  C   UNL     1      -8.116  -7.924   6.407  0.00  0.00    +0.006 A 
BRANCH  25  23
ATOM     23  C   UNL     1      -8.755  -8.433   4.044  0.00  0.00    -0.013 C 
ATOM     31  C   UNL     1      -7.867  -7.907   2.872  0.00  0.00    +0.015 C 
ATOM     32  C   UNL     1      -9.850  -7.357   4.322  0.00  0.00    +0.015 C 
ATOM     33  C   UNL     1      -9.521  -9.666   3.463  0.00  0.00    +0.015 C 
ENDBRANCH  25  23
ENDBRANCH   5  22
ENDBRANCH   7  10
BRANCH   9   4
ATOM      1  O   UNL     1      -6.489  -9.372  16.482  0.00  0.00    -0.276 OA
ATOM      4  N   UNL     1      -5.449 -11.044  15.254  0.00  0.00    -0.309 N 
ATOM     17  C   UNL     1      -5.632 -10.245  16.371  0.00  0.00    +0.214 C 
ATOM     34  H   UNL     1      -4.686 -11.715  15.250  0.00  0.00    +0.149 HD
BRANCH  17  14
ATOM     14  C   UNL     1      -4.651 -10.553  17.492  0.00  0.00    +0.102 C 
BRANCH  14  13
ATOM     13  C   UNL     1      -5.204 -11.486  18.601  0.00  0.00    -0.017 C 
ATOM     19  C   UNL     1      -6.065 -12.607  17.982  0.00  0.00    +0.012 C 
ATOM     20  C   UNL     1      -4.001 -12.158  19.298  0.00  0.00    +0.012 C 
BRANCH  13  18
ATOM     18  C   UNL     1      -6.070 -10.736  19.640  0.00  0.00    +0.127 C 
BRANCH  18  28
ATOM      3  O   UNL     1      -8.167 -11.882  20.033  0.00  0.00    -0.251 OA
ATOM     28  C   UNL     1      -7.561 -10.959  19.505  0.00  0.00    +0.305 C 
BRANCH  28   2
ATOM      2  O   UNL     1      -8.164 -10.028  18.724  0.00  0.00    -0.481 OA
ATOM     35  H   UNL     1      -7.858  -9.120  18.937  0.00  0.00    +0.295 HD
ENDBRANCH  28   2
ENDBRANCH  18  28
ENDBRANCH  13  18
ENDBRANCH  14  13
ENDBRANCH  17  14
ENDBRANCH   9   4
TORSDOF 9
ENDMDL
MODEL 3
REMARK VINA RESULT:      -7.0     20.040     21.796
REMARK  Name = 40777714
REMARK  16 active torsions:
REMARK  status: ('A' for Active; 'I' for Inactive)
REMARK    1  A    between atoms: O_2  and  C_28
REMARK    2  A    between atoms: N_4  and  C_9
REMARK    3  A    between atoms: N_5  and  C_22
REMARK    4  A    between atoms: C_7  and  C_10
REMARK    5  A    between atoms: C_13  and  C_14
REMARK    6  A    between atoms: C_13  and  C_18
REMARK    7  A    between atoms: C_13  and  C_19
REMARK    8  A    between atoms: C_13  and  C_20
REMARK    9  A    between atoms: C_14  and  C_17
REMARK   10  A    between atoms: C_15  and  C_21
REMARK   11  A    between atoms: C_16  and  C_24
REMARK   12  A    between atoms: C_18  and  C_28
REMARK   13  A    between atoms: C_23  and  C_25
REMARK   14  A    between atoms: C_23  and  C_31
REMARK   15  A    between atoms: C_23  and  C_32
REMARK   16  A    between atoms: C_23  and  C_33
REMARK                            x       y       z     vdW  Elec       q    Type
REMARK                         _______ _______ _______ _____ _____    ______ ____
ROOT
ATOM      7  C   UNL     1      -4.971 -10.504  12.157  0.00  0.00    +0.047 C 
ATOM      8  C   UNL     1      -5.777  -9.661  13.168  0.00  0.00    +0.039 C 
ATOM      9  C   UNL     1      -6.334 -10.657  14.193  0.00  0.00    +0.097 C 
ATOM     11  C   UNL     1      -5.558 -11.874  12.340  0.00  0.00    -0.021 C 
ATOM     12  C   UNL     1      -6.295 -11.952  13.452  0.00  0.00    -0.009 C 
ENDROOT
BRANCH   7  10
ATOM      5  N   UNL     1      -5.702  -9.358   8.756  0.00  0.00    -0.236 N 
ATOM      6  N   UNL     1      -4.398  -9.035   8.763  0.00  0.00    -0.171 NA
ATOM     10  C   UNL     1      -5.041  -9.970  10.745  0.00  0.00    +0.003 A 
ATOM     15  C   UNL     1      -6.137  -9.921   9.919  0.00  0.00    +0.046 A 
ATOM     16  C   UNL     1      -3.999  -9.411   9.981  0.00  0.00    +0.064 A 
ATOM     21  C   UNL     1      -7.532 -10.353  10.140  0.00  0.00    +0.066 C 
ATOM     24  C   UNL     1      -2.593  -9.214  10.375  0.00  0.00    +0.068 C 
BRANCH   5  22
ATOM     22  C   UNL     1      -6.471  -9.106   7.619  0.00  0.00    +0.066 A 
ATOM     25  C   UNL     1      -8.014  -8.612   5.348  0.00  0.00    -0.042 A 
ATOM     26  C   UNL     1      -7.450  -8.113   7.644  0.00  0.00    +0.028 A 
ATOM     27  C   UNL     1      -6.264  -9.852   6.459  0.00  0.00    +0.028 A 
ATOM     29  C   UNL     1      -8.221  -7.866   6.508  0.00  0.00    +0.006 A 
ATOM     30  C   UNL     1      -7.035  -9.605   5.324  0.00  0.00    +0.006 A 
BRANCH  25  23
ATOM     23  C   UNL     1      -8.839  -8.348   4.134  0.00  0.00    -0.013 C 
ATOM     31  C   UNL     1      -9.627  -9.621   3.697  0.00  0.00    +0.015 C 
ATOM     32  C   UNL     1      -7.949  -7.909   2.930  0.00  0.00    +0.015 C 
ATOM     33  C   UNL     1      -9.917  -7.224   4.286  0.00  0.00    +0.015 C 
ENDBRANCH  25  23
ENDBRANCH   5  22
ENDBRANCH   7  10
BRANCH   9   4
ATOM      1  O   UNL     1      -6.897  -9.552  16.786  0.00  0.00    -0.276 OA
ATOM      4  N   UNL     1      -5.513 -10.761  15.370  0.00  0.00    -0.309 N 
ATOM     17  C   UNL     1      -5.868 -10.193  16.581  0.00  0.00    +0.214 C 
ATOM     34  H   UNL     1      -4.621 -11.243  15.296  0.00  0.00    +0.149 HD
BRANCH  17  14
ATOM     14  C   UNL     1      -4.846 -10.440  17.680  0.00  0.00    +0.102 C 
BRANCH  14  13
ATOM     13  C   UNL     1      -5.193 -11.606  18.641  0.00  0.00    -0.017 C 
ATOM     19  C   UNL     1      -3.924 -12.104  19.365  0.00  0.00    +0.012 C 
ATOM     20  C   UNL     1      -6.156 -11.063  19.718  0.00  0.00    +0.012 C 
BRANCH  13  18
ATOM     18  C   UNL     1      -5.833 -12.813  17.915  0.00  0.00    +0.127 C 
BRANCH  18  28
ATOM      3  O   UNL     1      -4.453 -13.422  16.021  0.00  0.00    -0.251 OA
ATOM     28  C   UNL     1      -4.862 -13.681  17.145  0.00  0.00    +0.305 C 
BRANCH  28   2
ATOM      2  O   UNL     1      -4.492 -14.792  17.830  0.00  0.00    -0.481 OA
ATOM     35  H   UNL     1      -3.520 -14.921  17.818  0.00  0.00    +0.295 HD
ENDBRANCH  28   2
ENDBRANCH  18  28
ENDBRANCH  13  18
ENDBRANCH  14  13
ENDBRANCH  17  14
ENDBRANCH   9   4
TORSDOF 9
ENDMDL
MODEL 4
REMARK VINA RESULT:      -6.9     18.476     21.679
REMARK  Name = 40777714
REMARK  16 active torsions:
REMARK  status: ('A' for Active; 'I' for Inactive)
REMARK    1  A    between atoms: O_2  and  C_28
REMARK    2  A    between atoms: N_4  and  C_9
REMARK    3  A    between atoms: N_5  and  C_22
REMARK    4  A    between atoms: C_7  and  C_10
REMARK    5  A    between atoms: C_13  and  C_14
REMARK    6  A    between atoms: C_13  and  C_18
REMARK    7  A    between atoms: C_13  and  C_19
REMARK    8  A    between atoms: C_13  and  C_20
REMARK    9  A    between atoms: C_14  and  C_17
REMARK   10  A    between atoms: C_15  and  C_21
REMARK   11  A    between atoms: C_16  and  C_24
REMARK   12  A    between atoms: C_18  and  C_28
REMARK   13  A    between atoms: C_23  and  C_25
REMARK   14  A    between atoms: C_23  and  C_31
REMARK   15  A    between atoms: C_23  and  C_32
REMARK   16  A    between atoms: C_23  and  C_33
REMARK                            x       y       z     vdW  Elec       q    Type
REMARK                         _______ _______ _______ _____ _____    ______ ____
ROOT
ATOM      7  C   UNL     1      -6.040 -11.100  16.611  0.00  0.00    +0.047 C 
ATOM      8  C   UNL     1      -4.731 -10.367  16.970  0.00  0.00    +0.039 C 
ATOM      9  C   UNL     1      -3.622 -11.082  16.188  0.00  0.00    +0.097 C 
ATOM     11  C   UNL     1      -5.542 -12.434  16.136  0.00  0.00    -0.021 C 
ATOM     12  C   UNL     1      -4.225 -12.418  15.904  0.00  0.00    -0.009 C 
ENDROOT
BRANCH   7  10
ATOM      5  N   UNL     1      -8.832 -11.188  18.979  0.00  0.00    -0.236 N 
ATOM      6  N   UNL     1      -7.846 -11.333  19.880  0.00  0.00    -0.171 NA
ATOM     10  C   UNL     1      -7.023 -11.163  17.757  0.00  0.00    +0.003 A 
ATOM     15  C   UNL     1      -8.392 -11.081  17.693  0.00  0.00    +0.046 A 
ATOM     16  C   UNL     1      -6.742 -11.316  19.128  0.00  0.00    +0.064 A 
ATOM     21  C   UNL     1      -9.297 -10.917  16.537  0.00  0.00    +0.066 C 
ATOM     24  C   UNL     1      -5.424 -11.454  19.772  0.00  0.00    +0.068 C 
BRANCH   5  22
ATOM     22  C   UNL     1     -10.160 -11.159  19.406  0.00  0.00    +0.066 A 
ATOM     25  C   UNL     1     -12.818 -11.096  20.250  0.00  0.00    -0.042 A 
ATOM     26  C   UNL     1     -10.876 -12.347  19.544  0.00  0.00    +0.028 A 
ATOM     27  C   UNL     1     -10.774  -9.938  19.689  0.00  0.00    +0.028 A 
ATOM     29  C   UNL     1     -12.205 -12.315  19.967  0.00  0.00    +0.006 A 
ATOM     30  C   UNL     1     -12.102  -9.907  20.111  0.00  0.00    +0.006 A 
BRANCH  25  23
ATOM     23  C   UNL     1     -14.240 -11.062  20.701  0.00  0.00    -0.013 C 
ATOM     31  C   UNL     1     -14.788  -9.602  20.737  0.00  0.00    +0.015 C 
ATOM     32  C   UNL     1     -14.392 -11.657  22.135  0.00  0.00    +0.015 C 
ATOM     33  C   UNL     1     -15.246 -11.862  19.810  0.00  0.00    +0.015 C 
ENDBRANCH  25  23
ENDBRANCH   5  22
ENDBRANCH   7  10
BRANCH   9   4
ATOM      1  O   UNL     1      -1.554 -11.821  14.333  0.00  0.00    -0.276 OA
ATOM      4  N   UNL     1      -3.309 -10.431  14.944  0.00  0.00    -0.309 N 
ATOM     17  C   UNL     1      -2.289 -10.861  14.112  0.00  0.00    +0.214 C 
ATOM     34  H   UNL     1      -3.838  -9.602  14.686  0.00  0.00    +0.149 HD
BRANCH  17  14
ATOM     14  C   UNL     1      -2.151 -10.019  12.853  0.00  0.00    +0.102 C 
BRANCH  14  13
ATOM     13  C   UNL     1      -3.131 -10.392  11.710  0.00  0.00    -0.017 C 
ATOM     19  C   UNL     1      -3.035 -11.899  11.389  0.00  0.00    +0.012 C 
ATOM     20  C   UNL     1      -4.566 -10.116  12.207  0.00  0.00    +0.012 C 
BRANCH  13  18
ATOM     18  C   UNL     1      -2.859  -9.607  10.405  0.00  0.00    +0.127 C 
BRANCH  18  28
ATOM      3  O   UNL     1      -4.413 -10.571   8.818  0.00  0.00    -0.251 OA
ATOM     28  C   UNL     1      -4.011  -9.586   9.424  0.00  0.00    +0.305 C 
BRANCH  28   2
ATOM      2  O   UNL     1      -4.554  -8.352   9.274  0.00  0.00    -0.481 OA
ATOM     35  H   UNL     1      -4.297  -7.750  10.004  0.00  0.00    +0.295 HD
ENDBRANCH  28   2
ENDBRANCH  18  28
ENDBRANCH  13  18
ENDBRANCH  14  13
ENDBRANCH  17  14
ENDBRANCH   9   4
TORSDOF 9
ENDMDL
MODEL 5
REMARK VINA RESULT:      -6.9     22.501     25.710
REMARK  Name = 40777714
REMARK  16 active torsions:
REMARK  status: ('A' for Active; 'I' for Inactive)
REMARK    1  A    between atoms: O_2  and  C_28
REMARK    2  A    between atoms: N_4  and  C_9
REMARK    3  A    between atoms: N_5  and  C_22
REMARK    4  A    between atoms: C_7  and  C_10
REMARK    5  A    between atoms: C_13  and  C_14
REMARK    6  A    between atoms: C_13  and  C_18
REMARK    7  A    between atoms: C_13  and  C_19
REMARK    8  A    between atoms: C_13  and  C_20
REMARK    9  A    between atoms: C_14  and  C_17
REMARK   10  A    between atoms: C_15  and  C_21
REMARK   11  A    between atoms: C_16  and  C_24
REMARK   12  A    between atoms: C_18  and  C_28
REMARK   13  A    between atoms: C_23  and  C_25
REMARK   14  A    between atoms: C_23  and  C_31
REMARK   15  A    between atoms: C_23  and  C_32
REMARK   16  A    between atoms: C_23  and  C_33
REMARK                            x       y       z     vdW  Elec       q    Type
REMARK                         _______ _______ _______ _____ _____    ______ ____
ROOT
ATOM      7  C   UNL     1      -3.755 -10.240   9.716  0.00  0.00    +0.047 C 
ATOM      8  C   UNL     1      -4.499 -11.479   9.175  0.00  0.00    +0.039 C 
ATOM      9  C   UNL     1      -5.398 -10.966   8.043  0.00  0.00    +0.097 C 
ATOM     11  C   UNL     1      -4.641  -9.112   9.271  0.00  0.00    -0.021 C 
ATOM     12  C   UNL     1      -5.531  -9.513   8.357  0.00  0.00    -0.009 C 
ENDROOT
BRANCH   7  10
ATOM      5  N   UNL     1      -3.704 -10.543  13.365  0.00  0.00    -0.236 N 
ATOM      6  N   UNL     1      -2.425 -10.161  13.213  0.00  0.00    -0.171 NA
ATOM     10  C   UNL     1      -3.504 -10.297  11.205  0.00  0.00    +0.003 A 
ATOM     15  C   UNL     1      -4.394 -10.640  12.193  0.00  0.00    +0.046 A 
ATOM     16  C   UNL     1      -2.309 -10.011  11.891  0.00  0.00    +0.064 A 
ATOM     21  C   UNL     1      -5.812 -11.045  12.117  0.00  0.00    +0.066 C 
ATOM     24  C   UNL     1      -1.017  -9.589  11.321  0.00  0.00    +0.068 C 
BRANCH   5  22
ATOM     22  C   UNL     1      -4.203 -10.798  14.643  0.00  0.00    +0.066 A 
ATOM     25  C   UNL     1      -5.191 -11.305  17.202  0.00  0.00    -0.042 A 
ATOM     26  C   UNL     1      -5.181  -9.968  15.190  0.00  0.00    +0.028 A 
ATOM     27  C   UNL     1      -3.719 -11.883  15.376  0.00  0.00    +0.028 A 
ATOM     29  C   UNL     1      -5.675 -10.222  16.470  0.00  0.00    +0.006 A 
ATOM     30  C   UNL     1      -4.213 -12.136  16.655  0.00  0.00    +0.006 A 
BRANCH  25  23
ATOM     23  C   UNL     1      -5.720 -11.576  18.570  0.00  0.00    -0.013 C 
ATOM     31  C   UNL     1      -4.585 -12.045  19.533  0.00  0.00    +0.015 C 
ATOM     32  C   UNL     1      -6.808 -12.694  18.546  0.00  0.00    +0.015 C 
ATOM     33  C   UNL     1      -6.392 -10.357  19.284  0.00  0.00    +0.015 C 
ENDBRANCH  25  23
ENDBRANCH   5  22
ENDBRANCH   7  10
BRANCH   9   4
ATOM      1  O   UNL     1      -6.026 -12.968   6.077  0.00  0.00    -0.276 OA
ATOM      4  N   UNL     1      -4.797 -11.116   6.744  0.00  0.00    -0.309 N 
ATOM     17  C   UNL     1      -5.166 -12.116   5.861  0.00  0.00    +0.214 C 
ATOM     34  H   UNL     1      -4.048 -10.481   6.482  0.00  0.00    +0.149 HD
BRANCH  17  14
ATOM     14  C   UNL     1      -4.396 -12.070   4.550  0.00  0.00    +0.102 C 
BRANCH  14  13
ATOM     13  C   UNL     1      -3.426 -13.259   4.324  0.00  0.00    -0.017 C 
ATOM     19  C   UNL     1      -4.185 -14.468   3.737  0.00  0.00    +0.012 C 
ATOM     20  C   UNL     1      -2.375 -12.823   3.282  0.00  0.00    +0.012 C 
BRANCH  13  18
ATOM     18  C   UNL     1      -2.727 -13.720   5.625  0.00  0.00    +0.127 C 
BRANCH  18  28
ATOM      3  O   UNL     1      -1.508 -15.690   4.920  0.00  0.00    -0.251 OA
ATOM     28  C   UNL     1      -1.493 -14.571   5.416  0.00  0.00    +0.305 C 
BRANCH  28   2
ATOM      2  O   UNL     1      -0.357 -13.968   5.847  0.00  0.00    -0.481 OA
ATOM     35  H   UNL     1      -0.061 -14.322   6.712  0.00  0.00    +0.295 HD
ENDBRANCH  28   2
ENDBRANCH  18  28
ENDBRANCH  13  18
ENDBRANCH  14  13
ENDBRANCH  17  14
ENDBRANCH   9   4
TORSDOF 9
ENDMDL
MODEL 6
REMARK VINA RESULT:      -6.8      4.821     11.099
REMARK  Name = 40777714
REMARK  16 active torsions:
REMARK  status: ('A' for Active; 'I' for Inactive)
REMARK    1  A    between atoms: O_2  and  C_28
REMARK    2  A    between atoms: N_4  and  C_9
REMARK    3  A    between atoms: N_5  and  C_22
REMARK    4  A    between atoms: C_7  and  C_10
REMARK    5  A    between atoms: C_13  and  C_14
REMARK    6  A    between atoms: C_13  and  C_18
REMARK    7  A    between atoms: C_13  and  C_19
REMARK    8  A    between atoms: C_13  and  C_20
REMARK    9  A    between atoms: C_14  and  C_17
REMARK   10  A    between atoms: C_15  and  C_21
REMARK   11  A    between atoms: C_16  and  C_24
REMARK   12  A    between atoms: C_18  and  C_28
REMARK   13  A    between atoms: C_23  and  C_25
REMARK   14  A    between atoms: C_23  and  C_31
REMARK   15  A    between atoms: C_23  and  C_32
REMARK   16  A    between atoms: C_23  and  C_33
REMARK                            x       y       z     vdW  Elec       q    Type
REMARK                         _______ _______ _______ _____ _____    ______ ____
ROOT
ATOM      7  C   UNL     1     -14.530   6.832  20.859  0.00  0.00    +0.047 C 
ATOM      8  C   UNL     1     -14.366   8.306  21.285  0.00  0.00    +0.039 C 
ATOM      9  C   UNL     1     -12.910   8.673  20.971  0.00  0.00    +0.097 C 
ATOM     11  C   UNL     1     -13.113   6.336  20.867  0.00  0.00    -0.021 C 
ATOM     12  C   UNL     1     -12.235   7.342  20.923  0.00  0.00    -0.009 C 
ENDROOT
BRANCH   7  10
ATOM      5  N   UNL     1     -16.355   4.846  23.336  0.00  0.00    -0.236 N 
ATOM      6  N   UNL     1     -17.403   5.124  22.543  0.00  0.00    -0.171 NA
ATOM     10  C   UNL     1     -15.477   6.057  21.746  0.00  0.00    +0.003 A 
ATOM     15  C   UNL     1     -15.178   5.380  22.903  0.00  0.00    +0.046 A 
ATOM     16  C   UNL     1     -16.860   5.865  21.573  0.00  0.00    +0.064 A 
ATOM     21  C   UNL     1     -13.896   5.206  23.617  0.00  0.00    +0.066 C 
ATOM     24  C   UNL     1     -17.715   6.374  20.486  0.00  0.00    +0.068 C 
BRANCH   5  22
ATOM     22  C   UNL     1     -16.541   4.070  24.482  0.00  0.00    +0.066 A 
ATOM     25  C   UNL     1     -16.922   2.523  26.771  0.00  0.00    -0.042 A 
ATOM     26  C   UNL     1     -16.435   2.682  24.410  0.00  0.00    +0.028 A 
ATOM     27  C   UNL     1     -16.837   4.685  25.699  0.00  0.00    +0.028 A 
ATOM     29  C   UNL     1     -16.626   1.908  25.555  0.00  0.00    +0.006 A 
ATOM     30  C   UNL     1     -17.028   3.912  26.843  0.00  0.00    +0.006 A 
BRANCH  25  23
ATOM     23  C   UNL     1     -17.126   1.695  27.995  0.00  0.00    -0.013 C 
ATOM     31  C   UNL     1     -17.564   2.575  29.207  0.00  0.00    +0.015 C 
ATOM     32  C   UNL     1     -15.815   0.954  28.402  0.00  0.00    +0.015 C 
ATOM     33  C   UNL     1     -18.216   0.579  27.877  0.00  0.00    +0.015 C 
ENDBRANCH  25  23
ENDBRANCH   5  22
ENDBRANCH   7  10
BRANCH   9   4
ATOM      1  O   UNL     1     -11.434  11.079  20.429  0.00  0.00    -0.276 OA
ATOM      4  N   UNL     1     -12.762   9.323  19.696  0.00  0.00    -0.309 N 
ATOM     17  C   UNL     1     -12.028  10.486  19.531  0.00  0.00    +0.214 C 
ATOM     34  H   UNL     1     -13.246   8.930  18.894  0.00  0.00    +0.149 HD
BRANCH  17  14
ATOM     14  C   UNL     1     -12.012  10.983  18.094  0.00  0.00    +0.102 C 
BRANCH  14  13
ATOM     13  C   UNL     1     -10.726  10.637  17.300  0.00  0.00    -0.017 C 
ATOM     19  C   UNL     1     -11.026  10.579  15.788  0.00  0.00    +0.012 C 
ATOM     20  C   UNL     1      -9.708  11.775  17.526  0.00  0.00    +0.012 C 
BRANCH  13  18
ATOM     18  C   UNL     1     -10.109   9.281  17.718  0.00  0.00    +0.127 C 
BRANCH  18  28
ATOM      3  O   UNL     1     -11.893   7.655  17.523  0.00  0.00    -0.251 OA
ATOM     28  C   UNL     1     -10.802   8.063  17.145  0.00  0.00    +0.305 C 
BRANCH  28   2
ATOM      2  O   UNL     1     -10.083   7.459  16.168  0.00  0.00    -0.481 OA
ATOM     35  H   UNL     1     -10.655   6.953  15.553  0.00  0.00    +0.295 HD
ENDBRANCH  28   2
ENDBRANCH  18  28
ENDBRANCH  13  18
ENDBRANCH  14  13
ENDBRANCH  17  14
ENDBRANCH   9   4
TORSDOF 9
ENDMDL
MODEL 7
REMARK VINA RESULT:      -6.7     20.608     22.810
REMARK  Name = 40777714
REMARK  16 active torsions:
REMARK  status: ('A' for Active; 'I' for Inactive)
REMARK    1  A    between atoms: O_2  and  C_28
REMARK    2  A    between atoms: N_4  and  C_9
REMARK    3  A    between atoms: N_5  and  C_22
REMARK    4  A    between atoms: C_7  and  C_10
REMARK    5  A    between atoms: C_13  and  C_14
REMARK    6  A    between atoms: C_13  and  C_18
REMARK    7  A    between atoms: C_13  and  C_19
REMARK    8  A    between atoms: C_13  and  C_20
REMARK    9  A    between atoms: C_14  and  C_17
REMARK   10  A    between atoms: C_15  and  C_21
REMARK   11  A    between atoms: C_16  and  C_24
REMARK   12  A    between atoms: C_18  and  C_28
REMARK   13  A    between atoms: C_23  and  C_25
REMARK   14  A    between atoms: C_23  and  C_31
REMARK   15  A    between atoms: C_23  and  C_32
REMARK   16  A    between atoms: C_23  and  C_33
REMARK                            x       y       z     vdW  Elec       q    Type
REMARK                         _______ _______ _______ _____ _____    ______ ____
ROOT
ATOM      7  C   UNL     1      -4.561  -9.876  10.479  0.00  0.00    +0.047 C 
ATOM      8  C   UNL     1      -4.435 -11.190  11.278  0.00  0.00    +0.039 C 
ATOM      9  C   UNL     1      -3.099 -11.098  12.026  0.00  0.00    +0.097 C 
ATOM     11  C   UNL     1      -3.135  -9.416  10.388  0.00  0.00    -0.021 C 
ATOM     12  C   UNL     1      -2.344 -10.082  11.235  0.00  0.00    -0.009 C 
ENDROOT
BRANCH   7  10
ATOM      5  N   UNL     1      -6.511  -9.794   7.380  0.00  0.00    -0.236 N 
ATOM      6  N   UNL     1      -5.872 -10.952   7.143  0.00  0.00    -0.171 NA
ATOM     10  C   UNL     1      -5.257 -10.050   9.149  0.00  0.00    +0.003 A 
ATOM     15  C   UNL     1      -6.178  -9.213   8.568  0.00  0.00    +0.046 A 
ATOM     16  C   UNL     1      -5.107 -11.104   8.228  0.00  0.00    +0.064 A 
ATOM     21  C   UNL     1      -6.753  -7.936   9.036  0.00  0.00    +0.066 C 
ATOM     24  C   UNL     1      -4.237 -12.287   8.340  0.00  0.00    +0.068 C 
BRANCH   5  22
ATOM     22  C   UNL     1      -7.419  -9.300   6.442  0.00  0.00    +0.066 A 
ATOM     25  C   UNL     1      -9.230  -8.319   4.562  0.00  0.00    -0.042 A 
ATOM     26  C   UNL     1      -8.787  -9.499   6.623  0.00  0.00    +0.028 A 
ATOM     27  C   UNL     1      -6.956  -8.610   5.321  0.00  0.00    +0.028 A 
ATOM     29  C   UNL     1      -9.693  -9.008   5.682  0.00  0.00    +0.006 A 
ATOM     30  C   UNL     1      -7.862  -8.120   4.381  0.00  0.00    +0.006 A 
BRANCH  25  23
ATOM     23  C   UNL     1     -10.200  -7.795   3.556  0.00  0.00    -0.013 C 
ATOM     31  C   UNL     1     -11.464  -7.196   4.247  0.00  0.00    +0.015 C 
ATOM     32  C   UNL     1     -10.682  -8.924   2.593  0.00  0.00    +0.015 C 
ATOM     33  C   UNL     1      -9.656  -6.660   2.628  0.00  0.00    +0.015 C 
ENDBRANCH  25  23
ENDBRANCH   5  22
ENDBRANCH   7  10
BRANCH   9   4
ATOM      1  O   UNL     1      -2.209 -12.420  14.419  0.00  0.00    -0.276 OA
ATOM      4  N   UNL     1      -3.251 -10.627  13.377  0.00  0.00    -0.309 N 
ATOM     17  C   UNL     1      -2.787 -11.337  14.472  0.00  0.00    +0.214 C 
ATOM     34  H   UNL     1      -3.748  -9.754  13.533  0.00  0.00    +0.149 HD
BRANCH  17  14
ATOM     14  C   UNL     1      -3.058 -10.638  15.796  0.00  0.00    +0.102 C 
BRANCH  14  13
ATOM     13  C   UNL     1      -4.411 -11.003  16.459  0.00  0.00    -0.017 C 
ATOM     19  C   UNL     1      -5.029 -12.241  15.776  0.00  0.00    +0.012 C 
ATOM     20  C   UNL     1      -4.132 -11.379  17.931  0.00  0.00    +0.012 C 
BRANCH  13  18
ATOM     18  C   UNL     1      -5.444  -9.854  16.390  0.00  0.00    +0.127 C 
BRANCH  18  28
ATOM      3  O   UNL     1      -7.596 -10.430  15.442  0.00  0.00    -0.251 OA
ATOM     28  C   UNL     1      -6.467  -9.984  15.283  0.00  0.00    +0.305 C 
BRANCH  28   2
ATOM      2  O   UNL     1      -6.001  -9.561  14.082  0.00  0.00    -0.481 OA
ATOM     35  H   UNL     1      -5.354  -8.830  14.179  0.00  0.00    +0.295 HD
ENDBRANCH  28   2
ENDBRANCH  18  28
ENDBRANCH  13  18
ENDBRANCH  14  13
ENDBRANCH  17  14
ENDBRANCH   9   4
TORSDOF 9
ENDMDL
MODEL 8
REMARK VINA RESULT:      -6.7     22.501     25.737
REMARK  Name = 40777714
REMARK  16 active torsions:
REMARK  status: ('A' for Active; 'I' for Inactive)
REMARK    1  A    between atoms: O_2  and  C_28
REMARK    2  A    between atoms: N_4  and  C_9
REMARK    3  A    between atoms: N_5  and  C_22
REMARK    4  A    between atoms: C_7  and  C_10
REMARK    5  A    between atoms: C_13  and  C_14
REMARK    6  A    between atoms: C_13  and  C_18
REMARK    7  A    between atoms: C_13  and  C_19
REMARK    8  A    between atoms: C_13  and  C_20
REMARK    9  A    between atoms: C_14  and  C_17
REMARK   10  A    between atoms: C_15  and  C_21
REMARK   11  A    between atoms: C_16  and  C_24
REMARK   12  A    between atoms: C_18  and  C_28
REMARK   13  A    between atoms: C_23  and  C_25
REMARK   14  A    between atoms: C_23  and  C_31
REMARK   15  A    between atoms: C_23  and  C_32
REMARK   16  A    between atoms: C_23  and  C_33
REMARK                            x       y       z     vdW  Elec       q    Type
REMARK                         _______ _______ _______ _____ _____    ______ ____
ROOT
ATOM      7  C   UNL     1      -3.717 -10.446   9.838  0.00  0.00    +0.047 C 
ATOM      8  C   UNL     1      -4.696 -11.548   9.385  0.00  0.00    +0.039 C 
ATOM      9  C   UNL     1      -5.484 -10.952   8.211  0.00  0.00    +0.097 C 
ATOM     11  C   UNL     1      -4.363  -9.201   9.303  0.00  0.00    -0.021 C 
ATOM     12  C   UNL     1      -5.322  -9.482   8.415  0.00  0.00    -0.009 C 
ENDROOT
BRANCH   7  10
ATOM      5  N   UNL     1      -3.671 -10.621  13.496  0.00  0.00    -0.236 N 
ATOM      6  N   UNL     1      -2.409 -10.189  13.335  0.00  0.00    -0.171 NA
ATOM     10  C   UNL     1      -3.471 -10.441  11.329  0.00  0.00    +0.003 A 
ATOM     15  C   UNL     1      -4.350 -10.788  12.325  0.00  0.00    +0.046 A 
ATOM     16  C   UNL     1      -2.292 -10.080  12.009  0.00  0.00    +0.064 A 
ATOM     21  C   UNL     1      -5.749 -11.256  12.258  0.00  0.00    +0.066 C 
ATOM     24  C   UNL     1      -1.017  -9.623  11.429  0.00  0.00    +0.068 C 
BRANCH   5  22
ATOM     22  C   UNL     1      -4.165 -10.853  14.780  0.00  0.00    +0.066 A 
ATOM     25  C   UNL     1      -5.161 -11.318  17.344  0.00  0.00    -0.042 A 
ATOM     26  C   UNL     1      -3.876 -12.051  15.434  0.00  0.00    +0.028 A 
ATOM     27  C   UNL     1      -4.952  -9.888  15.409  0.00  0.00    +0.028 A 
ATOM     29  C   UNL     1      -4.374 -12.283  16.716  0.00  0.00    +0.006 A 
ATOM     30  C   UNL     1      -5.450 -10.121  16.690  0.00  0.00    +0.006 A 
BRANCH  25  23
ATOM     23  C   UNL     1      -5.693 -11.568  18.715  0.00  0.00    -0.013 C 
ATOM     31  C   UNL     1      -4.567 -12.052  19.680  0.00  0.00    +0.015 C 
ATOM     32  C   UNL     1      -6.803 -12.664  18.700  0.00  0.00    +0.015 C 
ATOM     33  C   UNL     1      -6.340 -10.330  19.419  0.00  0.00    +0.015 C 
ENDBRANCH  25  23
ENDBRANCH   5  22
ENDBRANCH   7  10
BRANCH   9   4
ATOM      1  O   UNL     1      -6.927 -11.262   5.745  0.00  0.00    -0.276 OA
ATOM      4  N   UNL     1      -4.934 -11.315   6.932  0.00  0.00    -0.309 N 
ATOM     17  C   UNL     1      -5.713 -11.441   5.794  0.00  0.00    +0.214 C 
ATOM     34  H   UNL     1      -3.940 -11.519   6.873  0.00  0.00    +0.149 HD
BRANCH  17  14
ATOM     14  C   UNL     1      -4.909 -11.828   4.561  0.00  0.00    +0.102 C 
BRANCH  14  13
ATOM     13  C   UNL     1      -5.073 -13.304   4.116  0.00  0.00    -0.017 C 
ATOM     19  C   UNL     1      -5.222 -14.224   5.346  0.00  0.00    +0.012 C 
ATOM     20  C   UNL     1      -6.377 -13.412   3.298  0.00  0.00    +0.012 C 
BRANCH  13  18
ATOM     18  C   UNL     1      -3.876 -13.815   3.279  0.00  0.00    +0.127 C 
BRANCH  18  28
ATOM      3  O   UNL     1      -4.028 -12.780   1.096  0.00  0.00    -0.251 OA
ATOM     28  C   UNL     1      -3.439 -12.891   2.163  0.00  0.00    +0.305 C 
BRANCH  28   2
ATOM      2  O   UNL     1      -2.313 -12.198   2.463  0.00  0.00    -0.481 OA
ATOM     35  H   UNL     1      -1.984 -12.408   3.363  0.00  0.00    +0.295 HD
ENDBRANCH  28   2
ENDBRANCH  18  28
ENDBRANCH  13  18
ENDBRANCH  14  13
ENDBRANCH  17  14
ENDBRANCH   9   4
TORSDOF 9
ENDMDL
MODEL 9
REMARK VINA RESULT:      -6.7     25.443     28.106
REMARK  Name = 40777714
REMARK  16 active torsions:
REMARK  status: ('A' for Active; 'I' for Inactive)
REMARK    1  A    between atoms: O_2  and  C_28
REMARK    2  A    between atoms: N_4  and  C_9
REMARK    3  A    between atoms: N_5  and  C_22
REMARK    4  A    between atoms: C_7  and  C_10
REMARK    5  A    between atoms: C_13  and  C_14
REMARK    6  A    between atoms: C_13  and  C_18
REMARK    7  A    between atoms: C_13  and  C_19
REMARK    8  A    between atoms: C_13  and  C_20
REMARK    9  A    between atoms: C_14  and  C_17
REMARK   10  A    between atoms: C_15  and  C_21
REMARK   11  A    between atoms: C_16  and  C_24
REMARK   12  A    between atoms: C_18  and  C_28
REMARK   13  A    between atoms: C_23  and  C_25
REMARK   14  A    between atoms: C_23  and  C_31
REMARK   15  A    between atoms: C_23  and  C_32
REMARK   16  A    between atoms: C_23  and  C_33
REMARK                            x       y       z     vdW  Elec       q    Type
REMARK                         _______ _______ _______ _____ _____    ______ ____
ROOT
ATOM      7  C   UNL     1       8.190  -6.241  34.232  0.00  0.00    +0.047 C 
ATOM      8  C   UNL     1       8.706  -6.314  35.684  0.00  0.00    +0.039 C 
ATOM      9  C   UNL     1       9.332  -4.944  35.975  0.00  0.00    +0.097 C 
ATOM     11  C   UNL     1       9.006  -5.120  33.656  0.00  0.00    -0.021 C 
ATOM     12  C   UNL     1       9.622  -4.415  34.610  0.00  0.00    -0.009 C 
ENDROOT
BRANCH   7  10
ATOM      5  N   UNL     1       7.888  -9.454  32.500  0.00  0.00    -0.236 N 
ATOM      6  N   UNL     1       9.220  -9.325  32.380  0.00  0.00    -0.171 NA
ATOM     10  C   UNL     1       8.304  -7.553  33.491  0.00  0.00    +0.003 A 
ATOM     15  C   UNL     1       7.291  -8.419  33.158  0.00  0.00    +0.046 A 
ATOM     16  C   UNL     1       9.469  -8.162  32.988  0.00  0.00    +0.064 A 
ATOM     21  C   UNL     1       5.837  -8.346  33.406  0.00  0.00    +0.066 C 
ATOM     24  C   UNL     1      10.854  -7.665  33.063  0.00  0.00    +0.068 C 
BRANCH   5  22
ATOM     22  C   UNL     1       7.251 -10.577  31.972  0.00  0.00    +0.066 A 
ATOM     25  C   UNL     1       5.968 -12.819  30.920  0.00  0.00    -0.042 A 
ATOM     26  C   UNL     1       7.028 -10.672  30.599  0.00  0.00    +0.028 A 
ATOM     27  C   UNL     1       6.832 -11.603  32.820  0.00  0.00    +0.028 A 
ATOM     29  C   UNL     1       6.387 -11.794  30.073  0.00  0.00    +0.006 A 
ATOM     30  C   UNL     1       6.190 -12.724  32.293  0.00  0.00    +0.006 A 
BRANCH  25  23
ATOM     23  C   UNL     1       5.282 -14.018  30.357  0.00  0.00    -0.013 C 
ATOM     31  C   UNL     1       4.674 -14.906  31.487  0.00  0.00    +0.015 C 
ATOM     32  C   UNL     1       6.273 -14.908  29.544  0.00  0.00    +0.015 C 
ATOM     33  C   UNL     1       4.097 -13.718  29.382  0.00  0.00    +0.015 C 
ENDBRANCH  25  23
ENDBRANCH   5  22
ENDBRANCH   7  10
BRANCH   9   4
ATOM      1  O   UNL     1       9.520  -4.027  38.693  0.00  0.00    -0.276 OA
ATOM      4  N   UNL     1       8.427  -4.050  36.646  0.00  0.00    -0.309 N 
ATOM     17  C   UNL     1       8.600  -3.662  37.964  0.00  0.00    +0.214 C 
ATOM     34  H   UNL     1       7.611  -3.719  36.139  0.00  0.00    +0.149 HD
BRANCH  17  14
ATOM     14  C   UNL     1       7.519  -2.709  38.453  0.00  0.00    +0.102 C 
BRANCH  14  13
ATOM     13  C   UNL     1       6.265  -3.399  39.049  0.00  0.00    -0.017 C 
ATOM     19  C   UNL     1       6.678  -4.476  40.073  0.00  0.00    +0.012 C 
ATOM     20  C   UNL     1       5.450  -2.329  39.806  0.00  0.00    +0.012 C 
BRANCH  13  18
ATOM     18  C   UNL     1       5.384  -4.077  37.973  0.00  0.00    +0.127 C 
BRANCH  18  28
ATOM      3  O   UNL     1       4.088  -2.387  36.819  0.00  0.00    -0.251 OA
ATOM     28  C   UNL     1       5.012  -3.190  36.804  0.00  0.00    +0.305 C 
BRANCH  28   2
ATOM      2  O   UNL     1       5.808  -3.382  35.723  0.00  0.00    -0.481 OA
ATOM     35  H   UNL     1       5.754  -2.633  35.092  0.00  0.00    +0.295 HD
ENDBRANCH  28   2
ENDBRANCH  18  28
ENDBRANCH  13  18
ENDBRANCH  14  13
ENDBRANCH  17  14
ENDBRANCH   9   4
TORSDOF 9
ENDMDL
MODEL 10
REMARK VINA RESULT:      -6.6     18.533     21.584
REMARK  Name = 40777714
REMARK  16 active torsions:
REMARK  status: ('A' for Active; 'I' for Inactive)
REMARK    1  A    between atoms: O_2  and  C_28
REMARK    2  A    between atoms: N_4  and  C_9
REMARK    3  A    between atoms: N_5  and  C_22
REMARK    4  A    between atoms: C_7  and  C_10
REMARK    5  A    between atoms: C_13  and  C_14
REMARK    6  A    between atoms: C_13  and  C_18
REMARK    7  A    between atoms: C_13  and  C_19
REMARK    8  A    between atoms: C_13  and  C_20
REMARK    9  A    between atoms: C_14  and  C_17
REMARK   10  A    between atoms: C_15  and  C_21
REMARK   11  A    between atoms: C_16  and  C_24
REMARK   12  A    between atoms: C_18  and  C_28
REMARK   13  A    between atoms: C_23  and  C_25
REMARK   14  A    between atoms: C_23  and  C_31
REMARK   15  A    between atoms: C_23  and  C_32
REMARK   16  A    between atoms: C_23  and  C_33
REMARK                            x       y       z     vdW  Elec       q    Type
REMARK                         _______ _______ _______ _____ _____    ______ ____
ROOT
ATOM      7  C   UNL     1      -6.547 -11.284  16.810  0.00  0.00    +0.047 C 
ATOM      8  C   UNL     1      -5.656 -10.030  16.697  0.00  0.00    +0.039 C 
ATOM      9  C   UNL     1      -4.297 -10.526  16.188  0.00  0.00    +0.097 C 
ATOM     11  C   UNL     1      -5.535 -12.390  16.899  0.00  0.00    -0.021 C 
ATOM     12  C   UNL     1      -4.313 -11.973  16.555  0.00  0.00    -0.009 C 
ENDROOT
BRANCH   7  10
ATOM      5  N   UNL     1      -9.321 -11.157  19.197  0.00  0.00    -0.236 N 
ATOM      6  N   UNL     1      -8.326 -11.110  20.098  0.00  0.00    -0.171 NA
ATOM     10  C   UNL     1      -7.521 -11.223  17.964  0.00  0.00    +0.003 A 
ATOM     15  C   UNL     1      -8.892 -11.225  17.904  0.00  0.00    +0.046 A 
ATOM     16  C   UNL     1      -7.227 -11.151  19.338  0.00  0.00    +0.064 A 
ATOM     21  C   UNL     1      -9.809 -11.286  16.748  0.00  0.00    +0.066 C 
ATOM     24  C   UNL     1      -5.902 -11.119  19.980  0.00  0.00    +0.068 C 
BRANCH   5  22
ATOM     22  C   UNL     1     -10.648 -11.132  19.630  0.00  0.00    +0.066 A 
ATOM     25  C   UNL     1     -13.302 -11.080  20.486  0.00  0.00    -0.042 A 
ATOM     26  C   UNL     1     -11.327 -12.327  19.867  0.00  0.00    +0.028 A 
ATOM     27  C   UNL     1     -11.296  -9.911  19.820  0.00  0.00    +0.028 A 
ATOM     29  C   UNL     1     -12.655 -12.300  20.295  0.00  0.00    +0.006 A 
ATOM     30  C   UNL     1     -12.623  -9.886  20.248  0.00  0.00    +0.006 A 
BRANCH  25  23
ATOM     23  C   UNL     1     -14.722 -11.053  20.943  0.00  0.00    -0.013 C 
ATOM     31  C   UNL     1     -14.874 -11.699  22.356  0.00  0.00    +0.015 C 
ATOM     32  C   UNL     1     -15.647 -11.841  19.965  0.00  0.00    +0.015 C 
ATOM     33  C   UNL     1     -15.361  -9.631  21.066  0.00  0.00    +0.015 C 
ENDBRANCH  25  23
ENDBRANCH   5  22
ENDBRANCH   7  10
BRANCH   9   4
ATOM      1  O   UNL     1      -1.938 -11.070  14.637  0.00  0.00    -0.276 OA
ATOM      4  N   UNL     1      -4.157 -10.403  14.762  0.00  0.00    -0.309 N 
ATOM     17  C   UNL     1      -2.975 -10.689  14.099  0.00  0.00    +0.214 C 
ATOM     34  H   UNL     1      -4.950 -10.059  14.226  0.00  0.00    +0.149 HD
BRANCH  17  14
ATOM     14  C   UNL     1      -3.071 -10.489  12.594  0.00  0.00    +0.102 C 
BRANCH  14  13
ATOM     13  C   UNL     1      -3.942 -11.536  11.854  0.00  0.00    -0.017 C 
ATOM     19  C   UNL     1      -5.410 -11.065  11.786  0.00  0.00    +0.012 C 
ATOM     20  C   UNL     1      -3.424 -11.644  10.403  0.00  0.00    +0.012 C 
BRANCH  13  18
ATOM     18  C   UNL     1      -3.917 -12.927  12.532  0.00  0.00    +0.127 C 
BRANCH  18  28
ATOM      3  O   UNL     1      -2.879 -14.741  11.310  0.00  0.00    -0.251 OA
ATOM     28  C   UNL     1      -2.771 -13.820  12.110  0.00  0.00    +0.305 C 
BRANCH  28   2
ATOM      2  O   UNL     1      -1.602 -13.501  12.718  0.00  0.00    -0.481 OA
ATOM     35  H   UNL     1      -1.618 -12.592  13.085  0.00  0.00    +0.295 HD
ENDBRANCH  28   2
ENDBRANCH  18  28
ENDBRANCH  13  18
ENDBRANCH  14  13
ENDBRANCH  17  14
ENDBRANCH   9   4
TORSDOF 9
ENDMDL
