REMARK  Name = 86769017
REMARK  5 active torsions:
REMARK  status: ('A' for Active; 'I' for Inactive)
REMARK    1  A    between atoms: O_3  and  C_24
REMARK    2  A    between atoms: O_3  and  C_25
REMARK    3  A    between atoms: N_4  and  C_9
REMARK    4  A    between atoms: N_6  and  C_18
REMARK    5  A    between atoms: C_18  and  C_19
REMARK                            x       y       z     vdW  Elec       q    Type
REMARK                         _______ _______ _______ _____ _____    ______ ____
ROOT
ATOM      2  O   UNL     1       1.133  -3.048  -1.085  0.00  0.00    -0.252 OA
ATOM      4  N   UNL     1      -3.072  -0.425   0.012  0.00  0.00    -0.296 NA
ATOM      5  N   UNL     1      -0.715  -1.954  -0.133  0.00  0.00    -0.278 N 
ATOM      6  N   UNL     1       1.282  -1.736   0.870  0.00  0.00    -0.279 N 
ATOM      7  C   UNL     1      -0.996  -1.209   1.077  0.00  0.00    +0.109 C 
ATOM      8  C   UNL     1      -1.874   0.002   0.764  0.00  0.00    +0.108 C 
ATOM     10  C   UNL     1      -2.692  -1.072  -1.260  0.00  0.00    +0.104 C 
ATOM     11  C   UNL     1       0.390  -0.873   1.625  0.00  0.00    +0.133 C 
ATOM     12  C   UNL     1      -1.805  -2.296  -1.023  0.00  0.00    +0.125 C 
ATOM     15  C   UNL     1       0.629  -2.339  -0.223  0.00  0.00    +0.305 C 
ENDROOT
BRANCH   4   9
ATOM      1  O   UNL     1      -6.489   2.009   0.164  0.00  0.00    -0.380 OA
ATOM      9  C   UNL     1      -3.948   0.716  -0.239  0.00  0.00    +0.061 C 
ATOM     13  C   UNL     1      -4.307   1.433   1.067  0.00  0.00    +0.047 C 
ATOM     14  C   UNL     1      -5.223   0.261  -0.954  0.00  0.00    +0.047 C 
ATOM     16  C   UNL     1      -5.326   2.536   0.802  0.00  0.00    +0.161 C 
ATOM     17  C   UNL     1      -6.191   1.429  -1.107  0.00  0.00    +0.161 C 
ENDBRANCH   4   9
BRANCH   6  18
ATOM     18  C   UNL     1       2.698  -1.812   1.156  0.00  0.00    +0.144 C 
BRANCH  18  19
ATOM     19  C   UNL     1       3.457  -0.669   0.546  0.00  0.00    -0.030 A 
ATOM     20  C   UNL     1       3.714  -0.655  -0.825  0.00  0.00    +0.009 A 
ATOM     21  C   UNL     1       3.904   0.378   1.351  0.00  0.00    +0.009 A 
ATOM     22  C   UNL     1       4.419   0.407  -1.391  0.00  0.00    +0.046 A 
ATOM     23  C   UNL     1       4.609   1.440   0.785  0.00  0.00    +0.046 A 
ATOM     24  C   UNL     1       4.867   1.455  -0.586  0.00  0.00    +0.120 A 
BRANCH  24   3
ATOM      3  O   UNL     1       5.554   2.492  -1.138  0.00  0.00    -0.495 OA
ATOM     25  C   UNL     1       5.982   3.530  -0.258  0.00  0.00    +0.277 C 
ENDBRANCH  24   3
ENDBRANCH  18  19
ENDBRANCH   6  18
TORSDOF 4
