REMARK  Name = 45783330
REMARK  6 active torsions:
REMARK  status: ('A' for Active; 'I' for Inactive)
REMARK    1  A    between atoms: N_3  and  C_14
REMARK    2  A    between atoms: C_9  and  C_19
REMARK    3  A    between atoms: C_13  and  C_22
REMARK    4  A    between atoms: C_14  and  C_20
REMARK    5  A    between atoms: C_23  and  C_25
REMARK    6  A    between atoms: C_32  and  C_33
REMARK                            x       y       z     vdW  Elec       q    Type
REMARK                         _______ _______ _______ _____ _____    ______ ____
ROOT
ATOM      1  O   UNL     1      -3.604  -2.104   0.275  0.00  0.00    -0.336 OA
ATOM      5  N   UNL     1      -1.927  -0.869  -0.550  0.00  0.00    -0.190 NA
ATOM      6  N   UNL     1      -2.424  -2.666   0.777  0.00  0.00    -0.056 NA
ATOM     19  C   UNL     1      -3.223  -1.052  -0.496  0.00  0.00    +0.245 A 
ATOM     23  C   UNL     1      -1.480  -1.883   0.246  0.00  0.00    +0.202 A 
ENDROOT
BRANCH  23  25
ATOM      4  N   UNL     1       3.134  -0.623  -0.410  0.00  0.00    -0.315 N 
ATOM      7  N   UNL     1       2.646  -2.485   0.969  0.00  0.00    -0.240 NA
ATOM     13  C   UNL     1       5.117   1.107  -1.636  0.00  0.00    +0.078 C 
ATOM     15  C   UNL     1       5.103  -0.402  -1.872  0.00  0.00    +0.031 C 
ATOM     16  C   UNL     1       3.735   1.620  -1.238  0.00  0.00    +0.031 C 
ATOM     17  C   UNL     1       4.457  -1.176  -0.723  0.00  0.00    +0.107 C 
ATOM     18  C   UNL     1       3.086   0.812  -0.113  0.00  0.00    +0.107 C 
ATOM     21  C   UNL     1       2.199  -1.481   0.180  0.00  0.00    +0.122 A 
ATOM     24  C   UNL     1       0.861  -1.242  -0.088  0.00  0.00    +0.055 A 
ATOM     25  C   UNL     1      -0.080  -2.088   0.490  0.00  0.00    +0.027 A 
ATOM     28  C   UNL     1       0.341  -3.131   1.307  0.00  0.00    +0.031 A 
ATOM     31  C   UNL     1       1.703  -3.286   1.513  0.00  0.00    +0.113 A 
BRANCH  13  22
ATOM      2  O   UNL     1       5.869   2.078   0.416  0.00  0.00    -0.276 OA
ATOM      8  N   UNL     1       7.428   1.081  -0.951  0.00  0.00    -0.329 N 
ATOM     22  C   UNL     1       6.154   1.471  -0.613  0.00  0.00    +0.214 C 
ATOM     34  H   UNL     1       8.209   1.272  -0.333  0.00  0.00    +0.145 HD
ATOM     35  H   UNL     1       7.653   0.635  -1.835  0.00  0.00    +0.145 HD
ENDBRANCH  13  22
ENDBRANCH  23  25
BRANCH  19   9
ATOM      3  N   UNL     1      -3.958   1.141  -1.414  0.00  0.00    -0.287 NA
ATOM      9  C   UNL     1      -4.332  -0.265  -1.162  0.00  0.00    +0.146 C 
ATOM     10  C   UNL     1      -4.709  -0.825  -2.546  0.00  0.00    +0.030 C 
ATOM     11  C   UNL     1      -4.576   0.353  -3.501  0.00  0.00    +0.017 C 
ATOM     12  C   UNL     1      -4.710   1.562  -2.597  0.00  0.00    +0.085 C 
BRANCH   3  14
ATOM     14  C   UNL     1      -4.198   2.013  -0.272  0.00  0.00    +0.120 C 
BRANCH  14  20
ATOM     20  C   UNL     1      -3.109   1.898   0.760  0.00  0.00    -0.033 A 
ATOM     26  C   UNL     1      -3.422   1.513   2.064  0.00  0.00    +0.005 A 
ATOM     27  C   UNL     1      -1.787   2.179   0.414  0.00  0.00    +0.005 A 
ATOM     29  C   UNL     1      -2.413   1.409   3.022  0.00  0.00    +0.003 A 
ATOM     30  C   UNL     1      -0.778   2.075   1.372  0.00  0.00    +0.003 A 
ATOM     32  C   UNL     1      -1.091   1.690   2.675  0.00  0.00    -0.050 A 
ATOM     33  C   UNL     1      -0.013   1.579   3.700  0.00  0.00    +0.044 C 
ENDBRANCH  14  20
ENDBRANCH   3  14
ENDBRANCH  19   9
TORSDOF 5
