REMARK  Name = 26744419
REMARK  5 active torsions:
REMARK  status: ('A' for Active; 'I' for Inactive)
REMARK    1  A    between atoms: O_2  and  C_11
REMARK    2  A    between atoms: N_4  and  C_13
REMARK    3  A    between atoms: C_9  and  C_14
REMARK    4  A    between atoms: C_13  and  C_15
REMARK    5  A    between atoms: C_16  and  C_18
REMARK                            x       y       z     vdW  Elec       q    Type
REMARK                         _______ _______ _______ _____ _____    ______ ____
ROOT
ATOM      4  N   UNL     1      -2.935   0.170   0.490  0.00  0.00    -0.282 NA
ATOM      9  C   UNL     1      -2.397   0.781  -0.742  0.00  0.00    +0.149 C 
ATOM     10  C   UNL     1      -2.732   2.279  -0.617  0.00  0.00    +0.061 C 
ATOM     11  C   UNL     1      -3.497   2.404   0.695  0.00  0.00    +0.130 C 
ATOM     12  C   UNL     1      -4.053   1.010   0.915  0.00  0.00    +0.117 C 
ENDROOT
BRANCH   9  14
ATOM      3  O   UNL     1      -0.542  -0.097  -2.070  0.00  0.00    -0.336 OA
ATOM      5  N   UNL     1       0.080   0.815  -0.121  0.00  0.00    -0.190 NA
ATOM      8  N   UNL     1       0.851  -0.223  -2.008  0.00  0.00    -0.056 NA
ATOM     14  C   UNL     1      -0.915   0.525  -0.920  0.00  0.00    +0.245 A 
ATOM     16  C   UNL     1       1.143   0.337  -0.830  0.00  0.00    +0.202 A 
BRANCH  16  18
ATOM      1  F   UNL     1       6.349   0.723   1.092  0.00  0.00    -0.205 F 
ATOM     18  C   UNL     1       2.485   0.436  -0.335  0.00  0.00    +0.023 A 
ATOM     20  C   UNL     1       2.730   1.033   0.902  0.00  0.00    +0.014 A 
ATOM     21  C   UNL     1       3.546  -0.064  -1.089  0.00  0.00    +0.014 A 
ATOM     22  C   UNL     1       4.035   1.130   1.384  0.00  0.00    +0.039 A 
ATOM     23  C   UNL     1       4.851   0.033  -0.607  0.00  0.00    +0.039 A 
ATOM     24  C   UNL     1       5.096   0.630   0.629  0.00  0.00    +0.123 A 
ENDBRANCH  16  18
ENDBRANCH   9  14
BRANCH  11   2
ATOM      2  O   UNL     1      -4.525   3.369   0.586  0.00  0.00    -0.390 OA
ATOM     25  H   UNL     1      -4.106   4.219   0.370  0.00  0.00    +0.210 HD
ENDBRANCH  11   2
BRANCH   4  13
ATOM     13  C   UNL     1      -3.331  -1.222   0.316  0.00  0.00    +0.159 C 
BRANCH  13  15
ATOM      6  N   UNL     1      -1.326  -2.208   1.449  0.00  0.00    -0.347 N 
ATOM      7  N   UNL     1      -1.763  -2.981  -0.586  0.00  0.00    -0.239 NA
ATOM     15  C   UNL     1      -2.147  -2.151   0.358  0.00  0.00    +0.121 A 
ATOM     17  C   UNL     1      -0.356  -3.134   1.184  0.00  0.00    +0.104 A 
ATOM     19  C   UNL     1      -0.647  -3.597  -0.077  0.00  0.00    +0.130 A 
ATOM     26  H   UNL     1      -1.416  -1.664   2.297  0.00  0.00    +0.167 HD
ENDBRANCH  13  15
ENDBRANCH   4  13
TORSDOF 5
