MODEL 1
REMARK VINA RESULT:      -5.0      0.000      0.000
REMARK  Name = 56775540
REMARK  7 active torsions:
REMARK  status: ('A' for Active; 'I' for Inactive)
REMARK    1  A    between atoms: O_3  and  C_19
REMARK    2  A    between atoms: O_3  and  C_20
REMARK    3  A    between atoms: N_4  and  C_6
REMARK    4  A    between atoms: N_4  and  C_7
REMARK    5  A    between atoms: C_6  and  C_12
REMARK    6  A    between atoms: C_12  and  C_16
REMARK    7  A    between atoms: C_18  and  C_19
REMARK                            x       y       z     vdW  Elec       q    Type
REMARK                         _______ _______ _______ _____ _____    ______ ____
ROOT
ATOM      1  O   UNL     1      11.238   6.687  20.628  0.00  0.00    -0.376 OA
ATOM      6  C   UNL     1      12.568   8.315  20.999  0.00  0.00    +0.072 C 
ATOM      8  C   UNL     1      11.156   8.120  20.458  0.00  0.00    +0.184 C 
ATOM      9  C   UNL     1      12.543   6.809  21.238  0.00  0.00    +0.184 C 
ENDROOT
BRANCH   6   4
ATOM      4  N   UNL     1      12.489   8.999  22.292  0.00  0.00    -0.304 NA
ATOM     21  H   UNL     1      11.655   8.794  22.842  0.00  0.00    +0.123 HD
BRANCH   4   7
ATOM      7  C   UNL     1      12.617  10.440  22.084  0.00  0.00    +0.054 C 
ATOM     10  C   UNL     1      11.250  11.113  22.241  0.00  0.00    +0.019 C 
ATOM     11  C   UNL     1      13.636  11.020  23.070  0.00  0.00    +0.019 C 
ATOM     13  C   UNL     1      11.358  12.631  22.107  0.00  0.00    +0.002 C 
ATOM     14  C   UNL     1      13.742  12.538  22.933  0.00  0.00    +0.002 C 
ATOM     15  C   UNL     1      12.381  13.212  23.079  0.00  0.00    +0.000 C 
ENDBRANCH   4   7
ENDBRANCH   6   4
BRANCH   6  12
ATOM     12  C   UNL     1      13.619   8.889  20.098  0.00  0.00    +0.085 C 
BRANCH  12  16
ATOM      2  O   UNL     1      16.763   7.661  21.388  0.00  0.00    -0.357 OA
ATOM      5  N   UNL     1      15.592   8.401  21.499  0.00  0.00    -0.083 NA
ATOM     16  C   UNL     1      14.957   8.221  20.338  0.00  0.00    +0.086 A 
ATOM     17  C   UNL     1      15.670   7.383  19.464  0.00  0.00    +0.073 A 
ATOM     18  C   UNL     1      16.798   7.059  20.171  0.00  0.00    +0.163 A 
BRANCH  18  19
ATOM     19  C   UNL     1      17.975   6.231  19.884  0.00  0.00    +0.236 C 
BRANCH  19   3
ATOM      3  O   UNL     1      19.129   6.766  20.538  0.00  0.00    -0.375 OA
ATOM     20  C   UNL     1      20.120   5.769  20.726  0.00  0.00    +0.194 C 
ENDBRANCH  19   3
ENDBRANCH  18  19
ENDBRANCH  12  16
ENDBRANCH   6  12
TORSDOF 6
ENDMDL
MODEL 2
REMARK VINA RESULT:      -4.9      1.975      2.834
REMARK  Name = 56775540
REMARK  7 active torsions:
REMARK  status: ('A' for Active; 'I' for Inactive)
REMARK    1  A    between atoms: O_3  and  C_19
REMARK    2  A    between atoms: O_3  and  C_20
REMARK    3  A    between atoms: N_4  and  C_6
REMARK    4  A    between atoms: N_4  and  C_7
REMARK    5  A    between atoms: C_6  and  C_12
REMARK    6  A    between atoms: C_12  and  C_16
REMARK    7  A    between atoms: C_18  and  C_19
REMARK                            x       y       z     vdW  Elec       q    Type
REMARK                         _______ _______ _______ _____ _____    ______ ____
ROOT
ATOM      1  O   UNL     1      12.822   7.390  17.211  0.00  0.00    -0.376 OA
ATOM      6  C   UNL     1      13.985   7.735  18.967  0.00  0.00    +0.072 C 
ATOM      8  C   UNL     1      14.238   7.464  17.489  0.00  0.00    +0.184 C 
ATOM      9  C   UNL     1      12.509   7.738  18.579  0.00  0.00    +0.184 C 
ENDROOT
BRANCH   6   4
ATOM      4  N   UNL     1      14.394   9.107  19.274  0.00  0.00    -0.304 NA
ATOM     21  H   UNL     1      15.396   9.287  19.210  0.00  0.00    +0.123 HD
BRANCH   4   7
ATOM      7  C   UNL     1      13.897   9.475  20.597  0.00  0.00    +0.054 C 
ATOM     10  C   UNL     1      15.043  10.026  21.452  0.00  0.00    +0.019 C 
ATOM     11  C   UNL     1      12.765  10.499  20.462  0.00  0.00    +0.019 C 
ATOM     13  C   UNL     1      14.545  10.492  22.819  0.00  0.00    +0.002 C 
ATOM     14  C   UNL     1      12.269  10.965  21.830  0.00  0.00    +0.002 C 
ATOM     15  C   UNL     1      13.410  11.504  22.689  0.00  0.00    +0.000 C 
ENDBRANCH   4   7
ENDBRANCH   6   4
BRANCH   6  12
ATOM     12  C   UNL     1      14.465   6.742  19.982  0.00  0.00    +0.085 C 
BRANCH  12  16
ATOM      2  O   UNL     1      17.848   5.831  19.097  0.00  0.00    -0.357 OA
ATOM      5  N   UNL     1      16.473   5.793  18.902  0.00  0.00    -0.083 NA
ATOM     16  C   UNL     1      15.964   6.549  19.879  0.00  0.00    +0.086 A 
ATOM     17  C   UNL     1      16.960   7.087  20.712  0.00  0.00    +0.073 A 
ATOM     18  C   UNL     1      18.126   6.604  20.178  0.00  0.00    +0.163 A 
BRANCH  18  19
ATOM     19  C   UNL     1      19.543   6.754  20.529  0.00  0.00    +0.236 C 
BRANCH  19   3
ATOM      3  O   UNL     1      19.996   5.612  21.261  0.00  0.00    -0.375 OA
ATOM     20  C   UNL     1      21.001   4.911  20.548  0.00  0.00    +0.194 C 
ENDBRANCH  19   3
ENDBRANCH  18  19
ENDBRANCH  12  16
ENDBRANCH   6  12
TORSDOF 6
ENDMDL
MODEL 3
REMARK VINA RESULT:      -4.9     16.704     17.951
REMARK  Name = 56775540
REMARK  7 active torsions:
REMARK  status: ('A' for Active; 'I' for Inactive)
REMARK    1  A    between atoms: O_3  and  C_19
REMARK    2  A    between atoms: O_3  and  C_20
REMARK    3  A    between atoms: N_4  and  C_6
REMARK    4  A    between atoms: N_4  and  C_7
REMARK    5  A    between atoms: C_6  and  C_12
REMARK    6  A    between atoms: C_12  and  C_16
REMARK    7  A    between atoms: C_18  and  C_19
REMARK                            x       y       z     vdW  Elec       q    Type
REMARK                         _______ _______ _______ _____ _____    ______ ____
ROOT
ATOM      1  O   UNL     1       9.052   8.802   2.637  0.00  0.00    -0.376 OA
ATOM      6  C   UNL     1       9.871   7.303   3.917  0.00  0.00    +0.072 C 
ATOM      8  C   UNL     1       9.479   8.772   4.017  0.00  0.00    +0.184 C 
ATOM      9  C   UNL     1       9.313   7.386   2.500  0.00  0.00    +0.184 C 
ENDROOT
BRANCH   6   4
ATOM      4  N   UNL     1       8.953   6.511   4.739  0.00  0.00    -0.304 NA
ATOM     21  H   UNL     1       7.982   6.821   4.729  0.00  0.00    +0.123 HD
BRANCH   4   7
ATOM      7  C   UNL     1       9.455   6.462   6.110  0.00  0.00    +0.054 C 
ATOM     10  C   UNL     1       8.497   7.210   7.043  0.00  0.00    +0.019 C 
ATOM     11  C   UNL     1       9.629   5.005   6.550  0.00  0.00    +0.019 C 
ATOM     13  C   UNL     1       8.949   7.116   8.500  0.00  0.00    +0.002 C 
ATOM     14  C   UNL     1      10.082   4.912   8.007  0.00  0.00    +0.002 C 
ATOM     15  C   UNL     1       9.136   5.666   8.938  0.00  0.00    +0.000 C 
ENDBRANCH   4   7
ENDBRANCH   6   4
BRANCH   6  12
ATOM     12  C   UNL     1      11.307   6.918   4.109  0.00  0.00    +0.085 C 
BRANCH  12  16
ATOM      2  O   UNL     1      11.479   3.632   2.615  0.00  0.00    -0.357 OA
ATOM      5  N   UNL     1      10.915   4.563   3.479  0.00  0.00    -0.083 NA
ATOM     16  C   UNL     1      11.641   5.673   3.315  0.00  0.00    +0.086 A 
ATOM     17  C   UNL     1      12.667   5.504   2.369  0.00  0.00    +0.073 A 
ATOM     18  C   UNL     1      12.522   4.204   1.960  0.00  0.00    +0.163 A 
BRANCH  18  19
ATOM     19  C   UNL     1      13.237   3.354   1.000  0.00  0.00    +0.236 C 
BRANCH  19   3
ATOM      3  O   UNL     1      14.577   3.125   1.444  0.00  0.00    -0.375 OA
ATOM     20  C   UNL     1      15.508   3.847   0.656  0.00  0.00    +0.194 C 
ENDBRANCH  19   3
ENDBRANCH  18  19
ENDBRANCH  12  16
ENDBRANCH   6  12
TORSDOF 6
ENDMDL
MODEL 4
REMARK VINA RESULT:      -4.8     25.837     28.415
REMARK  Name = 56775540
REMARK  7 active torsions:
REMARK  status: ('A' for Active; 'I' for Inactive)
REMARK    1  A    between atoms: O_3  and  C_19
REMARK    2  A    between atoms: O_3  and  C_20
REMARK    3  A    between atoms: N_4  and  C_6
REMARK    4  A    between atoms: N_4  and  C_7
REMARK    5  A    between atoms: C_6  and  C_12
REMARK    6  A    between atoms: C_12  and  C_16
REMARK    7  A    between atoms: C_18  and  C_19
REMARK                            x       y       z     vdW  Elec       q    Type
REMARK                         _______ _______ _______ _____ _____    ______ ____
ROOT
ATOM      1  O   UNL     1      -0.923 -11.143  15.364  0.00  0.00    -0.376 OA
ATOM      6  C   UNL     1      -2.384 -10.835  13.838  0.00  0.00    +0.072 C 
ATOM      8  C   UNL     1      -1.409  -9.987  14.646  0.00  0.00    +0.184 C 
ATOM      9  C   UNL     1      -1.753 -12.018  14.567  0.00  0.00    +0.184 C 
ENDROOT
BRANCH   6   4
ATOM      4  N   UNL     1      -1.947 -10.856  12.440  0.00  0.00    -0.304 NA
ATOM     21  H   UNL     1      -1.163 -10.241  12.220  0.00  0.00    +0.123 HD
BRANCH   4   7
ATOM      7  C   UNL     1      -3.085 -10.556  11.575  0.00  0.00    +0.054 C 
ATOM     10  C   UNL     1      -2.727  -9.415  10.617  0.00  0.00    +0.019 C 
ATOM     11  C   UNL     1      -3.501 -11.814  10.806  0.00  0.00    +0.019 C 
ATOM     13  C   UNL     1      -3.868  -9.124   9.644  0.00  0.00    +0.002 C 
ATOM     14  C   UNL     1      -4.642 -11.521   9.833  0.00  0.00    +0.002 C 
ATOM     15  C   UNL     1      -4.293 -10.378   8.884  0.00  0.00    +0.000 C 
ENDBRANCH   4   7
ENDBRANCH   6   4
BRANCH   6  12
ATOM     12  C   UNL     1      -3.855 -10.593  13.987  0.00  0.00    +0.085 C 
BRANCH  12  16
ATOM      2  O   UNL     1      -5.212 -12.403  16.804  0.00  0.00    -0.357 OA
ATOM      5  N   UNL     1      -4.876 -12.290  15.461  0.00  0.00    -0.083 NA
ATOM     16  C   UNL     1      -4.346 -11.070  15.338  0.00  0.00    +0.086 A 
ATOM     17  C   UNL     1      -4.320 -10.374  16.559  0.00  0.00    +0.073 A 
ATOM     18  C   UNL     1      -4.877 -11.255  17.448  0.00  0.00    +0.163 A 
BRANCH  18  19
ATOM     19  C   UNL     1      -5.165 -11.203  18.886  0.00  0.00    +0.236 C 
BRANCH  19   3
ATOM      3  O   UNL     1      -6.494 -11.665  19.143  0.00  0.00    -0.375 OA
ATOM     20  C   UNL     1      -7.451 -10.665  18.838  0.00  0.00    +0.194 C 
ENDBRANCH  19   3
ENDBRANCH  18  19
ENDBRANCH  12  16
ENDBRANCH   6  12
TORSDOF 6
ENDMDL
MODEL 5
REMARK VINA RESULT:      -4.8     28.367     30.589
REMARK  Name = 56775540
REMARK  7 active torsions:
REMARK  status: ('A' for Active; 'I' for Inactive)
REMARK    1  A    between atoms: O_3  and  C_19
REMARK    2  A    between atoms: O_3  and  C_20
REMARK    3  A    between atoms: N_4  and  C_6
REMARK    4  A    between atoms: N_4  and  C_7
REMARK    5  A    between atoms: C_6  and  C_12
REMARK    6  A    between atoms: C_12  and  C_16
REMARK    7  A    between atoms: C_18  and  C_19
REMARK                            x       y       z     vdW  Elec       q    Type
REMARK                         _______ _______ _______ _____ _____    ______ ____
ROOT
ATOM      1  O   UNL     1     -10.752 -11.789  20.576  0.00  0.00    -0.376 OA
ATOM      6  C   UNL     1      -9.402 -11.027  19.109  0.00  0.00    +0.072 C 
ATOM      8  C   UNL     1     -10.478 -10.476  20.037  0.00  0.00    +0.184 C 
ATOM      9  C   UNL     1      -9.681 -12.362  19.792  0.00  0.00    +0.184 C 
ENDROOT
BRANCH   6   4
ATOM      4  N   UNL     1      -8.096 -10.533  19.553  0.00  0.00    -0.304 NA
ATOM     21  H   UNL     1      -8.013  -9.519  19.617  0.00  0.00    +0.123 HD
BRANCH   4   7
ATOM      7  C   UNL     1      -7.055 -11.073  18.682  0.00  0.00    +0.054 C 
ATOM     10  C   UNL     1      -6.226  -9.929  18.089  0.00  0.00    +0.019 C 
ATOM     11  C   UNL     1      -6.171 -12.047  19.468  0.00  0.00    +0.019 C 
ATOM     13  C   UNL     1      -5.078 -10.459  17.232  0.00  0.00    +0.002 C 
ATOM     14  C   UNL     1      -5.023 -12.575  18.609  0.00  0.00    +0.002 C 
ATOM     15  C   UNL     1      -4.201 -11.438  18.007  0.00  0.00    +0.000 C 
ENDBRANCH   4   7
ENDBRANCH   6   4
BRANCH   6  12
ATOM     12  C   UNL     1      -9.594 -10.917  17.627  0.00  0.00    +0.085 C 
BRANCH  12  16
ATOM      2  O   UNL     1     -10.053  -7.399  16.942  0.00  0.00    -0.357 OA
ATOM      5  N   UNL     1      -9.291  -8.481  17.364  0.00  0.00    -0.083 NA
ATOM     16  C   UNL     1     -10.098  -9.539  17.250  0.00  0.00    +0.086 A 
ATOM     17  C   UNL     1     -11.370  -9.190  16.764  0.00  0.00    +0.073 A 
ATOM     18  C   UNL     1     -11.290  -7.834  16.587  0.00  0.00    +0.163 A 
BRANCH  18  19
ATOM     19  C   UNL     1     -12.232  -6.813  16.113  0.00  0.00    +0.236 C 
BRANCH  19   3
ATOM      3  O   UNL     1     -11.526  -5.744  15.477  0.00  0.00    -0.375 OA
ATOM     20  C   UNL     1     -12.065  -5.466  14.196  0.00  0.00    +0.194 C 
ENDBRANCH  19   3
ENDBRANCH  18  19
ENDBRANCH  12  16
ENDBRANCH   6  12
TORSDOF 6
ENDMDL
MODEL 6
REMARK VINA RESULT:      -4.8     26.620     28.876
REMARK  Name = 56775540
REMARK  7 active torsions:
REMARK  status: ('A' for Active; 'I' for Inactive)
REMARK    1  A    between atoms: O_3  and  C_19
REMARK    2  A    between atoms: O_3  and  C_20
REMARK    3  A    between atoms: N_4  and  C_6
REMARK    4  A    between atoms: N_4  and  C_7
REMARK    5  A    between atoms: C_6  and  C_12
REMARK    6  A    between atoms: C_12  and  C_16
REMARK    7  A    between atoms: C_18  and  C_19
REMARK                            x       y       z     vdW  Elec       q    Type
REMARK                         _______ _______ _______ _____ _____    ______ ____
ROOT
ATOM      1  O   UNL     1      -5.434 -12.546  18.979  0.00  0.00    -0.376 OA
ATOM      6  C   UNL     1      -4.716 -11.416  17.316  0.00  0.00    +0.072 C 
ATOM      8  C   UNL     1      -4.244 -11.766  18.722  0.00  0.00    +0.184 C 
ATOM      9  C   UNL     1      -5.895 -12.332  17.626  0.00  0.00    +0.184 C 
ENDROOT
BRANCH   6   4
ATOM      4  N   UNL     1      -3.844 -12.081  16.345  0.00  0.00    -0.304 NA
ATOM     21  H   UNL     1      -3.027 -12.547  16.742  0.00  0.00    +0.123 HD
BRANCH   4   7
ATOM      7  C   UNL     1      -3.433 -11.118  15.327  0.00  0.00    +0.054 C 
ATOM     10  C   UNL     1      -1.908 -10.972  15.331  0.00  0.00    +0.019 C 
ATOM     11  C   UNL     1      -3.942 -11.564  13.952  0.00  0.00    +0.019 C 
ATOM     13  C   UNL     1      -1.435 -10.029  14.226  0.00  0.00    +0.002 C 
ATOM     14  C   UNL     1      -3.468 -10.619  12.849  0.00  0.00    +0.002 C 
ATOM     15  C   UNL     1      -1.949 -10.463  12.856  0.00  0.00    +0.000 C 
ENDBRANCH   4   7
ENDBRANCH   6   4
BRANCH   6  12
ATOM     12  C   UNL     1      -4.983  -9.981  16.974  0.00  0.00    +0.085 C 
BRANCH  12  16
ATOM      2  O   UNL     1      -8.238  -9.698  15.432  0.00  0.00    -0.357 OA
ATOM      5  N   UNL     1      -6.877  -9.973  15.391  0.00  0.00    -0.083 NA
ATOM     16  C   UNL     1      -6.444  -9.771  16.638  0.00  0.00    +0.086 A 
ATOM     17  C   UNL     1      -7.478  -9.372  17.503  0.00  0.00    +0.073 A 
ATOM     18  C   UNL     1      -8.585  -9.341  16.695  0.00  0.00    +0.163 A 
BRANCH  18  19
ATOM     19  C   UNL     1      -9.998  -9.014  16.919  0.00  0.00    +0.236 C 
BRANCH  19   3
ATOM      3  O   UNL     1     -10.154  -7.607  17.127  0.00  0.00    -0.375 OA
ATOM     20  C   UNL     1     -10.245  -6.914  15.893  0.00  0.00    +0.194 C 
ENDBRANCH  19   3
ENDBRANCH  18  19
ENDBRANCH  12  16
ENDBRANCH   6  12
TORSDOF 6
ENDMDL
MODEL 7
REMARK VINA RESULT:      -4.8      2.888      3.866
REMARK  Name = 56775540
REMARK  7 active torsions:
REMARK  status: ('A' for Active; 'I' for Inactive)
REMARK    1  A    between atoms: O_3  and  C_19
REMARK    2  A    between atoms: O_3  and  C_20
REMARK    3  A    between atoms: N_4  and  C_6
REMARK    4  A    between atoms: N_4  and  C_7
REMARK    5  A    between atoms: C_6  and  C_12
REMARK    6  A    between atoms: C_12  and  C_16
REMARK    7  A    between atoms: C_18  and  C_19
REMARK                            x       y       z     vdW  Elec       q    Type
REMARK                         _______ _______ _______ _____ _____    ______ ____
ROOT
ATOM      1  O   UNL     1      12.315   6.795  21.516  0.00  0.00    -0.376 OA
ATOM      6  C   UNL     1      13.622   7.600  20.033  0.00  0.00    +0.072 C 
ATOM      8  C   UNL     1      12.295   6.852  20.072  0.00  0.00    +0.184 C 
ATOM      9  C   UNL     1      13.525   7.585  21.555  0.00  0.00    +0.184 C 
ENDROOT
BRANCH   6   4
ATOM      4  N   UNL     1      13.382   8.965  19.559  0.00  0.00    -0.304 NA
ATOM     21  H   UNL     1      12.465   9.350  19.786  0.00  0.00    +0.123 HD
BRANCH   4   7
ATOM      7  C   UNL     1      13.612   9.021  18.117  0.00  0.00    +0.054 C 
ATOM     10  C   UNL     1      12.271   9.073  17.376  0.00  0.00    +0.019 C 
ATOM     11  C   UNL     1      14.479  10.238  17.775  0.00  0.00    +0.019 C 
ATOM     13  C   UNL     1      12.473   9.210  15.868  0.00  0.00    +0.002 C 
ATOM     14  C   UNL     1      14.679  10.373  16.267  0.00  0.00    +0.002 C 
ATOM     15  C   UNL     1      13.346  10.413  15.524  0.00  0.00    +0.000 C 
ENDBRANCH   4   7
ENDBRANCH   6   4
BRANCH   6  12
ATOM     12  C   UNL     1      14.803   6.953  19.376  0.00  0.00    +0.085 C 
BRANCH  12  16
ATOM      2  O   UNL     1      17.623   8.550  20.973  0.00  0.00    -0.357 OA
ATOM      5  N   UNL     1      16.418   8.585  20.282  0.00  0.00    -0.083 NA
ATOM     16  C   UNL     1      16.084   7.304  20.104  0.00  0.00    +0.086 A 
ATOM     17  C   UNL     1      17.030   6.424  20.657  0.00  0.00    +0.073 A 
ATOM     18  C   UNL     1      17.978   7.257  21.190  0.00  0.00    +0.163 A 
BRANCH  18  19
ATOM     19  C   UNL     1      19.235   7.036  21.914  0.00  0.00    +0.236 C 
BRANCH  19   3
ATOM      3  O   UNL     1      20.341   7.518  21.146  0.00  0.00    -0.375 OA
ATOM     20  C   UNL     1      21.103   8.460  21.882  0.00  0.00    +0.194 C 
ENDBRANCH  19   3
ENDBRANCH  18  19
ENDBRANCH  12  16
ENDBRANCH   6  12
TORSDOF 6
ENDMDL
MODEL 8
REMARK VINA RESULT:      -4.6     27.580     28.776
REMARK  Name = 56775540
REMARK  7 active torsions:
REMARK  status: ('A' for Active; 'I' for Inactive)
REMARK    1  A    between atoms: O_3  and  C_19
REMARK    2  A    between atoms: O_3  and  C_20
REMARK    3  A    between atoms: N_4  and  C_6
REMARK    4  A    between atoms: N_4  and  C_7
REMARK    5  A    between atoms: C_6  and  C_12
REMARK    6  A    between atoms: C_12  and  C_16
REMARK    7  A    between atoms: C_18  and  C_19
REMARK                            x       y       z     vdW  Elec       q    Type
REMARK                         _______ _______ _______ _____ _____    ______ ____
ROOT
ATOM      1  O   UNL     1      -3.644 -14.164  14.847  0.00  0.00    -0.376 OA
ATOM      6  C   UNL     1      -3.962 -12.166  14.168  0.00  0.00    +0.072 C 
ATOM      8  C   UNL     1      -2.892 -13.241  14.028  0.00  0.00    +0.184 C 
ATOM      9  C   UNL     1      -4.740 -13.226  14.941  0.00  0.00    +0.184 C 
ENDROOT
BRANCH   6   4
ATOM      4  N   UNL     1      -4.604 -11.965  12.867  0.00  0.00    -0.304 NA
ATOM     21  H   UNL     1      -4.446 -12.706  12.184  0.00  0.00    +0.123 HD
BRANCH   4   7
ATOM      7  C   UNL     1      -4.192 -10.675  12.320  0.00  0.00    +0.054 C 
ATOM     10  C   UNL     1      -3.006 -10.867  11.368  0.00  0.00    +0.019 C 
ATOM     11  C   UNL     1      -5.373 -10.010  11.605  0.00  0.00    +0.019 C 
ATOM     13  C   UNL     1      -2.595  -9.547  10.717  0.00  0.00    +0.002 C 
ATOM     14  C   UNL     1      -4.960  -8.691  10.954  0.00  0.00    +0.002 C 
ATOM     15  C   UNL     1      -3.772  -8.876  10.013  0.00  0.00    +0.000 C 
ENDBRANCH   4   7
ENDBRANCH   6   4
BRANCH   6  12
ATOM     12  C   UNL     1      -3.615 -10.878  14.853  0.00  0.00    +0.085 C 
BRANCH  12  16
ATOM      2  O   UNL     1      -6.190 -10.009  17.235  0.00  0.00    -0.357 OA
ATOM      5  N   UNL     1      -5.657 -10.030  15.952  0.00  0.00    -0.083 NA
ATOM     16  C   UNL     1      -4.488 -10.665  16.072  0.00  0.00    +0.086 A 
ATOM     17  C   UNL     1      -4.232 -11.066  17.395  0.00  0.00    +0.073 A 
ATOM     18  C   UNL     1      -5.332 -10.629  18.086  0.00  0.00    +0.163 A 
BRANCH  18  19
ATOM     19  C   UNL     1      -5.742 -10.698  19.494  0.00  0.00    +0.236 C 
BRANCH  19   3
ATOM      3  O   UNL     1      -7.163 -10.827  19.590  0.00  0.00    -0.375 OA
ATOM     20  C   UNL     1      -7.547 -12.186  19.715  0.00  0.00    +0.194 C 
ENDBRANCH  19   3
ENDBRANCH  18  19
ENDBRANCH  12  16
ENDBRANCH   6  12
TORSDOF 6
ENDMDL
MODEL 9
REMARK VINA RESULT:      -4.5     26.141     28.851
REMARK  Name = 56775540
REMARK  7 active torsions:
REMARK  status: ('A' for Active; 'I' for Inactive)
REMARK    1  A    between atoms: O_3  and  C_19
REMARK    2  A    between atoms: O_3  and  C_20
REMARK    3  A    between atoms: N_4  and  C_6
REMARK    4  A    between atoms: N_4  and  C_7
REMARK    5  A    between atoms: C_6  and  C_12
REMARK    6  A    between atoms: C_12  and  C_16
REMARK    7  A    between atoms: C_18  and  C_19
REMARK                            x       y       z     vdW  Elec       q    Type
REMARK                         _______ _______ _______ _____ _____    ______ ____
ROOT
ATOM      1  O   UNL     1     -15.635   8.688  22.809  0.00  0.00    -0.376 OA
ATOM      6  C   UNL     1     -14.244   7.927  21.380  0.00  0.00    +0.072 C 
ATOM      8  C   UNL     1     -15.753   7.919  21.591  0.00  0.00    +0.184 C 
ATOM      9  C   UNL     1     -14.207   8.815  22.620  0.00  0.00    +0.184 C 
ENDROOT
BRANCH   6   4
ATOM      4  N   UNL     1     -13.934   8.744  20.205  0.00  0.00    -0.304 NA
ATOM     21  H   UNL     1     -14.582   8.646  19.423  0.00  0.00    +0.123 HD
BRANCH   4   7
ATOM      7  C   UNL     1     -12.568   8.464  19.769  0.00  0.00    +0.054 C 
ATOM     10  C   UNL     1     -12.560   8.095  18.282  0.00  0.00    +0.019 C 
ATOM     11  C   UNL     1     -11.675   9.679  20.042  0.00  0.00    +0.019 C 
ATOM     13  C   UNL     1     -11.137   7.870  17.772  0.00  0.00    +0.002 C 
ATOM     14  C   UNL     1     -10.253   9.452  19.531  0.00  0.00    +0.002 C 
ATOM     15  C   UNL     1     -10.241   9.072  18.052  0.00  0.00    +0.000 C 
ENDBRANCH   4   7
ENDBRANCH   6   4
BRANCH   6  12
ATOM     12  C   UNL     1     -13.500   6.626  21.399  0.00  0.00    +0.085 C 
BRANCH  12  16
ATOM      2  O   UNL     1     -15.672   3.940  22.460  0.00  0.00    -0.357 OA
ATOM      5  N   UNL     1     -15.135   4.778  21.490  0.00  0.00    -0.083 NA
ATOM     16  C   UNL     1     -14.283   5.569  22.149  0.00  0.00    +0.086 A 
ATOM     17  C   UNL     1     -14.240   5.278  23.524  0.00  0.00    +0.073 A 
ATOM     18  C   UNL     1     -15.132   4.248  23.667  0.00  0.00    +0.163 A 
BRANCH  18  19
ATOM     19  C   UNL     1     -15.591   3.453  24.812  0.00  0.00    +0.236 C 
BRANCH  19   3
ATOM      3  O   UNL     1     -16.136   2.208  24.365  0.00  0.00    -0.375 OA
ATOM     20  C   UNL     1     -17.356   1.916  25.027  0.00  0.00    +0.194 C 
ENDBRANCH  19   3
ENDBRANCH  18  19
ENDBRANCH  12  16
ENDBRANCH   6  12
TORSDOF 6
ENDMDL
MODEL 10
REMARK VINA RESULT:      -4.5     16.875     18.941
REMARK  Name = 56775540
REMARK  7 active torsions:
REMARK  status: ('A' for Active; 'I' for Inactive)
REMARK    1  A    between atoms: O_3  and  C_19
REMARK    2  A    between atoms: O_3  and  C_20
REMARK    3  A    between atoms: N_4  and  C_6
REMARK    4  A    between atoms: N_4  and  C_7
REMARK    5  A    between atoms: C_6  and  C_12
REMARK    6  A    between atoms: C_12  and  C_16
REMARK    7  A    between atoms: C_18  and  C_19
REMARK                            x       y       z     vdW  Elec       q    Type
REMARK                         _______ _______ _______ _____ _____    ______ ____
ROOT
ATOM      1  O   UNL     1      10.540   9.247   2.289  0.00  0.00    -0.376 OA
ATOM      6  C   UNL     1      11.255   7.300   2.796  0.00  0.00    +0.072 C 
ATOM      8  C   UNL     1      10.057   8.178   3.135  0.00  0.00    +0.184 C 
ATOM      9  C   UNL     1      11.650   8.431   1.851  0.00  0.00    +0.184 C 
ENDROOT
BRANCH   6   4
ATOM      4  N   UNL     1      10.795   6.160   1.999  0.00  0.00    -0.304 NA
ATOM     21  H   UNL     1      10.132   5.542   2.467  0.00  0.00    +0.123 HD
BRANCH   4   7
ATOM      7  C   UNL     1      11.952   5.401   1.531  0.00  0.00    +0.054 C 
ATOM     10  C   UNL     1      11.861   3.953   2.025  0.00  0.00    +0.019 C 
ATOM     11  C   UNL     1      12.030   5.459   0.002  0.00  0.00    +0.019 C 
ATOM     13  C   UNL     1      13.017   3.108   1.491  0.00  0.00    +0.002 C 
ATOM     14  C   UNL     1      13.186   4.614  -0.530  0.00  0.00    +0.002 C 
ATOM     15  C   UNL     1      13.105   3.173  -0.032  0.00  0.00    +0.000 C 
ENDBRANCH   4   7
ENDBRANCH   6   4
BRANCH   6  12
ATOM     12  C   UNL     1      12.201   6.905   3.889  0.00  0.00    +0.085 C 
BRANCH  12  16
ATOM      2  O   UNL     1      10.123   5.086   6.219  0.00  0.00    -0.357 OA
ATOM      5  N   UNL     1      10.651   5.304   4.953  0.00  0.00    -0.083 NA
ATOM     16  C   UNL     1      11.444   6.371   5.088  0.00  0.00    +0.086 A 
ATOM     17  C   UNL     1      11.459   6.862   6.404  0.00  0.00    +0.073 A 
ATOM     18  C   UNL     1      10.612   6.020   7.076  0.00  0.00    +0.163 A 
BRANCH  18  19
ATOM     19  C   UNL     1      10.155   5.935   8.468  0.00  0.00    +0.236 C 
BRANCH  19   3
ATOM      3  O   UNL     1      10.090   4.569   8.886  0.00  0.00    -0.375 OA
ATOM     20  C   UNL     1       9.260   4.421  10.026  0.00  0.00    +0.194 C 
ENDBRANCH  19   3
ENDBRANCH  18  19
ENDBRANCH  12  16
ENDBRANCH   6  12
TORSDOF 6
ENDMDL
