MODEL 1
REMARK VINA RESULT:      -7.0      0.000      0.000
REMARK  Name = 71693244
REMARK  8 active torsions:
REMARK  status: ('A' for Active; 'I' for Inactive)
REMARK    1  A    between atoms: O_2  and  C_10
REMARK    2  A    between atoms: N_6  and  C_16
REMARK    3  A    between atoms: CA_7  and  C_10
REMARK    4  A    between atoms: C_8  and  C_9
REMARK    5  A    between atoms: C_15  and  C_19
REMARK    6  A    between atoms: C_15  and  C_21
REMARK    7  A    between atoms: C_15  and  C_22
REMARK    8  A    between atoms: C_19  and  C_20
REMARK                            x       y       z     vdW  Elec       q    Type
REMARK                         _______ _______ _______ _____ _____    ______ ____
ROOT
ATOM      9  C   UNL     1      15.886   7.414  19.558  0.00  0.00    -0.017 A 
ATOM     13  C   UNL     1      16.460   6.240  19.068  0.00  0.00    +0.008 A 
ATOM     14  C   UNL     1      16.591   8.210  20.462  0.00  0.00    +0.008 A 
ATOM     16  C   UNL     1      18.441   6.658  20.384  0.00  0.00    +0.033 A 
ATOM     17  C   UNL     1      17.737   5.862  19.482  0.00  0.00    +0.023 A 
ATOM     18  C   UNL     1      17.868   7.832  20.874  0.00  0.00    +0.023 A 
ENDROOT
BRANCH   9   8
ATOM      1  O   UNL     1      14.487   7.814  17.677  0.00  0.00    -0.361 OA
ATOM      3  O   UNL     1      10.944   7.969  17.135  0.00  0.00    -0.273 OA
ATOM      5  N   UNL     1      12.119   7.222  18.959  0.00  0.00    -0.306 N 
ATOM      7  CA  UNL     1      13.389   6.878  19.593  0.00  0.00    +0.131 C 
ATOM      8  C   UNL     1      14.501   7.824  19.110  0.00  0.00    +0.171 C 
ATOM     11  C   UNL     1      13.305   8.394  17.167  0.00  0.00    +0.256 C 
ATOM     12  C   UNL     1      12.014   7.827  17.726  0.00  0.00    +0.239 C 
ATOM     23  H   UNL     1      11.270   6.835  19.362  0.00  0.00    +0.149 HD
BRANCH   7  10
ATOM     10  C   UNL     1      13.228   6.892  21.111  0.00  0.00    +0.181 C 
BRANCH  10   2
ATOM      2  O   UNL     1      12.270   5.913  21.470  0.00  0.00    -0.393 OA
ATOM     25  H   UNL     1      11.453   6.385  21.707  0.00  0.00    +0.209 HD
ENDBRANCH  10   2
ENDBRANCH   7  10
ENDBRANCH   9   8
BRANCH  16   6
ATOM      4  O   UNL     1      19.583   6.359  23.145  0.00  0.00    -0.275 OA
ATOM      6  N   UNL     1      19.737   6.275  20.804  0.00  0.00    -0.285 N 
ATOM     20  C   UNL     1      20.203   6.143  22.109  0.00  0.00    +0.217 C 
ATOM     24  H   UNL     1      20.385   6.066  20.047  0.00  0.00    +0.155 HD
BRANCH  20  19
ATOM     19  C   UNL     1      21.666   5.709  22.115  0.00  0.00    +0.099 C 
BRANCH  19  15
ATOM     15  C   UNL     1      22.047   4.793  20.942  0.00  0.00    -0.008 C 
ATOM     21  C   UNL     1      21.779   3.332  21.308  0.00  0.00    +0.008 C 
ATOM     22  C   UNL     1      23.519   4.967  20.555  0.00  0.00    +0.008 C 
ENDBRANCH  19  15
ENDBRANCH  20  19
ENDBRANCH  16   6
TORSDOF 6
ENDMDL
MODEL 2
REMARK VINA RESULT:      -6.6      1.238      2.182
REMARK  Name = 71693244
REMARK  8 active torsions:
REMARK  status: ('A' for Active; 'I' for Inactive)
REMARK    1  A    between atoms: O_2  and  C_10
REMARK    2  A    between atoms: N_6  and  C_16
REMARK    3  A    between atoms: CA_7  and  C_10
REMARK    4  A    between atoms: C_8  and  C_9
REMARK    5  A    between atoms: C_15  and  C_19
REMARK    6  A    between atoms: C_15  and  C_21
REMARK    7  A    between atoms: C_15  and  C_22
REMARK    8  A    between atoms: C_19  and  C_20
REMARK                            x       y       z     vdW  Elec       q    Type
REMARK                         _______ _______ _______ _____ _____    ______ ____
ROOT
ATOM      9  C   UNL     1      15.739   6.769  19.896  0.00  0.00    -0.017 A 
ATOM     13  C   UNL     1      16.463   5.976  19.006  0.00  0.00    +0.008 A 
ATOM     14  C   UNL     1      16.385   7.375  20.975  0.00  0.00    +0.008 A 
ATOM     16  C   UNL     1      18.477   6.393  20.272  0.00  0.00    +0.033 A 
ATOM     17  C   UNL     1      17.832   5.787  19.194  0.00  0.00    +0.023 A 
ATOM     18  C   UNL     1      17.754   7.187  21.162  0.00  0.00    +0.023 A 
ENDROOT
BRANCH   9   8
ATOM      1  O   UNL     1      13.632   6.949  20.984  0.00  0.00    -0.361 OA
ATOM      3  O   UNL     1      10.426   8.296  20.102  0.00  0.00    -0.273 OA
ATOM      5  N   UNL     1      12.454   8.523  19.051  0.00  0.00    -0.306 N 
ATOM      7  CA  UNL     1      13.899   8.313  19.029  0.00  0.00    +0.131 C 
ATOM      8  C   UNL     1      14.254   6.973  19.693  0.00  0.00    +0.171 C 
ATOM     11  C   UNL     1      12.224   6.911  20.879  0.00  0.00    +0.256 C 
ATOM     12  C   UNL     1      11.613   7.986  20.001  0.00  0.00    +0.239 C 
ATOM     23  H   UNL     1      12.072   9.245  18.446  0.00  0.00    +0.149 HD
BRANCH   7  10
ATOM     10  C   UNL     1      14.412   8.411  17.595  0.00  0.00    +0.181 C 
BRANCH  10   2
ATOM      2  O   UNL     1      13.681   7.500  16.794  0.00  0.00    -0.393 OA
ATOM     25  H   UNL     1      13.819   6.613  17.169  0.00  0.00    +0.209 HD
ENDBRANCH  10   2
ENDBRANCH   7  10
ENDBRANCH   9   8
BRANCH  16   6
ATOM      4  O   UNL     1      20.061   6.026  22.796  0.00  0.00    -0.275 OA
ATOM      6  N   UNL     1      19.867   6.202  20.463  0.00  0.00    -0.285 N 
ATOM     20  C   UNL     1      20.542   6.025  21.667  0.00  0.00    +0.217 C 
ATOM     24  H   UNL     1      20.416   6.186  19.606  0.00  0.00    +0.155 HD
BRANCH  20  19
ATOM     19  C   UNL     1      22.038   5.855  21.423  0.00  0.00    +0.099 C 
BRANCH  19  15
ATOM     15  C   UNL     1      22.544   4.419  21.636  0.00  0.00    -0.008 C 
ATOM     21  C   UNL     1      21.519   3.417  21.102  0.00  0.00    +0.008 C 
ATOM     22  C   UNL     1      22.818   4.140  23.116  0.00  0.00    +0.008 C 
ENDBRANCH  19  15
ENDBRANCH  20  19
ENDBRANCH  16   6
TORSDOF 6
ENDMDL
MODEL 3
REMARK VINA RESULT:      -5.9     27.305     30.005
REMARK  Name = 71693244
REMARK  8 active torsions:
REMARK  status: ('A' for Active; 'I' for Inactive)
REMARK    1  A    between atoms: O_2  and  C_10
REMARK    2  A    between atoms: N_6  and  C_16
REMARK    3  A    between atoms: CA_7  and  C_10
REMARK    4  A    between atoms: C_8  and  C_9
REMARK    5  A    between atoms: C_15  and  C_19
REMARK    6  A    between atoms: C_15  and  C_21
REMARK    7  A    between atoms: C_15  and  C_22
REMARK    8  A    between atoms: C_19  and  C_20
REMARK                            x       y       z     vdW  Elec       q    Type
REMARK                         _______ _______ _______ _____ _____    ______ ____
ROOT
ATOM      9  C   UNL     1     -12.053   8.755  19.227  0.00  0.00    -0.017 A 
ATOM     13  C   UNL     1     -11.207   8.038  20.073  0.00  0.00    +0.008 A 
ATOM     14  C   UNL     1     -13.423   8.488  19.222  0.00  0.00    +0.008 A 
ATOM     16  C   UNL     1     -13.098   6.789  20.908  0.00  0.00    +0.033 A 
ATOM     17  C   UNL     1     -11.729   7.055  20.913  0.00  0.00    +0.023 A 
ATOM     18  C   UNL     1     -13.945   7.506  20.062  0.00  0.00    +0.023 A 
ENDROOT
BRANCH   9   8
ATOM      1  O   UNL     1     -10.985  10.878  19.143  0.00  0.00    -0.361 OA
ATOM      3  O   UNL     1      -9.047  12.651  16.699  0.00  0.00    -0.273 OA
ATOM      5  N   UNL     1      -9.708  10.453  16.737  0.00  0.00    -0.306 N 
ATOM      7  CA  UNL     1     -10.328   9.329  17.434  0.00  0.00    +0.131 C 
ATOM      8  C   UNL     1     -11.487   9.821  18.315  0.00  0.00    +0.171 C 
ATOM     11  C   UNL     1     -10.637  12.013  18.378  0.00  0.00    +0.256 C 
ATOM     12  C   UNL     1      -9.704  11.746  17.213  0.00  0.00    +0.239 C 
ATOM     23  H   UNL     1      -9.095  10.243  15.954  0.00  0.00    +0.149 HD
BRANCH   7  10
ATOM     10  C   UNL     1     -10.769   8.275  16.422  0.00  0.00    +0.181 C 
BRANCH  10   2
ATOM      2  O   UNL     1     -10.113   7.058  16.725  0.00  0.00    -0.393 OA
ATOM     25  H   UNL     1      -9.665   7.179  17.580  0.00  0.00    +0.209 HD
ENDBRANCH  10   2
ENDBRANCH   7  10
ENDBRANCH   9   8
BRANCH  16   6
ATOM      4  O   UNL     1     -14.970   7.022  23.244  0.00  0.00    -0.275 OA
ATOM      6  N   UNL     1     -13.628   5.792  21.760  0.00  0.00    -0.285 N 
ATOM     20  C   UNL     1     -14.507   5.965  22.826  0.00  0.00    +0.217 C 
ATOM     24  H   UNL     1     -13.327   4.844  21.546  0.00  0.00    +0.155 HD
BRANCH  20  19
ATOM     19  C   UNL     1     -14.826   4.625  23.482  0.00  0.00    +0.099 C 
BRANCH  19  15
ATOM     15  C   UNL     1     -16.194   4.584  24.180  0.00  0.00    -0.008 C 
ATOM     21  C   UNL     1     -16.101   3.773  25.473  0.00  0.00    +0.008 C 
ATOM     22  C   UNL     1     -17.267   3.982  23.268  0.00  0.00    +0.008 C 
ENDBRANCH  19  15
ENDBRANCH  20  19
ENDBRANCH  16   6
TORSDOF 6
ENDMDL
MODEL 4
REMARK VINA RESULT:      -5.8      2.374      8.439
REMARK  Name = 71693244
REMARK  8 active torsions:
REMARK  status: ('A' for Active; 'I' for Inactive)
REMARK    1  A    between atoms: O_2  and  C_10
REMARK    2  A    between atoms: N_6  and  C_16
REMARK    3  A    between atoms: CA_7  and  C_10
REMARK    4  A    between atoms: C_8  and  C_9
REMARK    5  A    between atoms: C_15  and  C_19
REMARK    6  A    between atoms: C_15  and  C_21
REMARK    7  A    between atoms: C_15  and  C_22
REMARK    8  A    between atoms: C_19  and  C_20
REMARK                            x       y       z     vdW  Elec       q    Type
REMARK                         _______ _______ _______ _____ _____    ______ ____
ROOT
ATOM      9  C   UNL     1      19.142   6.160  20.659  0.00  0.00    -0.017 A 
ATOM     13  C   UNL     1      18.298   6.814  21.556  0.00  0.00    +0.008 A 
ATOM     14  C   UNL     1      18.627   5.630  19.475  0.00  0.00    +0.008 A 
ATOM     16  C   UNL     1      16.423   6.408  20.088  0.00  0.00    +0.033 A 
ATOM     17  C   UNL     1      16.938   6.937  21.271  0.00  0.00    +0.023 A 
ATOM     18  C   UNL     1      17.267   5.755  19.190  0.00  0.00    +0.023 A 
ENDROOT
BRANCH   9   8
ATOM      1  O   UNL     1      21.075   4.803  20.374  0.00  0.00    -0.361 OA
ATOM      3  O   UNL     1      24.614   5.345  20.599  0.00  0.00    -0.273 OA
ATOM      5  N   UNL     1      22.895   6.865  20.566  0.00  0.00    -0.306 N 
ATOM      7  CA  UNL     1      21.475   7.168  20.403  0.00  0.00    +0.131 C 
ATOM      8  C   UNL     1      20.617   6.025  20.968  0.00  0.00    +0.171 C 
ATOM     11  C   UNL     1      22.384   4.482  20.795  0.00  0.00    +0.256 C 
ATOM     12  C   UNL     1      23.408   5.588  20.620  0.00  0.00    +0.239 C 
ATOM     23  H   UNL     1      23.556   7.628  20.452  0.00  0.00    +0.149 HD
BRANCH   7  10
ATOM     10  C   UNL     1      21.157   8.513  21.050  0.00  0.00    +0.181 C 
BRANCH  10   2
ATOM      2  O   UNL     1      21.843   9.527  20.338  0.00  0.00    -0.393 OA
ATOM     25  H   UNL     1      22.611   9.109  19.912  0.00  0.00    +0.209 HD
ENDBRANCH  10   2
ENDBRANCH   7  10
ENDBRANCH   9   8
BRANCH  16   6
ATOM      4  O   UNL     1      14.922   8.601  18.691  0.00  0.00    -0.275 OA
ATOM      6  N   UNL     1      15.044   6.534  19.798  0.00  0.00    -0.285 N 
ATOM     20  C   UNL     1      14.408   7.579  19.132  0.00  0.00    +0.217 C 
ATOM     24  H   UNL     1      14.470   5.755  20.114  0.00  0.00    +0.155 HD
BRANCH  20  19
ATOM     19  C   UNL     1      12.908   7.317  19.034  0.00  0.00    +0.099 C 
BRANCH  19  15
ATOM     15  C   UNL     1      12.124   7.711  20.295  0.00  0.00    -0.008 C 
ATOM     21  C   UNL     1      11.668   6.457  21.044  0.00  0.00    +0.008 C 
ATOM     22  C   UNL     1      10.908   8.576  19.947  0.00  0.00    +0.008 C 
ENDBRANCH  19  15
ENDBRANCH  20  19
ENDBRANCH  16   6
TORSDOF 6
ENDMDL
MODEL 5
REMARK VINA RESULT:      -5.8     26.977     30.751
REMARK  Name = 71693244
REMARK  8 active torsions:
REMARK  status: ('A' for Active; 'I' for Inactive)
REMARK    1  A    between atoms: O_2  and  C_10
REMARK    2  A    between atoms: N_6  and  C_16
REMARK    3  A    between atoms: CA_7  and  C_10
REMARK    4  A    between atoms: C_8  and  C_9
REMARK    5  A    between atoms: C_15  and  C_19
REMARK    6  A    between atoms: C_15  and  C_21
REMARK    7  A    between atoms: C_15  and  C_22
REMARK    8  A    between atoms: C_19  and  C_20
REMARK                            x       y       z     vdW  Elec       q    Type
REMARK                         _______ _______ _______ _____ _____    ______ ____
ROOT
ATOM      9  C   UNL     1      -6.385 -11.016  16.895  0.00  0.00    -0.017 A 
ATOM     13  C   UNL     1      -7.277 -12.044  17.200  0.00  0.00    +0.008 A 
ATOM     14  C   UNL     1      -6.798  -9.685  16.982  0.00  0.00    +0.008 A 
ATOM     16  C   UNL     1      -8.993 -10.414  17.681  0.00  0.00    +0.033 A 
ATOM     17  C   UNL     1      -8.581 -11.743  17.592  0.00  0.00    +0.023 A 
ATOM     18  C   UNL     1      -8.102  -9.385  17.376  0.00  0.00    +0.023 A 
ENDROOT
BRANCH   9   8
ATOM      1  O   UNL     1      -4.636 -10.475  15.376  0.00  0.00    -0.361 OA
ATOM      3  O   UNL     1      -1.086 -10.980  15.310  0.00  0.00    -0.273 OA
ATOM      5  N   UNL     1      -2.577 -11.263  17.031  0.00  0.00    -0.306 N 
ATOM      7  CA  UNL     1      -3.926 -11.124  17.573  0.00  0.00    +0.131 C 
ATOM      8  C   UNL     1      -4.971 -11.342  16.468  0.00  0.00    +0.171 C 
ATOM     11  C   UNL     1      -3.419 -10.854  14.769  0.00  0.00    +0.256 C 
ATOM     12  C   UNL     1      -2.246 -11.011  15.718  0.00  0.00    +0.239 C 
ATOM     23  H   UNL     1      -1.812 -11.376  17.690  0.00  0.00    +0.149 HD
BRANCH   7  10
ATOM     10  C   UNL     1      -4.110 -12.079  18.749  0.00  0.00    +0.181 C 
BRANCH  10   2
ATOM      2  O   UNL     1      -2.910 -12.101  19.502  0.00  0.00    -0.393 OA
ATOM     25  H   UNL     1      -2.433 -11.277  19.305  0.00  0.00    +0.209 HD
ENDBRANCH  10   2
ENDBRANCH   7  10
ENDBRANCH   9   8
BRANCH  16   6
ATOM      4  O   UNL     1     -10.234 -10.346  20.414  0.00  0.00    -0.275 OA
ATOM      6  N   UNL     1     -10.316 -10.108  18.079  0.00  0.00    -0.285 N 
ATOM     20  C   UNL     1     -10.829 -10.083  19.374  0.00  0.00    +0.217 C 
ATOM     24  H   UNL     1     -10.947  -9.873  17.316  0.00  0.00    +0.155 HD
BRANCH  20  19
ATOM     19  C   UNL     1     -12.307  -9.705  19.358  0.00  0.00    +0.099 C 
BRANCH  19  15
ATOM     15  C   UNL     1     -13.064 -10.101  20.635  0.00  0.00    -0.008 C 
ATOM     21  C   UNL     1     -13.380 -11.597  20.617  0.00  0.00    +0.008 C 
ATOM     22  C   UNL     1     -14.361  -9.300  20.784  0.00  0.00    +0.008 C 
ENDBRANCH  19  15
ENDBRANCH  20  19
ENDBRANCH  16   6
TORSDOF 6
ENDMDL
MODEL 6
REMARK VINA RESULT:      -5.7     26.118     29.691
REMARK  Name = 71693244
REMARK  8 active torsions:
REMARK  status: ('A' for Active; 'I' for Inactive)
REMARK    1  A    between atoms: O_2  and  C_10
REMARK    2  A    between atoms: N_6  and  C_16
REMARK    3  A    between atoms: CA_7  and  C_10
REMARK    4  A    between atoms: C_8  and  C_9
REMARK    5  A    between atoms: C_15  and  C_19
REMARK    6  A    between atoms: C_15  and  C_21
REMARK    7  A    between atoms: C_15  and  C_22
REMARK    8  A    between atoms: C_19  and  C_20
REMARK                            x       y       z     vdW  Elec       q    Type
REMARK                         _______ _______ _______ _____ _____    ______ ____
ROOT
ATOM      9  C   UNL     1      -4.672 -11.376  15.641  0.00  0.00    -0.017 A 
ATOM     13  C   UNL     1      -5.474 -10.856  14.625  0.00  0.00    +0.008 A 
ATOM     14  C   UNL     1      -4.926 -11.040  16.972  0.00  0.00    +0.008 A 
ATOM     16  C   UNL     1      -6.785  -9.667  16.268  0.00  0.00    +0.033 A 
ATOM     17  C   UNL     1      -6.531 -10.001  14.939  0.00  0.00    +0.023 A 
ATOM     18  C   UNL     1      -5.983 -10.186  17.285  0.00  0.00    +0.023 A 
ENDROOT
BRANCH   9   8
ATOM      1  O   UNL     1      -4.062 -13.400  14.552  0.00  0.00    -0.361 OA
ATOM      3  O   UNL     1      -1.004 -14.778  13.281  0.00  0.00    -0.273 OA
ATOM      5  N   UNL     1      -1.469 -12.647  13.994  0.00  0.00    -0.306 N 
ATOM      7  CA  UNL     1      -2.431 -11.645  14.446  0.00  0.00    +0.131 C 
ATOM      8  C   UNL     1      -3.525 -12.303  15.301  0.00  0.00    +0.171 C 
ATOM     11  C   UNL     1      -3.106 -14.426  14.380  0.00  0.00    +0.256 C 
ATOM     12  C   UNL     1      -1.774 -13.978  13.809  0.00  0.00    +0.239 C 
ATOM     23  H   UNL     1      -0.582 -12.317  13.625  0.00  0.00    +0.149 HD
BRANCH   7  10
ATOM     10  C   UNL     1      -1.701 -10.528  15.187  0.00  0.00    +0.181 C 
BRANCH  10   2
ATOM      2  O   UNL     1      -1.200 -11.049  16.405  0.00  0.00    -0.393 OA
ATOM     25  H   UNL     1      -1.253 -10.337  17.065  0.00  0.00    +0.209 HD
ENDBRANCH  10   2
ENDBRANCH   7  10
ENDBRANCH   9   8
BRANCH  16   6
ATOM      4  O   UNL     1      -9.487 -10.262  17.434  0.00  0.00    -0.275 OA
ATOM      6  N   UNL     1      -7.857  -8.800  16.587  0.00  0.00    -0.285 N 
ATOM     20  C   UNL     1      -9.089  -9.140  17.140  0.00  0.00    +0.217 C 
ATOM     24  H   UNL     1      -7.682  -7.817  16.390  0.00  0.00    +0.155 HD
BRANCH  20  19
ATOM     19  C   UNL     1      -9.956  -7.898  17.321  0.00  0.00    +0.099 C 
BRANCH  19  15
ATOM     15  C   UNL     1     -10.309  -7.188  16.005  0.00  0.00    -0.008 C 
ATOM     21  C   UNL     1     -11.263  -6.023  16.274  0.00  0.00    +0.008 C 
ATOM     22  C   UNL     1     -10.946  -8.157  15.004  0.00  0.00    +0.008 C 
ENDBRANCH  19  15
ENDBRANCH  20  19
ENDBRANCH  16   6
TORSDOF 6
ENDMDL
MODEL 7
REMARK VINA RESULT:      -5.7     15.838     19.691
REMARK  Name = 71693244
REMARK  8 active torsions:
REMARK  status: ('A' for Active; 'I' for Inactive)
REMARK    1  A    between atoms: O_2  and  C_10
REMARK    2  A    between atoms: N_6  and  C_16
REMARK    3  A    between atoms: CA_7  and  C_10
REMARK    4  A    between atoms: C_8  and  C_9
REMARK    5  A    between atoms: C_15  and  C_19
REMARK    6  A    between atoms: C_15  and  C_21
REMARK    7  A    between atoms: C_15  and  C_22
REMARK    8  A    between atoms: C_19  and  C_20
REMARK                            x       y       z     vdW  Elec       q    Type
REMARK                         _______ _______ _______ _____ _____    ______ ____
ROOT
ATOM      9  C   UNL     1      10.305   5.639   3.655  0.00  0.00    -0.017 A 
ATOM     13  C   UNL     1       9.851   6.585   2.735  0.00  0.00    +0.008 A 
ATOM     14  C   UNL     1      10.730   4.385   3.214  0.00  0.00    +0.008 A 
ATOM     16  C   UNL     1      10.248   5.025   0.935  0.00  0.00    +0.033 A 
ATOM     17  C   UNL     1       9.822   6.277   1.375  0.00  0.00    +0.023 A 
ATOM     18  C   UNL     1      10.702   4.079   1.854  0.00  0.00    +0.023 A 
ENDROOT
BRANCH   9   8
ATOM      1  O   UNL     1       9.736   4.878   5.836  0.00  0.00    -0.361 OA
ATOM      3  O   UNL     1      10.798   5.687   9.165  0.00  0.00    -0.273 OA
ATOM      5  N   UNL     1      11.713   6.283   7.146  0.00  0.00    -0.306 N 
ATOM      7  CA  UNL     1      11.754   6.166   5.691  0.00  0.00    +0.131 C 
ATOM      8  C   UNL     1      10.337   5.972   5.131  0.00  0.00    +0.171 C 
ATOM     11  C   UNL     1       9.521   5.194   7.195  0.00  0.00    +0.256 C 
ATOM     12  C   UNL     1      10.737   5.716   7.936  0.00  0.00    +0.239 C 
ATOM     23  H   UNL     1      12.539   6.645   7.615  0.00  0.00    +0.149 HD
BRANCH   7  10
ATOM     10  C   UNL     1      12.458   7.384   5.096  0.00  0.00    +0.181 C 
BRANCH  10   2
ATOM      2  O   UNL     1      13.714   6.973   4.588  0.00  0.00    -0.393 OA
ATOM     25  H   UNL     1      14.141   7.760   4.209  0.00  0.00    +0.209 HD
ENDBRANCH  10   2
ENDBRANCH   7  10
ENDBRANCH   9   8
BRANCH  16   6
ATOM      4  O   UNL     1      12.177   5.720  -1.257  0.00  0.00    -0.275 OA
ATOM      6  N   UNL     1      10.218   4.712  -0.445  0.00  0.00    -0.285 N 
ATOM     20  C   UNL     1      11.157   5.057  -1.414  0.00  0.00    +0.217 C 
ATOM     24  H   UNL     1       9.414   4.163  -0.740  0.00  0.00    +0.155 HD
BRANCH  20  19
ATOM     19  C   UNL     1      10.739   4.520  -2.780  0.00  0.00    +0.099 C 
BRANCH  19  15
ATOM     15  C   UNL     1      10.589   2.992  -2.828  0.00  0.00    -0.008 C 
ATOM     21  C   UNL     1      11.965   2.330  -2.909  0.00  0.00    +0.008 C 
ATOM     22  C   UNL     1       9.734   2.554  -4.020  0.00  0.00    +0.008 C 
ENDBRANCH  19  15
ENDBRANCH  20  19
ENDBRANCH  16   6
TORSDOF 6
ENDMDL
MODEL 8
REMARK VINA RESULT:      -5.7     27.564     31.123
REMARK  Name = 71693244
REMARK  8 active torsions:
REMARK  status: ('A' for Active; 'I' for Inactive)
REMARK    1  A    between atoms: O_2  and  C_10
REMARK    2  A    between atoms: N_6  and  C_16
REMARK    3  A    between atoms: CA_7  and  C_10
REMARK    4  A    between atoms: C_8  and  C_9
REMARK    5  A    between atoms: C_15  and  C_19
REMARK    6  A    between atoms: C_15  and  C_21
REMARK    7  A    between atoms: C_15  and  C_22
REMARK    8  A    between atoms: C_19  and  C_20
REMARK                            x       y       z     vdW  Elec       q    Type
REMARK                         _______ _______ _______ _____ _____    ______ ____
ROOT
ATOM      9  C   UNL     1     -12.917   7.482  20.944  0.00  0.00    -0.017 A 
ATOM     13  C   UNL     1     -12.393   6.209  21.172  0.00  0.00    +0.008 A 
ATOM     14  C   UNL     1     -14.002   7.935  21.697  0.00  0.00    +0.008 A 
ATOM     16  C   UNL     1     -14.035   5.843  22.905  0.00  0.00    +0.033 A 
ATOM     17  C   UNL     1     -12.952   5.390  22.153  0.00  0.00    +0.023 A 
ATOM     18  C   UNL     1     -14.560   7.115  22.678  0.00  0.00    +0.023 A 
ENDROOT
BRANCH   9   8
ATOM      1  O   UNL     1     -10.888   8.330  20.039  0.00  0.00    -0.361 OA
ATOM      3  O   UNL     1      -9.918   9.790  16.910  0.00  0.00    -0.273 OA
ATOM      5  N   UNL     1     -11.856   8.704  17.485  0.00  0.00    -0.306 N 
ATOM      7  CA  UNL     1     -12.634   7.925  18.445  0.00  0.00    +0.131 C 
ATOM      8  C   UNL     1     -12.312   8.371  19.880  0.00  0.00    +0.171 C 
ATOM     11  C   UNL     1     -10.250   9.299  19.234  0.00  0.00    +0.256 C 
ATOM     12  C   UNL     1     -10.633   9.273  17.767  0.00  0.00    +0.239 C 
ATOM     23  H   UNL     1     -12.142   8.674  16.510  0.00  0.00    +0.149 HD
BRANCH   7  10
ATOM     10  C   UNL     1     -14.120   8.037  18.116  0.00  0.00    +0.181 C 
BRANCH  10   2
ATOM      2  O   UNL     1     -14.533   9.370  18.355  0.00  0.00    -0.393 OA
ATOM     25  H   UNL     1     -15.439   9.331  18.706  0.00  0.00    +0.209 HD
ENDBRANCH  10   2
ENDBRANCH   7  10
ENDBRANCH   9   8
BRANCH  16   6
ATOM      4  O   UNL     1     -15.981   3.571  22.664  0.00  0.00    -0.275 OA
ATOM      6  N   UNL     1     -14.602   5.012  23.901  0.00  0.00    -0.285 N 
ATOM     20  C   UNL     1     -15.496   3.960  23.721  0.00  0.00    +0.217 C 
ATOM     24  H   UNL     1     -14.299   5.218  24.850  0.00  0.00    +0.155 HD
BRANCH  20  19
ATOM     19  C   UNL     1     -15.857   3.328  25.062  0.00  0.00    +0.099 C 
BRANCH  19  15
ATOM     15  C   UNL     1     -16.988   2.292  24.976  0.00  0.00    -0.008 C 
ATOM     21  C   UNL     1     -18.315   2.925  25.400  0.00  0.00    +0.008 C 
ATOM     22  C   UNL     1     -16.694   1.072  25.854  0.00  0.00    +0.008 C 
ENDBRANCH  19  15
ENDBRANCH  20  19
ENDBRANCH  16   6
TORSDOF 6
ENDMDL
MODEL 9
REMARK VINA RESULT:      -5.6     22.981     27.016
REMARK  Name = 71693244
REMARK  8 active torsions:
REMARK  status: ('A' for Active; 'I' for Inactive)
REMARK    1  A    between atoms: O_2  and  C_10
REMARK    2  A    between atoms: N_6  and  C_16
REMARK    3  A    between atoms: CA_7  and  C_10
REMARK    4  A    between atoms: C_8  and  C_9
REMARK    5  A    between atoms: C_15  and  C_19
REMARK    6  A    between atoms: C_15  and  C_21
REMARK    7  A    between atoms: C_15  and  C_22
REMARK    8  A    between atoms: C_19  and  C_20
REMARK                            x       y       z     vdW  Elec       q    Type
REMARK                         _______ _______ _______ _____ _____    ______ ____
ROOT
ATOM      9  C   UNL     1      -3.056   8.644   4.592  0.00  0.00    -0.017 A 
ATOM     13  C   UNL     1      -4.144   9.223   3.939  0.00  0.00    +0.008 A 
ATOM     14  C   UNL     1      -3.203   7.416   5.238  0.00  0.00    +0.008 A 
ATOM     16  C   UNL     1      -5.525   7.347   4.576  0.00  0.00    +0.033 A 
ATOM     17  C   UNL     1      -5.379   8.574   3.931  0.00  0.00    +0.023 A 
ATOM     18  C   UNL     1      -4.438   6.767   5.229  0.00  0.00    +0.023 A 
ENDROOT
BRANCH   9   8
ATOM      1  O   UNL     1      -1.513   9.911   3.299  0.00  0.00    -0.361 OA
ATOM      3  O   UNL     1       1.220  12.111   4.046  0.00  0.00    -0.273 OA
ATOM      5  N   UNL     1      -0.389  11.244   5.434  0.00  0.00    -0.306 N 
ATOM      7  CA  UNL     1      -1.626  10.491   5.624  0.00  0.00    +0.131 C 
ATOM      8  C   UNL     1      -1.717   9.347   4.602  0.00  0.00    +0.171 C 
ATOM     11  C   UNL     1      -0.196  10.397   3.146  0.00  0.00    +0.256 C 
ATOM     12  C   UNL     1       0.271  11.350   4.230  0.00  0.00    +0.239 C 
ATOM     23  H   UNL     1      -0.097  11.868   6.182  0.00  0.00    +0.149 HD
BRANCH   7  10
ATOM     10  C   UNL     1      -1.713   9.997   7.065  0.00  0.00    +0.181 C 
BRANCH  10   2
ATOM      2  O   UNL     1      -0.480  10.268   7.708  0.00  0.00    -0.393 OA
ATOM     25  H   UNL     1      -0.407  11.235   7.789  0.00  0.00    +0.209 HD
ENDBRANCH  10   2
ENDBRANCH   7  10
ENDBRANCH   9   8
BRANCH  16   6
ATOM      4  O   UNL     1      -8.015   7.884   6.165  0.00  0.00    -0.275 OA
ATOM      6  N   UNL     1      -6.778   6.688   4.567  0.00  0.00    -0.285 N 
ATOM     20  C   UNL     1      -7.904   6.996   5.326  0.00  0.00    +0.217 C 
ATOM     24  H   UNL     1      -6.845   5.908   3.917  0.00  0.00    +0.155 HD
BRANCH  20  19
ATOM     19  C   UNL     1      -9.044   6.032   5.009  0.00  0.00    +0.099 C 
BRANCH  19  15
ATOM     15  C   UNL     1      -8.926   5.361   3.632  0.00  0.00    -0.008 C 
ATOM     21  C   UNL     1      -9.864   6.041   2.633  0.00  0.00    +0.008 C 
ATOM     22  C   UNL     1      -9.250   3.867   3.711  0.00  0.00    +0.008 C 
ENDBRANCH  19  15
ENDBRANCH  20  19
ENDBRANCH  16   6
TORSDOF 6
ENDMDL
MODEL 10
REMARK VINA RESULT:      -5.5     27.442     30.748
REMARK  Name = 71693244
REMARK  8 active torsions:
REMARK  status: ('A' for Active; 'I' for Inactive)
REMARK    1  A    between atoms: O_2  and  C_10
REMARK    2  A    between atoms: N_6  and  C_16
REMARK    3  A    between atoms: CA_7  and  C_10
REMARK    4  A    between atoms: C_8  and  C_9
REMARK    5  A    between atoms: C_15  and  C_19
REMARK    6  A    between atoms: C_15  and  C_21
REMARK    7  A    between atoms: C_15  and  C_22
REMARK    8  A    between atoms: C_19  and  C_20
REMARK                            x       y       z     vdW  Elec       q    Type
REMARK                         _______ _______ _______ _____ _____    ______ ____
ROOT
ATOM      9  C   UNL     1     -14.390   6.341  21.330  0.00  0.00    -0.017 A 
ATOM     13  C   UNL     1     -13.031   6.153  21.583  0.00  0.00    +0.008 A 
ATOM     14  C   UNL     1     -14.797   7.115  20.243  0.00  0.00    +0.008 A 
ATOM     16  C   UNL     1     -12.486   7.513  19.663  0.00  0.00    +0.033 A 
ATOM     17  C   UNL     1     -12.079   6.740  20.750  0.00  0.00    +0.023 A 
ATOM     18  C   UNL     1     -13.844   7.701  19.410  0.00  0.00    +0.023 A 
ENDROOT
BRANCH   9   8
ATOM      1  O   UNL     1     -15.020   4.349  22.468  0.00  0.00    -0.361 OA
ATOM      3  O   UNL     1     -17.178   3.576  25.228  0.00  0.00    -0.273 OA
ATOM      5  N   UNL     1     -16.417   5.610  24.483  0.00  0.00    -0.306 N 
ATOM      7  CA  UNL     1     -15.556   6.394  23.601  0.00  0.00    +0.131 C 
ATOM      8  C   UNL     1     -15.423   5.705  22.234  0.00  0.00    +0.171 C 
ATOM     11  C   UNL     1     -16.034   3.613  23.119  0.00  0.00    +0.256 C 
ATOM     12  C   UNL     1     -16.578   4.245  24.387  0.00  0.00    +0.239 C 
ATOM     23  H   UNL     1     -16.773   6.062  25.320  0.00  0.00    +0.149 HD
BRANCH   7  10
ATOM     10  C   UNL     1     -16.095   7.818  23.489  0.00  0.00    +0.181 C 
BRANCH  10   2
ATOM      2  O   UNL     1     -15.144   8.703  24.054  0.00  0.00    -0.393 OA
ATOM     25  H   UNL     1     -15.514   9.022  24.895  0.00  0.00    +0.209 HD
ENDBRANCH  10   2
ENDBRANCH   7  10
ENDBRANCH   9   8
BRANCH  16   6
ATOM      4  O   UNL     1     -10.867  10.016  20.019  0.00  0.00    -0.275 OA
ATOM      6  N   UNL     1     -11.520   8.108  18.817  0.00  0.00    -0.285 N 
ATOM     20  C   UNL     1     -10.791   9.272  19.047  0.00  0.00    +0.217 C 
ATOM     24  H   UNL     1     -11.346   7.605  17.950  0.00  0.00    +0.155 HD
BRANCH  20  19
ATOM     19  C   UNL     1      -9.856   9.560  17.876  0.00  0.00    +0.099 C 
BRANCH  19  15
ATOM     15  C   UNL     1     -10.546  10.235  16.681  0.00  0.00    -0.008 C 
ATOM     21  C   UNL     1     -10.594   9.277  15.490  0.00  0.00    +0.008 C 
ATOM     22  C   UNL     1      -9.824  11.525  16.278  0.00  0.00    +0.008 C 
ENDBRANCH  19  15
ENDBRANCH  20  19
ENDBRANCH  16   6
TORSDOF 6
ENDMDL
