MODEL 1
REMARK VINA RESULT:      -6.9      0.000      0.000
REMARK  Name = 45783955
REMARK  3 active torsions:
REMARK  status: ('A' for Active; 'I' for Inactive)
REMARK    1  A    between atoms: C_6  and  C_10
REMARK    2  A    between atoms: C_11  and  C_14
REMARK    3  A    between atoms: C_17  and  C_21
REMARK                            x       y       z     vdW  Elec       q    Type
REMARK                         _______ _______ _______ _____ _____    ______ ____
ROOT
ATOM      2  O   UNL     1      12.947   9.635  18.494  0.00  0.00    -0.270 OA
ATOM      3  N   UNL     1      14.363   9.859  20.321  0.00  0.00    -0.297 N 
ATOM      6  C   UNL     1      16.267   9.918  21.747  0.00  0.00    +0.094 C 
ATOM      7  C   UNL     1      16.361  11.051  20.713  0.00  0.00    +0.033 C 
ATOM      8  C   UNL     1      14.774   9.562  21.694  0.00  0.00    +0.121 C 
ATOM      9  C   UNL     1      15.376  10.638  19.628  0.00  0.00    +0.109 C 
ATOM     11  C   UNL     1      13.218   9.422  19.674  0.00  0.00    +0.248 C 
ENDROOT
BRANCH   6  10
ATOM      1  O   UNL     1      16.795   7.837  20.580  0.00  0.00    -0.439 OA
ATOM      4  N   UNL     1      18.466   8.628  21.891  0.00  0.00    -0.213 NA
ATOM     10  C   UNL     1      17.244   8.796  21.438  0.00  0.00    +0.201 A 
ATOM     12  C   UNL     1      18.870   7.462  21.288  0.00  0.00    +0.110 A 
ATOM     13  C   UNL     1      17.850   6.974  20.484  0.00  0.00    +0.155 A 
ATOM     15  C   UNL     1      20.075   6.747  21.362  0.00  0.00    +0.035 A 
ATOM     16  C   UNL     1      17.924   5.810  19.729  0.00  0.00    +0.049 A 
ATOM     17  C   UNL     1      20.188   5.566  20.614  0.00  0.00    -0.048 A 
ATOM     18  C   UNL     1      19.133   5.109  19.814  0.00  0.00    +0.007 A 
ATOM     21  C   UNL     1      21.458   4.783  20.672  0.00  0.00    +0.044 C 
ENDBRANCH   6  10
BRANCH  11  14
ATOM      5  N   UNL     1      11.316   6.465  20.988  0.00  0.00    -0.263 NA
ATOM     14  C   UNL     1      12.257   8.627  20.455  0.00  0.00    +0.055 A 
ATOM     19  C   UNL     1      11.403   9.232  21.371  0.00  0.00    +0.016 A 
ATOM     20  C   UNL     1      12.174   7.253  20.302  0.00  0.00    +0.123 A 
ATOM     22  C   UNL     1      10.506   8.456  22.095  0.00  0.00    +0.020 A 
ATOM     23  C   UNL     1      10.502   7.089  21.869  0.00  0.00    +0.111 A 
ENDBRANCH  11  14
TORSDOF 2
ENDMDL
MODEL 2
REMARK VINA RESULT:      -6.8     27.018     28.793
REMARK  Name = 45783955
REMARK  3 active torsions:
REMARK  status: ('A' for Active; 'I' for Inactive)
REMARK    1  A    between atoms: C_6  and  C_10
REMARK    2  A    between atoms: C_11  and  C_14
REMARK    3  A    between atoms: C_17  and  C_21
REMARK                            x       y       z     vdW  Elec       q    Type
REMARK                         _______ _______ _______ _____ _____    ______ ____
ROOT
ATOM      2  O   UNL     1      -3.761 -12.936  11.025  0.00  0.00    -0.270 OA
ATOM      3  N   UNL     1      -2.863 -11.584  12.685  0.00  0.00    -0.297 N 
ATOM      6  C   UNL     1      -2.217 -10.653  14.778  0.00  0.00    +0.094 C 
ATOM      7  C   UNL     1      -1.476 -11.980  14.553  0.00  0.00    +0.033 C 
ATOM      8  C   UNL     1      -2.670 -10.297  13.354  0.00  0.00    +0.121 C 
ATOM      9  C   UNL     1      -2.284 -12.669  13.462  0.00  0.00    +0.109 C 
ATOM     11  C   UNL     1      -3.562 -11.826  11.513  0.00  0.00    +0.248 C 
ENDROOT
BRANCH   6  10
ATOM      1  O   UNL     1      -2.929 -11.335  17.013  0.00  0.00    -0.439 OA
ATOM      4  N   UNL     1      -4.577 -10.454  15.731  0.00  0.00    -0.213 NA
ATOM     10  C   UNL     1      -3.310 -10.791  15.823  0.00  0.00    +0.201 A 
ATOM     12  C   UNL     1      -5.088 -10.801  16.958  0.00  0.00    +0.110 A 
ATOM     13  C   UNL     1      -4.082 -11.341  17.747  0.00  0.00    +0.155 A 
ATOM     15  C   UNL     1      -6.382 -10.696  17.489  0.00  0.00    +0.035 A 
ATOM     16  C   UNL     1      -4.253 -11.796  19.047  0.00  0.00    +0.049 A 
ATOM     17  C   UNL     1      -6.595 -11.145  18.800  0.00  0.00    -0.048 A 
ATOM     18  C   UNL     1      -5.550 -11.684  19.562  0.00  0.00    +0.007 A 
ATOM     21  C   UNL     1      -7.962 -11.047  19.394  0.00  0.00    +0.044 C 
ENDBRANCH   6  10
BRANCH  11  14
ATOM      5  N   UNL     1      -6.032  -9.257  10.335  0.00  0.00    -0.263 NA
ATOM     14  C   UNL     1      -4.124 -10.665  10.805  0.00  0.00    +0.055 A 
ATOM     19  C   UNL     1      -3.335  -9.888   9.963  0.00  0.00    +0.016 A 
ATOM     20  C   UNL     1      -5.455 -10.311  10.955  0.00  0.00    +0.123 A 
ATOM     22  C   UNL     1      -3.893  -8.797   9.308  0.00  0.00    +0.020 A 
ATOM     23  C   UNL     1      -5.234  -8.526   9.525  0.00  0.00    +0.111 A 
ENDBRANCH  11  14
TORSDOF 2
ENDMDL
MODEL 3
REMARK VINA RESULT:      -6.6     31.629     33.258
REMARK  Name = 45783955
REMARK  3 active torsions:
REMARK  status: ('A' for Active; 'I' for Inactive)
REMARK    1  A    between atoms: C_6  and  C_10
REMARK    2  A    between atoms: C_11  and  C_14
REMARK    3  A    between atoms: C_17  and  C_21
REMARK                            x       y       z     vdW  Elec       q    Type
REMARK                         _______ _______ _______ _____ _____    ______ ____
ROOT
ATOM      2  O   UNL     1     -12.330   3.579  31.662  0.00  0.00    -0.270 OA
ATOM      3  N   UNL     1     -14.208   2.318  31.137  0.00  0.00    -0.297 N 
ATOM      6  C   UNL     1     -15.859   1.035  30.000  0.00  0.00    +0.094 C 
ATOM      7  C   UNL     1     -14.545   0.242  30.067  0.00  0.00    +0.033 C 
ATOM      8  C   UNL     1     -15.653   2.085  31.101  0.00  0.00    +0.121 C 
ATOM      9  C   UNL     1     -13.495   1.299  30.383  0.00  0.00    +0.109 C 
ATOM     11  C   UNL     1     -13.543   3.386  31.719  0.00  0.00    +0.248 C 
ENDROOT
BRANCH   6  10
ATOM      1  O   UNL     1     -16.652   0.669  27.718  0.00  0.00    -0.439 OA
ATOM      4  N   UNL     1     -15.910   2.771  28.127  0.00  0.00    -0.213 NA
ATOM     10  C   UNL     1     -16.124   1.563  28.600  0.00  0.00    +0.201 A 
ATOM     12  C   UNL     1     -16.329   2.679  26.822  0.00  0.00    +0.110 A 
ATOM     13  C   UNL     1     -16.784   1.393  26.567  0.00  0.00    +0.155 A 
ATOM     15  C   UNL     1     -16.359   3.626  25.788  0.00  0.00    +0.035 A 
ATOM     16  C   UNL     1     -17.279   0.957  25.345  0.00  0.00    +0.049 A 
ATOM     17  C   UNL     1     -16.853   3.222  24.539  0.00  0.00    -0.048 A 
ATOM     18  C   UNL     1     -17.303   1.914  24.324  0.00  0.00    +0.007 A 
ATOM     21  C   UNL     1     -16.899   4.208  23.418  0.00  0.00    +0.044 C 
ENDBRANCH   6  10
BRANCH  11  14
ATOM      5  N   UNL     1     -15.296   5.128  34.543  0.00  0.00    -0.263 NA
ATOM     14  C   UNL     1     -14.352   4.374  32.450  0.00  0.00    +0.055 A 
ATOM     19  C   UNL     1     -14.927   5.456  31.793  0.00  0.00    +0.016 A 
ATOM     20  C   UNL     1     -14.565   4.256  33.813  0.00  0.00    +0.123 A 
ATOM     22  C   UNL     1     -15.686   6.375  32.509  0.00  0.00    +0.020 A 
ATOM     23  C   UNL     1     -15.839   6.168  33.870  0.00  0.00    +0.111 A 
ENDBRANCH  11  14
TORSDOF 2
ENDMDL
MODEL 4
REMARK VINA RESULT:      -6.4     27.598     30.106
REMARK  Name = 45783955
REMARK  3 active torsions:
REMARK  status: ('A' for Active; 'I' for Inactive)
REMARK    1  A    between atoms: C_6  and  C_10
REMARK    2  A    between atoms: C_11  and  C_14
REMARK    3  A    between atoms: C_17  and  C_21
REMARK                            x       y       z     vdW  Elec       q    Type
REMARK                         _______ _______ _______ _____ _____    ______ ____
ROOT
ATOM      2  O   UNL     1      -4.407 -14.000  15.247  0.00  0.00    -0.270 OA
ATOM      3  N   UNL     1      -4.520 -12.202  16.712  0.00  0.00    -0.297 N 
ATOM      6  C   UNL     1      -5.222 -10.625  18.350  0.00  0.00    +0.094 C 
ATOM      7  C   UNL     1      -4.980 -11.988  19.017  0.00  0.00    +0.033 C 
ATOM      8  C   UNL     1      -4.451 -10.775  17.031  0.00  0.00    +0.121 C 
ATOM      9  C   UNL     1      -4.990 -12.971  17.854  0.00  0.00    +0.109 C 
ATOM     11  C   UNL     1      -4.267 -12.803  15.489  0.00  0.00    +0.248 C 
ENDROOT
BRANCH   6  10
ATOM      1  O   UNL     1      -7.045  -9.368  17.317  0.00  0.00    -0.439 OA
ATOM      4  N   UNL     1      -7.703 -10.832  18.917  0.00  0.00    -0.213 NA
ATOM     10  C   UNL     1      -6.705 -10.312  18.239  0.00  0.00    +0.201 A 
ATOM     12  C   UNL     1      -8.803 -10.184  18.408  0.00  0.00    +0.110 A 
ATOM     13  C   UNL     1      -8.404  -9.287  17.428  0.00  0.00    +0.155 A 
ATOM     15  C   UNL     1     -10.167 -10.292  18.713  0.00  0.00    +0.035 A 
ATOM     16  C   UNL     1      -9.263  -8.466  16.709  0.00  0.00    +0.049 A 
ATOM     17  C   UNL     1     -11.067  -9.479  18.007  0.00  0.00    -0.048 A 
ATOM     18  C   UNL     1     -10.621  -8.586  17.025  0.00  0.00    +0.007 A 
ATOM     21  C   UNL     1     -12.527  -9.571  18.310  0.00  0.00    +0.044 C 
ENDBRANCH   6  10
BRANCH  11  14
ATOM      5  N   UNL     1      -4.353 -10.559  12.482  0.00  0.00    -0.263 NA
ATOM     14  C   UNL     1      -3.808 -11.940  14.390  0.00  0.00    +0.055 A 
ATOM     19  C   UNL     1      -2.455 -11.680  14.199  0.00  0.00    +0.016 A 
ATOM     20  C   UNL     1      -4.708 -11.361  13.511  0.00  0.00    +0.123 A 
ATOM     22  C   UNL     1      -2.050 -10.860  13.152  0.00  0.00    +0.020 A 
ATOM     23  C   UNL     1      -3.030 -10.329  12.329  0.00  0.00    +0.111 A 
ENDBRANCH  11  14
TORSDOF 2
ENDMDL
MODEL 5
REMARK VINA RESULT:      -6.2     30.892     33.193
REMARK  Name = 45783955
REMARK  3 active torsions:
REMARK  status: ('A' for Active; 'I' for Inactive)
REMARK    1  A    between atoms: C_6  and  C_10
REMARK    2  A    between atoms: C_11  and  C_14
REMARK    3  A    between atoms: C_17  and  C_21
REMARK                            x       y       z     vdW  Elec       q    Type
REMARK                         _______ _______ _______ _____ _____    ______ ____
ROOT
ATOM      2  O   UNL     1     -15.117  -0.297  29.655  0.00  0.00    -0.270 OA
ATOM      3  N   UNL     1     -16.555   1.470  29.204  0.00  0.00    -0.297 N 
ATOM      6  C   UNL     1     -17.897   3.108  28.119  0.00  0.00    +0.094 C 
ATOM      7  C   UNL     1     -18.493   1.713  27.881  0.00  0.00    +0.033 C 
ATOM      8  C   UNL     1     -16.987   2.863  29.331  0.00  0.00    +0.121 C 
ATOM      9  C   UNL     1     -17.348   0.764  28.210  0.00  0.00    +0.109 C 
ATOM     11  C   UNL     1     -15.490   0.859  29.848  0.00  0.00    +0.248 C 
ENDROOT
BRANCH   6  10
ATOM      1  O   UNL     1     -17.782   4.782  26.342  0.00  0.00    -0.439 OA
ATOM      4  N   UNL     1     -16.186   3.176  26.224  0.00  0.00    -0.213 NA
ATOM     10  C   UNL     1     -17.229   3.653  26.867  0.00  0.00    +0.201 A 
ATOM     12  C   UNL     1     -16.027   4.058  25.182  0.00  0.00    +0.110 A 
ATOM     13  C   UNL     1     -17.002   5.042  25.251  0.00  0.00    +0.155 A 
ATOM     15  C   UNL     1     -15.092   4.102  24.139  0.00  0.00    +0.035 A 
ATOM     16  C   UNL     1     -17.132   6.092  24.351  0.00  0.00    +0.049 A 
ATOM     17  C   UNL     1     -15.190   5.148  23.209  0.00  0.00    -0.048 A 
ATOM     18  C   UNL     1     -16.190   6.122  23.315  0.00  0.00    +0.007 A 
ATOM     21  C   UNL     1     -14.208   5.222  22.086  0.00  0.00    +0.044 C 
ENDBRANCH   6  10
BRANCH  11  14
ATOM      5  N   UNL     1     -14.341   2.260  33.134  0.00  0.00    -0.263 NA
ATOM     14  C   UNL     1     -14.738   1.658  30.827  0.00  0.00    +0.055 A 
ATOM     19  C   UNL     1     -13.744   2.542  30.419  0.00  0.00    +0.016 A 
ATOM     20  C   UNL     1     -14.996   1.555  32.184  0.00  0.00    +0.123 A 
ATOM     22  C   UNL     1     -13.048   3.283  31.366  0.00  0.00    +0.020 A 
ATOM     23  C   UNL     1     -13.382   3.108  32.699  0.00  0.00    +0.111 A 
ENDBRANCH  11  14
TORSDOF 2
ENDMDL
MODEL 6
REMARK VINA RESULT:      -6.2     27.487     29.204
REMARK  Name = 45783955
REMARK  3 active torsions:
REMARK  status: ('A' for Active; 'I' for Inactive)
REMARK    1  A    between atoms: C_6  and  C_10
REMARK    2  A    between atoms: C_11  and  C_14
REMARK    3  A    between atoms: C_17  and  C_21
REMARK                            x       y       z     vdW  Elec       q    Type
REMARK                         _______ _______ _______ _____ _____    ______ ____
ROOT
ATOM      2  O   UNL     1      -5.039 -13.121  10.139  0.00  0.00    -0.270 OA
ATOM      3  N   UNL     1      -3.689 -11.733  11.420  0.00  0.00    -0.297 N 
ATOM      6  C   UNL     1      -2.476 -10.735  13.208  0.00  0.00    +0.094 C 
ATOM      7  C   UNL     1      -1.859 -12.099  12.864  0.00  0.00    +0.033 C 
ATOM      8  C   UNL     1      -3.288 -10.425  11.942  0.00  0.00    +0.121 C 
ATOM      9  C   UNL     1      -2.950 -12.804  12.069  0.00  0.00    +0.109 C 
ATOM     11  C   UNL     1      -4.686 -11.998  10.495  0.00  0.00    +0.248 C 
ENDROOT
BRANCH   6  10
ATOM      1  O   UNL     1      -4.499 -10.244  14.487  0.00  0.00    -0.439 OA
ATOM      4  N   UNL     1      -2.866 -11.276  15.672  0.00  0.00    -0.213 NA
ATOM     10  C   UNL     1      -3.248 -10.783  14.516  0.00  0.00    +0.201 A 
ATOM     12  C   UNL     1      -3.949 -11.050  16.487  0.00  0.00    +0.110 A 
ATOM     13  C   UNL     1      -4.951 -10.418  15.764  0.00  0.00    +0.155 A 
ATOM     15  C   UNL     1      -4.171 -11.343  17.840  0.00  0.00    +0.035 A 
ATOM     16  C   UNL     1      -6.184 -10.043  16.283  0.00  0.00    +0.049 A 
ATOM     17  C   UNL     1      -5.405 -10.980  18.399  0.00  0.00    -0.048 A 
ATOM     18  C   UNL     1      -6.390 -10.343  17.634  0.00  0.00    +0.007 A 
ATOM     21  C   UNL     1      -5.671 -11.280  19.838  0.00  0.00    +0.044 C 
ENDBRANCH   6  10
BRANCH  11  14
ATOM      5  N   UNL     1      -5.617  -9.288   8.071  0.00  0.00    -0.263 NA
ATOM     14  C   UNL     1      -5.388 -10.849   9.903  0.00  0.00    +0.055 A 
ATOM     19  C   UNL     1      -6.449 -10.238  10.564  0.00  0.00    +0.016 A 
ATOM     20  C   UNL     1      -5.014 -10.340   8.670  0.00  0.00    +0.123 A 
ATOM     22  C   UNL     1      -7.094  -9.155   9.981  0.00  0.00    +0.020 A 
ATOM     23  C   UNL     1      -6.644  -8.722   8.744  0.00  0.00    +0.111 A 
ENDBRANCH  11  14
TORSDOF 2
ENDMDL
MODEL 7
REMARK VINA RESULT:      -6.2     16.679     18.584
REMARK  Name = 45783955
REMARK  3 active torsions:
REMARK  status: ('A' for Active; 'I' for Inactive)
REMARK    1  A    between atoms: C_6  and  C_10
REMARK    2  A    between atoms: C_11  and  C_14
REMARK    3  A    between atoms: C_17  and  C_21
REMARK                            x       y       z     vdW  Elec       q    Type
REMARK                         _______ _______ _______ _____ _____    ______ ____
ROOT
ATOM      2  O   UNL     1      11.721   8.965   1.596  0.00  0.00    -0.270 OA
ATOM      3  N   UNL     1       9.663   8.788   2.658  0.00  0.00    -0.297 N 
ATOM      6  C   UNL     1       7.935   8.605   4.284  0.00  0.00    +0.094 C 
ATOM      7  C   UNL     1       8.603   9.985   4.393  0.00  0.00    +0.033 C 
ATOM      8  C   UNL     1       8.361   8.156   2.879  0.00  0.00    +0.121 C 
ATOM      9  C   UNL     1       9.925   9.810   3.659  0.00  0.00    +0.109 C 
ATOM     11  C   UNL     1      10.607   8.454   1.700  0.00  0.00    +0.248 C 
ENDROOT
BRANCH   6  10
ATOM      1  O   UNL     1       8.934   6.526   5.090  0.00  0.00    -0.439 OA
ATOM      4  N   UNL     1       8.171   7.896   6.726  0.00  0.00    -0.213 NA
ATOM     10  C   UNL     1       8.332   7.698   5.437  0.00  0.00    +0.201 A 
ATOM     12  C   UNL     1       8.708   6.764   7.290  0.00  0.00    +0.110 A 
ATOM     13  C   UNL     1       9.176   5.923   6.291  0.00  0.00    +0.155 A 
ATOM     15  C   UNL     1       8.840   6.367   8.628  0.00  0.00    +0.035 A 
ATOM     16  C   UNL     1       9.779   4.691   6.513  0.00  0.00    +0.049 A 
ATOM     17  C   UNL     1       9.445   5.129   8.892  0.00  0.00    -0.048 A 
ATOM     18  C   UNL     1       9.904   4.310   7.854  0.00  0.00    +0.007 A 
ATOM     21  C   UNL     1       9.601   4.679  10.307  0.00  0.00    +0.044 C 
ENDBRANCH   6  10
BRANCH  11  14
ATOM      5  N   UNL     1       9.376   6.784  -1.428  0.00  0.00    -0.263 NA
ATOM     14  C   UNL     1      10.256   7.397   0.739  0.00  0.00    +0.055 A 
ATOM     19  C   UNL     1      10.453   6.055   1.046  0.00  0.00    +0.016 A 
ATOM     20  C   UNL     1       9.719   7.706  -0.500  0.00  0.00    +0.123 A 
ATOM     22  C   UNL     1      10.113   5.078   0.118  0.00  0.00    +0.020 A 
ATOM     23  C   UNL     1       9.583   5.490  -1.093  0.00  0.00    +0.111 A 
ENDBRANCH  11  14
TORSDOF 2
ENDMDL
MODEL 8
REMARK VINA RESULT:      -6.1     16.506     18.182
REMARK  Name = 45783955
REMARK  3 active torsions:
REMARK  status: ('A' for Active; 'I' for Inactive)
REMARK    1  A    between atoms: C_6  and  C_10
REMARK    2  A    between atoms: C_11  and  C_14
REMARK    3  A    between atoms: C_17  and  C_21
REMARK                            x       y       z     vdW  Elec       q    Type
REMARK                         _______ _______ _______ _____ _____    ______ ____
ROOT
ATOM      2  O   UNL     1      12.598   5.967   7.760  0.00  0.00    -0.270 OA
ATOM      3  N   UNL     1      11.284   6.701   5.992  0.00  0.00    -0.297 N 
ATOM      6  C   UNL     1       9.989   6.821   3.999  0.00  0.00    +0.094 C 
ATOM      7  C   UNL     1       9.252   5.967   5.042  0.00  0.00    +0.033 C 
ATOM      8  C   UNL     1      10.990   7.594   4.870  0.00  0.00    +0.121 C 
ATOM      9  C   UNL     1      10.337   5.598   6.045  0.00  0.00    +0.109 C 
ATOM     11  C   UNL     1      12.349   6.783   6.875  0.00  0.00    +0.248 C 
ENDROOT
BRANCH   6  10
ATOM      1  O   UNL     1      11.755   5.347   3.173  0.00  0.00    -0.439 OA
ATOM      4  N   UNL     1      10.093   5.745   1.685  0.00  0.00    -0.213 NA
ATOM     10  C   UNL     1      10.575   5.966   2.888  0.00  0.00    +0.201 A 
ATOM     12  C   UNL     1      11.025   4.910   1.118  0.00  0.00    +0.110 A 
ATOM     13  C   UNL     1      12.044   4.663   2.026  0.00  0.00    +0.155 A 
ATOM     15  C   UNL     1      11.089   4.316  -0.151  0.00  0.00    +0.035 A 
ATOM     16  C   UNL     1      13.148   3.859   1.777  0.00  0.00    +0.049 A 
ATOM     17  C   UNL     1      12.190   3.496  -0.440  0.00  0.00    -0.048 A 
ATOM     18  C   UNL     1      13.198   3.274   0.507  0.00  0.00    +0.007 A 
ATOM     21  C   UNL     1      12.286   2.849  -1.782  0.00  0.00    +0.044 C 
ENDBRANCH   6  10
BRANCH  11  14
ATOM      5  N   UNL     1      13.648  10.303   6.966  0.00  0.00    -0.263 NA
ATOM     14  C   UNL     1      13.262   7.928   6.734  0.00  0.00    +0.055 A 
ATOM     19  C   UNL     1      14.557   7.757   6.257  0.00  0.00    +0.016 A 
ATOM     20  C   UNL     1      12.860   9.209   7.071  0.00  0.00    +0.123 A 
ATOM     22  C   UNL     1      15.398   8.857   6.135  0.00  0.00    +0.020 A 
ATOM     23  C   UNL     1      14.901  10.097   6.500  0.00  0.00    +0.111 A 
ENDBRANCH  11  14
TORSDOF 2
ENDMDL
MODEL 9
REMARK VINA RESULT:      -6.1     28.190     31.098
REMARK  Name = 45783955
REMARK  3 active torsions:
REMARK  status: ('A' for Active; 'I' for Inactive)
REMARK    1  A    between atoms: C_6  and  C_10
REMARK    2  A    between atoms: C_11  and  C_14
REMARK    3  A    between atoms: C_17  and  C_21
REMARK                            x       y       z     vdW  Elec       q    Type
REMARK                         _______ _______ _______ _____ _____    ______ ____
ROOT
ATOM      2  O   UNL     1     -12.581 -11.651  16.369  0.00  0.00    -0.270 OA
ATOM      3  N   UNL     1     -11.138  -9.868  16.735  0.00  0.00    -0.297 N 
ATOM      6  C   UNL     1      -9.219  -8.467  16.865  0.00  0.00    +0.094 C 
ATOM      7  C   UNL     1      -9.576  -8.717  15.392  0.00  0.00    +0.033 C 
ATOM      8  C   UNL     1     -10.528  -8.838  17.577  0.00  0.00    +0.121 C 
ATOM      9  C   UNL     1     -10.484  -9.939  15.439  0.00  0.00    +0.109 C 
ATOM     11  C   UNL     1     -12.148 -10.750  17.086  0.00  0.00    +0.248 C 
ENDROOT
BRANCH   6  10
ATOM      1  O   UNL     1      -6.958  -9.253  16.377  0.00  0.00    -0.439 OA
ATOM      4  N   UNL     1      -7.759  -9.895  18.398  0.00  0.00    -0.213 NA
ATOM     10  C   UNL     1      -7.978  -9.238  17.280  0.00  0.00    +0.201 A 
ATOM     12  C   UNL     1      -6.489 -10.391  18.230  0.00  0.00    +0.110 A 
ATOM     13  C   UNL     1      -5.995 -10.000  16.994  0.00  0.00    +0.155 A 
ATOM     15  C   UNL     1      -5.681 -11.176  19.066  0.00  0.00    +0.035 A 
ATOM     16  C   UNL     1      -4.737 -10.329  16.504  0.00  0.00    +0.049 A 
ATOM     17  C   UNL     1      -4.404 -11.529  18.606  0.00  0.00    -0.048 A 
ATOM     18  C   UNL     1      -3.944 -11.113  17.350  0.00  0.00    +0.007 A 
ATOM     21  C   UNL     1      -3.520 -12.364  19.472  0.00  0.00    +0.044 C 
ENDBRANCH   6  10
BRANCH  11  14
ATOM      5  N   UNL     1     -12.771 -11.274  20.749  0.00  0.00    -0.263 NA
ATOM     14  C   UNL     1     -12.739 -10.609  18.425  0.00  0.00    +0.055 A 
ATOM     19  C   UNL     1     -13.785  -9.722  18.658  0.00  0.00    +0.016 A 
ATOM     20  C   UNL     1     -12.273 -11.356  19.495  0.00  0.00    +0.123 A 
ATOM     22  C   UNL     1     -14.324  -9.610  19.934  0.00  0.00    +0.020 A 
ATOM     23  C   UNL     1     -13.786 -10.400  20.937  0.00  0.00    +0.111 A 
ENDBRANCH  11  14
TORSDOF 2
ENDMDL
MODEL 10
REMARK VINA RESULT:      -5.9     16.674     17.896
REMARK  Name = 45783955
REMARK  3 active torsions:
REMARK  status: ('A' for Active; 'I' for Inactive)
REMARK    1  A    between atoms: C_6  and  C_10
REMARK    2  A    between atoms: C_11  and  C_14
REMARK    3  A    between atoms: C_17  and  C_21
REMARK                            x       y       z     vdW  Elec       q    Type
REMARK                         _______ _______ _______ _____ _____    ______ ____
ROOT
ATOM      2  O   UNL     1       7.994   7.435   5.234  0.00  0.00    -0.270 OA
ATOM      3  N   UNL     1      10.282   7.728   4.970  0.00  0.00    -0.297 N 
ATOM      6  C   UNL     1      12.471   7.955   4.064  0.00  0.00    +0.094 C 
ATOM      7  C   UNL     1      11.612   9.159   3.648  0.00  0.00    +0.033 C 
ATOM      8  C   UNL     1      11.679   7.397   5.255  0.00  0.00    +0.121 C 
ATOM      9  C   UNL     1      10.183   8.689   3.884  0.00  0.00    +0.109 C 
ATOM     11  C   UNL     1       9.152   7.179   5.557  0.00  0.00    +0.248 C 
ENDROOT
BRANCH   6  10
ATOM      1  O   UNL     1      12.373   5.704   3.119  0.00  0.00    -0.439 OA
ATOM      4  N   UNL     1      13.189   7.279   1.709  0.00  0.00    -0.213 NA
ATOM     10  C   UNL     1      12.706   7.007   2.900  0.00  0.00    +0.201 A 
ATOM     12  C   UNL     1      13.180   6.058   1.077  0.00  0.00    +0.110 A 
ATOM     13  C   UNL     1      12.681   5.091   1.938  0.00  0.00    +0.155 A 
ATOM     15  C   UNL     1      13.573   5.679  -0.214  0.00  0.00    +0.035 A 
ATOM     16  C   UNL     1      12.535   3.747   1.619  0.00  0.00    +0.049 A 
ATOM     17  C   UNL     1      13.440   4.330  -0.574  0.00  0.00    -0.048 A 
ATOM     18  C   UNL     1      12.932   3.385   0.326  0.00  0.00    +0.007 A 
ATOM     21  C   UNL     1      13.850   3.894  -1.942  0.00  0.00    +0.044 C 
ENDBRANCH   6  10
BRANCH  11  14
ATOM      5  N   UNL     1       9.872   3.940   7.310  0.00  0.00    -0.263 NA
ATOM     14  C   UNL     1       9.354   6.204   6.640  0.00  0.00    +0.055 A 
ATOM     19  C   UNL     1       9.229   6.577   7.973  0.00  0.00    +0.016 A 
ATOM     20  C   UNL     1       9.673   4.885   6.364  0.00  0.00    +0.123 A 
ATOM     22  C   UNL     1       9.425   5.635   8.976  0.00  0.00    +0.020 A 
ATOM     23  C   UNL     1       9.742   4.341   8.595  0.00  0.00    +0.111 A 
ENDBRANCH  11  14
TORSDOF 2
ENDMDL
