MODEL 1
REMARK VINA RESULT:      -6.8      0.000      0.000
REMARK  Name = 44716179
REMARK  8 active torsions:
REMARK  status: ('A' for Active; 'I' for Inactive)
REMARK    1  A    between atoms: O_2  and  C_24
REMARK    2  A    between atoms: N_4  and  C_16
REMARK    3  A    between atoms: N_5  and  C_19
REMARK    4  A    between atoms: C_10  and  C_16
REMARK    5  A    between atoms: C_11  and  C_17
REMARK    6  A    between atoms: C_19  and  C_21
REMARK    7  A    between atoms: C_20  and  C_22
REMARK    8  A    between atoms: C_22  and  C_24
REMARK                            x       y       z     vdW  Elec       q    Type
REMARK                         _______ _______ _______ _____ _____    ______ ____
ROOT
ATOM      3  N   UNL     1      14.237   6.866  19.299  0.00  0.00    -0.297 NA
ATOM      9  C   UNL     1      14.169   8.353  21.434  0.00  0.00    +0.005 C 
ATOM     10  C   UNL     1      14.317   8.302  18.920  0.00  0.00    +0.078 C 
ATOM     11  C   UNL     1      12.994   7.356  21.410  0.00  0.00    +0.092 C 
ATOM     12  C   UNL     1      14.126   9.211  20.155  0.00  0.00    +0.025 C 
ATOM     13  C   UNL     1      15.461   7.516  21.382  0.00  0.00    +0.020 C 
ATOM     14  C   UNL     1      12.994   6.605  20.067  0.00  0.00    +0.097 C 
ATOM     15  C   UNL     1      15.395   6.559  20.176  0.00  0.00    +0.085 C 
ENDROOT
BRANCH  11  17
ATOM      1  O   UNL     1      10.713   7.869  20.918  0.00  0.00    -0.275 OA
ATOM      5  N   UNL     1      11.721   8.869  22.763  0.00  0.00    -0.311 N 
ATOM     17  C   UNL     1      11.681   8.040  21.655  0.00  0.00    +0.218 C 
ATOM     28  H   UNL     1      12.580   8.941  23.301  0.00  0.00    +0.149 HD
BRANCH   5  19
ATOM     19  C   UNL     1      10.593   9.659  23.201  0.00  0.00    +0.141 C 
BRANCH  19  21
ATOM      8  N   UNL     1      11.432  12.829  25.083  0.00  0.00    -0.263 NA
ATOM     21  C   UNL     1      10.978  11.084  23.473  0.00  0.00    -0.012 A 
ATOM     23  C   UNL     1      11.230  11.970  22.431  0.00  0.00    +0.008 A 
ATOM     25  C   UNL     1      11.092  11.559  24.770  0.00  0.00    +0.115 A 
ATOM     26  C   UNL     1      11.582  13.285  22.714  0.00  0.00    +0.020 A 
ATOM     27  C   UNL     1      11.669  13.661  24.045  0.00  0.00    +0.111 A 
ENDBRANCH  19  21
ENDBRANCH   5  19
ENDBRANCH  11  17
BRANCH  10  16
ATOM     16  C   UNL     1      13.349   8.662  17.792  0.00  0.00    +0.164 C 
BRANCH  16   4
ATOM      4  N   UNL     1      14.065   9.296  16.632  0.00  0.00    -0.250 N 
ATOM      6  N   UNL     1      14.179   8.649  15.460  0.00  0.00    -0.065 NA
ATOM      7  N   UNL     1      14.856   9.443  14.638  0.00  0.00    -0.134 NA
ATOM     18  C   UNL     1      14.663  10.518  16.591  0.00  0.00    +0.133 A 
ATOM     20  C   UNL     1      15.159  10.591  15.314  0.00  0.00    +0.085 A 
BRANCH  20  22
ATOM     22  C   UNL     1      15.911  11.678  14.675  0.00  0.00    +0.086 C 
BRANCH  22  24
ATOM     24  C   UNL     1      15.413  12.028  13.259  0.00  0.00    +0.162 C 
BRANCH  24   2
ATOM      2  O   UNL     1      15.709  10.952  12.377  0.00  0.00    -0.395 OA
ATOM     29  H   UNL     1      16.399  11.265  11.768  0.00  0.00    +0.209 HD
ENDBRANCH  24   2
ENDBRANCH  22  24
ENDBRANCH  20  22
ENDBRANCH  16   4
ENDBRANCH  10  16
TORSDOF 8
ENDMDL
MODEL 2
REMARK VINA RESULT:      -6.5      2.800      5.049
REMARK  Name = 44716179
REMARK  8 active torsions:
REMARK  status: ('A' for Active; 'I' for Inactive)
REMARK    1  A    between atoms: O_2  and  C_24
REMARK    2  A    between atoms: N_4  and  C_16
REMARK    3  A    between atoms: N_5  and  C_19
REMARK    4  A    between atoms: C_10  and  C_16
REMARK    5  A    between atoms: C_11  and  C_17
REMARK    6  A    between atoms: C_19  and  C_21
REMARK    7  A    between atoms: C_20  and  C_22
REMARK    8  A    between atoms: C_22  and  C_24
REMARK                            x       y       z     vdW  Elec       q    Type
REMARK                         _______ _______ _______ _____ _____    ______ ____
ROOT
ATOM      3  N   UNL     1      12.185   8.816  19.153  0.00  0.00    -0.297 NA
ATOM      9  C   UNL     1      12.634   7.887  21.542  0.00  0.00    +0.005 C 
ATOM     10  C   UNL     1      13.005   7.578  19.070  0.00  0.00    +0.078 C 
ATOM     11  C   UNL     1      13.021   9.376  21.439  0.00  0.00    +0.092 C 
ATOM     12  C   UNL     1      13.414   7.091  20.478  0.00  0.00    +0.025 C 
ATOM     13  C   UNL     1      11.140   7.792  21.183  0.00  0.00    +0.020 C 
ATOM     14  C   UNL     1      12.876   9.837  19.979  0.00  0.00    +0.097 C 
ATOM     15  C   UNL     1      10.904   8.472  19.820  0.00  0.00    +0.085 C 
ENDROOT
BRANCH  11  17
ATOM      1  O   UNL     1      14.634   9.762  23.158  0.00  0.00    -0.275 OA
ATOM      5  N   UNL     1      15.341   9.698  20.941  0.00  0.00    -0.311 N 
ATOM     17  C   UNL     1      14.406   9.626  21.959  0.00  0.00    +0.218 C 
ATOM     28  H   UNL     1      15.042   9.575  19.978  0.00  0.00    +0.149 HD
BRANCH   5  19
ATOM     19  C   UNL     1      16.745   9.953  21.173  0.00  0.00    +0.141 C 
BRANCH  19  21
ATOM      8  N   UNL     1      19.552   7.495  21.787  0.00  0.00    -0.263 NA
ATOM     21  C   UNL     1      17.560   8.693  21.124  0.00  0.00    -0.012 A 
ATOM     23  C   UNL     1      17.124   7.584  20.407  0.00  0.00    +0.008 A 
ATOM     25  C   UNL     1      18.770   8.598  21.792  0.00  0.00    +0.115 A 
ATOM     26  C   UNL     1      17.902   6.432  20.378  0.00  0.00    +0.020 A 
ATOM     27  C   UNL     1      19.096   6.439  21.080  0.00  0.00    +0.111 A 
ENDBRANCH  19  21
ENDBRANCH   5  19
ENDBRANCH  11  17
BRANCH  10  16
ATOM     16  C   UNL     1      14.216   7.741  18.150  0.00  0.00    +0.164 C 
BRANCH  16   4
ATOM      4  N   UNL     1      13.918   8.672  17.007  0.00  0.00    -0.250 N 
ATOM      6  N   UNL     1      13.021   8.337  16.066  0.00  0.00    -0.065 NA
ATOM      7  N   UNL     1      12.974   9.338  15.193  0.00  0.00    -0.134 NA
ATOM     18  C   UNL     1      14.469   9.893  16.765  0.00  0.00    +0.133 A 
ATOM     20  C   UNL     1      13.854  10.299  15.607  0.00  0.00    +0.085 A 
BRANCH  20  22
ATOM     22  C   UNL     1      14.038  11.542  14.849  0.00  0.00    +0.086 C 
BRANCH  22  24
ATOM     24  C   UNL     1      15.241  11.512  13.888  0.00  0.00    +0.162 C 
BRANCH  24   2
ATOM      2  O   UNL     1      15.637  10.162  13.673  0.00  0.00    -0.395 OA
ATOM     29  H   UNL     1      16.027   9.845  14.505  0.00  0.00    +0.209 HD
ENDBRANCH  24   2
ENDBRANCH  22  24
ENDBRANCH  20  22
ENDBRANCH  16   4
ENDBRANCH  10  16
TORSDOF 8
ENDMDL
MODEL 3
REMARK VINA RESULT:      -6.3     13.738     16.707
REMARK  Name = 44716179
REMARK  8 active torsions:
REMARK  status: ('A' for Active; 'I' for Inactive)
REMARK    1  A    between atoms: O_2  and  C_24
REMARK    2  A    between atoms: N_4  and  C_16
REMARK    3  A    between atoms: N_5  and  C_19
REMARK    4  A    between atoms: C_10  and  C_16
REMARK    5  A    between atoms: C_11  and  C_17
REMARK    6  A    between atoms: C_19  and  C_21
REMARK    7  A    between atoms: C_20  and  C_22
REMARK    8  A    between atoms: C_22  and  C_24
REMARK                            x       y       z     vdW  Elec       q    Type
REMARK                         _______ _______ _______ _____ _____    ______ ____
ROOT
ATOM      3  N   UNL     1       9.595   5.391   5.871  0.00  0.00    -0.297 NA
ATOM      9  C   UNL     1      10.448   7.181   7.556  0.00  0.00    +0.005 C 
ATOM     10  C   UNL     1      10.909   5.924   5.422  0.00  0.00    +0.078 C 
ATOM     11  C   UNL     1       9.010   7.489   7.093  0.00  0.00    +0.092 C 
ATOM     12  C   UNL     1      11.365   7.095   6.320  0.00  0.00    +0.025 C 
ATOM     13  C   UNL     1      10.416   5.783   8.201  0.00  0.00    +0.020 C 
ATOM     14  C   UNL     1       8.608   6.491   5.994  0.00  0.00    +0.097 C 
ATOM     15  C   UNL     1       9.783   4.785   7.213  0.00  0.00    +0.085 C 
ENDROOT
BRANCH  11  17
ATOM      1  O   UNL     1       9.153   9.860   7.347  0.00  0.00    -0.275 OA
ATOM      5  N   UNL     1       8.381   8.986   5.332  0.00  0.00    -0.311 N 
ATOM     17  C   UNL     1       8.871   8.907   6.624  0.00  0.00    +0.218 C 
ATOM     28  H   UNL     1       8.175   8.130   4.824  0.00  0.00    +0.149 HD
BRANCH   5  19
ATOM     19  C   UNL     1       8.135  10.238   4.655  0.00  0.00    +0.141 C 
BRANCH  19  21
ATOM      8  N   UNL     1       4.695  10.269   3.084  0.00  0.00    -0.263 NA
ATOM     21  C   UNL     1       7.045  10.117   3.628  0.00  0.00    -0.012 A 
ATOM     23  C   UNL     1       7.333   9.755   2.317  0.00  0.00    +0.008 A 
ATOM     25  C   UNL     1       5.722  10.362   3.958  0.00  0.00    +0.115 A 
ATOM     26  C   UNL     1       6.303   9.649   1.389  0.00  0.00    +0.020 A 
ATOM     27  C   UNL     1       5.013   9.915   1.819  0.00  0.00    +0.111 A 
ENDBRANCH  19  21
ENDBRANCH   5  19
ENDBRANCH  11  17
BRANCH  10  16
ATOM     16  C   UNL     1      10.907   6.309   3.942  0.00  0.00    +0.164 C 
BRANCH  16   4
ATOM      4  N   UNL     1      11.519   5.231   3.090  0.00  0.00    -0.250 N 
ATOM      6  N   UNL     1      11.046   3.975   3.130  0.00  0.00    -0.065 NA
ATOM      7  N   UNL     1      11.777   3.253   2.288  0.00  0.00    -0.134 NA
ATOM     18  C   UNL     1      12.562   5.349   2.223  0.00  0.00    +0.133 A 
ATOM     20  C   UNL     1      12.709   4.079   1.724  0.00  0.00    +0.085 A 
BRANCH  20  22
ATOM     22  C   UNL     1      13.678   3.578   0.742  0.00  0.00    +0.086 C 
BRANCH  22  24
ATOM     24  C   UNL     1      15.146   3.852   1.121  0.00  0.00    +0.162 C 
BRANCH  24   2
ATOM      2  O   UNL     1      15.464   3.144   2.313  0.00  0.00    -0.395 OA
ATOM     29  H   UNL     1      14.783   2.459   2.427  0.00  0.00    +0.209 HD
ENDBRANCH  24   2
ENDBRANCH  22  24
ENDBRANCH  20  22
ENDBRANCH  16   4
ENDBRANCH  10  16
TORSDOF 8
ENDMDL
MODEL 4
REMARK VINA RESULT:      -6.2     10.600     14.199
REMARK  Name = 44716179
REMARK  8 active torsions:
REMARK  status: ('A' for Active; 'I' for Inactive)
REMARK    1  A    between atoms: O_2  and  C_24
REMARK    2  A    between atoms: N_4  and  C_16
REMARK    3  A    between atoms: N_5  and  C_19
REMARK    4  A    between atoms: C_10  and  C_16
REMARK    5  A    between atoms: C_11  and  C_17
REMARK    6  A    between atoms: C_19  and  C_21
REMARK    7  A    between atoms: C_20  and  C_22
REMARK    8  A    between atoms: C_22  and  C_24
REMARK                            x       y       z     vdW  Elec       q    Type
REMARK                         _______ _______ _______ _____ _____    ______ ____
ROOT
ATOM      3  N   UNL     1       9.517   5.230   5.873  0.00  0.00    -0.297 NA
ATOM      9  C   UNL     1      10.342   6.675   7.873  0.00  0.00    +0.005 C 
ATOM     10  C   UNL     1      10.896   5.719   5.609  0.00  0.00    +0.078 C 
ATOM     11  C   UNL     1       8.972   7.161   7.360  0.00  0.00    +0.092 C 
ATOM     12  C   UNL     1      11.352   6.704   6.709  0.00  0.00    +0.025 C 
ATOM     13  C   UNL     1      10.163   5.204   8.289  0.00  0.00    +0.020 C 
ATOM     14  C   UNL     1       8.598   6.374   6.093  0.00  0.00    +0.097 C 
ATOM     15  C   UNL     1       9.550   4.417   7.115  0.00  0.00    +0.085 C 
ENDROOT
BRANCH  11  17
ATOM      1  O   UNL     1       8.666   9.110   6.013  0.00  0.00    -0.275 OA
ATOM      5  N   UNL     1       9.352   9.363   8.224  0.00  0.00    -0.311 N 
ATOM     17  C   UNL     1       8.967   8.640   7.108  0.00  0.00    +0.218 C 
ATOM     28  H   UNL     1       9.586   8.870   9.081  0.00  0.00    +0.149 HD
BRANCH   5  19
ATOM     19  C   UNL     1       9.451  10.804   8.237  0.00  0.00    +0.141 C 
BRANCH  19  21
ATOM      8  N   UNL     1       9.602  11.998  11.821  0.00  0.00    -0.263 NA
ATOM     21  C   UNL     1      10.000  11.318   9.536  0.00  0.00    -0.012 A 
ATOM     23  C   UNL     1      11.356  11.591   9.684  0.00  0.00    +0.008 A 
ATOM     25  C   UNL     1       9.173  11.536  10.626  0.00  0.00    +0.115 A 
ATOM     26  C   UNL     1      11.835  12.068  10.899  0.00  0.00    +0.020 A 
ATOM     27  C   UNL     1      10.925  12.252  11.927  0.00  0.00    +0.111 A 
ENDBRANCH  19  21
ENDBRANCH   5  19
ENDBRANCH  11  17
BRANCH  10  16
ATOM     16  C   UNL     1      11.044   6.320   4.211  0.00  0.00    +0.164 C 
BRANCH  16   4
ATOM      4  N   UNL     1      11.586   5.315   3.232  0.00  0.00    -0.250 N 
ATOM      6  N   UNL     1      11.013   4.107   3.102  0.00  0.00    -0.065 NA
ATOM      7  N   UNL     1      11.701   3.442   2.181  0.00  0.00    -0.134 NA
ATOM     18  C   UNL     1      12.653   5.457   2.400  0.00  0.00    +0.133 A 
ATOM     20  C   UNL     1      12.709   4.255   1.741  0.00  0.00    +0.085 A 
BRANCH  20  22
ATOM     22  C   UNL     1      13.655   3.806   0.712  0.00  0.00    +0.086 C 
BRANCH  22  24
ATOM     24  C   UNL     1      15.134   3.991   1.105  0.00  0.00    +0.162 C 
BRANCH  24   2
ATOM      2  O   UNL     1      15.432   3.156   2.217  0.00  0.00    -0.395 OA
ATOM     29  H   UNL     1      14.998   3.550   2.993  0.00  0.00    +0.209 HD
ENDBRANCH  24   2
ENDBRANCH  22  24
ENDBRANCH  20  22
ENDBRANCH  16   4
ENDBRANCH  10  16
TORSDOF 8
ENDMDL
MODEL 5
REMARK VINA RESULT:      -5.9     15.691     21.299
REMARK  Name = 44716179
REMARK  8 active torsions:
REMARK  status: ('A' for Active; 'I' for Inactive)
REMARK    1  A    between atoms: O_2  and  C_24
REMARK    2  A    between atoms: N_4  and  C_16
REMARK    3  A    between atoms: N_5  and  C_19
REMARK    4  A    between atoms: C_10  and  C_16
REMARK    5  A    between atoms: C_11  and  C_17
REMARK    6  A    between atoms: C_19  and  C_21
REMARK    7  A    between atoms: C_20  and  C_22
REMARK    8  A    between atoms: C_22  and  C_24
REMARK                            x       y       z     vdW  Elec       q    Type
REMARK                         _______ _______ _______ _____ _____    ______ ____
ROOT
ATOM      3  N   UNL     1      13.169   5.721   1.569  0.00  0.00    -0.297 NA
ATOM      9  C   UNL     1      13.096   3.208   0.899  0.00  0.00    +0.005 C 
ATOM     10  C   UNL     1      12.236   4.985   2.463  0.00  0.00    +0.078 C 
ATOM     11  C   UNL     1      12.838   4.118  -0.318  0.00  0.00    +0.092 C 
ATOM     12  C   UNL     1      12.057   3.524   1.992  0.00  0.00    +0.025 C 
ATOM     13  C   UNL     1      14.479   3.592   1.455  0.00  0.00    +0.020 C 
ATOM     14  C   UNL     1      12.746   5.579   0.154  0.00  0.00    +0.097 C 
ATOM     15  C   UNL     1      14.515   5.111   1.712  0.00  0.00    +0.085 C 
ENDROOT
BRANCH  11  17
ATOM      1  O   UNL     1      10.513   4.228  -0.857  0.00  0.00    -0.275 OA
ATOM      5  N   UNL     1      11.857   2.687  -1.970  0.00  0.00    -0.311 N 
ATOM     17  C   UNL     1      11.605   3.705  -1.068  0.00  0.00    +0.218 C 
ATOM     28  H   UNL     1      12.802   2.323  -2.060  0.00  0.00    +0.149 HD
BRANCH   5  19
ATOM     19  C   UNL     1      10.834   2.095  -2.801  0.00  0.00    +0.141 C 
BRANCH  19  21
ATOM      8  N   UNL     1       9.059   4.117  -5.458  0.00  0.00    -0.263 NA
ATOM     21  C   UNL     1      10.595   2.890  -4.052  0.00  0.00    -0.012 A 
ATOM     23  C   UNL     1      11.628   3.141  -4.949  0.00  0.00    +0.008 A 
ATOM     25  C   UNL     1       9.341   3.396  -4.350  0.00  0.00    +0.115 A 
ATOM     26  C   UNL     1      11.377   3.879  -6.100  0.00  0.00    +0.020 A 
ATOM     27  C   UNL     1      10.087   4.340  -6.306  0.00  0.00    +0.111 A 
ENDBRANCH  19  21
ENDBRANCH   5  19
ENDBRANCH  11  17
BRANCH  10  16
ATOM     16  C   UNL     1      10.894   5.701   2.621  0.00  0.00    +0.164 C 
BRANCH  16   4
ATOM      4  N   UNL     1      10.526   5.872   4.069  0.00  0.00    -0.250 N 
ATOM      6  N   UNL     1      10.502   7.091   4.631  0.00  0.00    -0.065 NA
ATOM      7  N   UNL     1      10.154   6.931   5.903  0.00  0.00    -0.134 NA
ATOM     18  C   UNL     1      10.194   4.900   4.962  0.00  0.00    +0.133 A 
ATOM     20  C   UNL     1       9.961   5.595   6.122  0.00  0.00    +0.085 A 
BRANCH  20  22
ATOM     22  C   UNL     1       9.565   5.088   7.441  0.00  0.00    +0.086 C 
BRANCH  22  24
ATOM     24  C   UNL     1      10.387   5.675   8.605  0.00  0.00    +0.162 C 
BRANCH  24   2
ATOM      2  O   UNL     1      11.771   5.616   8.279  0.00  0.00    -0.395 OA
ATOM     29  H   UNL     1      11.847   5.107   7.454  0.00  0.00    +0.209 HD
ENDBRANCH  24   2
ENDBRANCH  22  24
ENDBRANCH  20  22
ENDBRANCH  16   4
ENDBRANCH  10  16
TORSDOF 8
ENDMDL
MODEL 6
REMARK VINA RESULT:      -5.8     27.216     29.036
REMARK  Name = 44716179
REMARK  8 active torsions:
REMARK  status: ('A' for Active; 'I' for Inactive)
REMARK    1  A    between atoms: O_2  and  C_24
REMARK    2  A    between atoms: N_4  and  C_16
REMARK    3  A    between atoms: N_5  and  C_19
REMARK    4  A    between atoms: C_10  and  C_16
REMARK    5  A    between atoms: C_11  and  C_17
REMARK    6  A    between atoms: C_19  and  C_21
REMARK    7  A    between atoms: C_20  and  C_22
REMARK    8  A    between atoms: C_22  and  C_24
REMARK                            x       y       z     vdW  Elec       q    Type
REMARK                         _______ _______ _______ _____ _____    ______ ____
ROOT
ATOM      3  N   UNL     1      -5.733 -10.117  17.165  0.00  0.00    -0.297 NA
ATOM      9  C   UNL     1      -5.191 -12.651  16.930  0.00  0.00    +0.005 C 
ATOM     10  C   UNL     1      -6.811 -10.797  16.399  0.00  0.00    +0.078 C 
ATOM     11  C   UNL     1      -4.005 -11.781  16.469  0.00  0.00    +0.092 C 
ATOM     12  C   UNL     1      -6.441 -12.269  16.114  0.00  0.00    +0.025 C 
ATOM     13  C   UNL     1      -5.470 -12.278  18.398  0.00  0.00    +0.020 C 
ATOM     14  C   UNL     1      -4.425 -10.301  16.488  0.00  0.00    +0.097 C 
ATOM     15  C   UNL     1      -5.654 -10.752  18.505  0.00  0.00    +0.085 C 
ENDROOT
BRANCH  11  17
ATOM      1  O   UNL     1      -3.348 -13.373  14.813  0.00  0.00    -0.275 OA
ATOM      5  N   UNL     1      -3.252 -11.105  14.298  0.00  0.00    -0.311 N 
ATOM     17  C   UNL     1      -3.510 -12.192  15.114  0.00  0.00    +0.218 C 
ATOM     28  H   UNL     1      -3.416 -10.166  14.651  0.00  0.00    +0.149 HD
BRANCH   5  19
ATOM     19  C   UNL     1      -2.745 -11.229  12.951  0.00  0.00    +0.141 C 
BRANCH  19  21
ATOM      8  N   UNL     1      -5.441  -9.059  11.429  0.00  0.00    -0.263 NA
ATOM     21  C   UNL     1      -3.455 -10.313  11.996  0.00  0.00    -0.012 A 
ATOM     23  C   UNL     1      -2.835  -9.872  10.832  0.00  0.00    +0.008 A 
ATOM     25  C   UNL     1      -4.747  -9.881  12.246  0.00  0.00    +0.115 A 
ATOM     26  C   UNL     1      -3.518  -9.025   9.966  0.00  0.00    +0.020 A 
ATOM     27  C   UNL     1      -4.807  -8.651  10.308  0.00  0.00    +0.111 A 
ENDBRANCH  19  21
ENDBRANCH   5  19
ENDBRANCH  11  17
BRANCH  10  16
ATOM     16  C   UNL     1      -7.181 -10.044  15.120  0.00  0.00    +0.164 C 
BRANCH  16   4
ATOM      4  N   UNL     1      -8.541  -9.413  15.225  0.00  0.00    -0.250 N 
ATOM      6  N   UNL     1      -9.397  -9.451  14.191  0.00  0.00    -0.065 NA
ATOM      7  N   UNL     1     -10.501  -8.816  14.570  0.00  0.00    -0.134 NA
ATOM     18  C   UNL     1      -9.072  -8.755  16.292  0.00  0.00    +0.133 A 
ATOM     20  C   UNL     1     -10.318  -8.384  15.854  0.00  0.00    +0.085 A 
BRANCH  20  22
ATOM     22  C   UNL     1     -11.365  -7.640  16.565  0.00  0.00    +0.086 C 
BRANCH  22  24
ATOM     24  C   UNL     1     -11.210  -6.110  16.476  0.00  0.00    +0.162 C 
BRANCH  24   2
ATOM      2  O   UNL     1     -10.610  -5.770  15.232  0.00  0.00    -0.395 OA
ATOM     29  H   UNL     1      -9.752  -5.359  15.433  0.00  0.00    +0.209 HD
ENDBRANCH  24   2
ENDBRANCH  22  24
ENDBRANCH  20  22
ENDBRANCH  16   4
ENDBRANCH  10  16
TORSDOF 8
ENDMDL
MODEL 7
REMARK VINA RESULT:      -5.8     25.351     28.216
REMARK  Name = 44716179
REMARK  8 active torsions:
REMARK  status: ('A' for Active; 'I' for Inactive)
REMARK    1  A    between atoms: O_2  and  C_24
REMARK    2  A    between atoms: N_4  and  C_16
REMARK    3  A    between atoms: N_5  and  C_19
REMARK    4  A    between atoms: C_10  and  C_16
REMARK    5  A    between atoms: C_11  and  C_17
REMARK    6  A    between atoms: C_19  and  C_21
REMARK    7  A    between atoms: C_20  and  C_22
REMARK    8  A    between atoms: C_22  and  C_24
REMARK                            x       y       z     vdW  Elec       q    Type
REMARK                         _______ _______ _______ _____ _____    ______ ____
ROOT
ATOM      3  N   UNL     1     -12.570   9.817  19.315  0.00  0.00    -0.297 NA
ATOM      9  C   UNL     1     -10.489   8.723  18.200  0.00  0.00    +0.005 C 
ATOM     10  C   UNL     1     -12.590   8.346  19.538  0.00  0.00    +0.078 C 
ATOM     11  C   UNL     1     -11.253   9.615  17.202  0.00  0.00    +0.092 C 
ATOM     12  C   UNL     1     -11.449   7.655  18.757  0.00  0.00    +0.025 C 
ATOM     13  C   UNL     1     -10.076   9.627  19.376  0.00  0.00    +0.020 C 
ATOM     14  C   UNL     1     -12.548  10.118  17.863  0.00  0.00    +0.097 C 
ATOM     15  C   UNL     1     -11.323  10.353  19.918  0.00  0.00    +0.085 C 
ENDROOT
BRANCH  11  17
ATOM      1  O   UNL     1     -10.678   8.228  15.344  0.00  0.00    -0.275 OA
ATOM      5  N   UNL     1     -12.837   9.089  15.484  0.00  0.00    -0.311 N 
ATOM     17  C   UNL     1     -11.538   8.892  15.918  0.00  0.00    +0.218 C 
ATOM     28  H   UNL     1     -13.467   9.664  16.036  0.00  0.00    +0.149 HD
BRANCH   5  19
ATOM     19  C   UNL     1     -13.357   8.519  14.262  0.00  0.00    +0.141 C 
BRANCH  19  21
ATOM      8  N   UNL     1     -15.916   5.778  13.777  0.00  0.00    -0.263 NA
ATOM     21  C   UNL     1     -14.526   7.612  14.517  0.00  0.00    -0.012 A 
ATOM     23  C   UNL     1     -15.289   7.734  15.673  0.00  0.00    +0.008 A 
ATOM     25  C   UNL     1     -14.877   6.626  13.609  0.00  0.00    +0.115 A 
ATOM     26  C   UNL     1     -16.367   6.880  15.881  0.00  0.00    +0.020 A 
ATOM     27  C   UNL     1     -16.635   5.927  14.911  0.00  0.00    +0.111 A 
ENDBRANCH  19  21
ENDBRANCH   5  19
ENDBRANCH  11  17
BRANCH  10  16
ATOM     16  C   UNL     1     -13.953   7.728  19.221  0.00  0.00    +0.164 C 
BRANCH  16   4
ATOM      4  N   UNL     1     -14.416   6.820  20.327  0.00  0.00    -0.250 N 
ATOM      6  N   UNL     1     -15.632   6.252  20.283  0.00  0.00    -0.065 NA
ATOM      7  N   UNL     1     -15.763   5.518  21.382  0.00  0.00    -0.134 NA
ATOM     18  C   UNL     1     -13.736   6.466  21.451  0.00  0.00    +0.133 A 
ATOM     20  C   UNL     1     -14.611   5.638  22.108  0.00  0.00    +0.085 A 
BRANCH  20  22
ATOM     22  C   UNL     1     -14.440   4.941  23.389  0.00  0.00    +0.086 C 
BRANCH  22  24
ATOM     24  C   UNL     1     -15.686   4.152  23.838  0.00  0.00    +0.162 C 
BRANCH  24   2
ATOM      2  O   UNL     1     -15.823   2.990  23.027  0.00  0.00    -0.395 OA
ATOM     29  H   UNL     1     -15.557   2.230  23.572  0.00  0.00    +0.209 HD
ENDBRANCH  24   2
ENDBRANCH  22  24
ENDBRANCH  20  22
ENDBRANCH  16   4
ENDBRANCH  10  16
TORSDOF 8
ENDMDL
MODEL 8
REMARK VINA RESULT:      -5.7      3.431      7.325
REMARK  Name = 44716179
REMARK  8 active torsions:
REMARK  status: ('A' for Active; 'I' for Inactive)
REMARK    1  A    between atoms: O_2  and  C_24
REMARK    2  A    between atoms: N_4  and  C_16
REMARK    3  A    between atoms: N_5  and  C_19
REMARK    4  A    between atoms: C_10  and  C_16
REMARK    5  A    between atoms: C_11  and  C_17
REMARK    6  A    between atoms: C_19  and  C_21
REMARK    7  A    between atoms: C_20  and  C_22
REMARK    8  A    between atoms: C_22  and  C_24
REMARK                            x       y       z     vdW  Elec       q    Type
REMARK                         _______ _______ _______ _____ _____    ______ ____
ROOT
ATOM      3  N   UNL     1      12.927  13.493  23.809  0.00  0.00    -0.297 NA
ATOM      9  C   UNL     1      14.839  11.729  23.898  0.00  0.00    +0.005 C 
ATOM     10  C   UNL     1      12.364  12.127  23.639  0.00  0.00    +0.078 C 
ATOM     11  C   UNL     1      15.150  12.839  22.874  0.00  0.00    +0.092 C 
ATOM     12  C   UNL     1      13.491  11.075  23.535  0.00  0.00    +0.025 C 
ATOM     13  C   UNL     1      14.660  12.421  25.261  0.00  0.00    +0.020 C 
ATOM     14  C   UNL     1      13.932  13.771  22.753  0.00  0.00    +0.097 C 
ATOM     15  C   UNL     1      13.613  13.544  25.125  0.00  0.00    +0.085 C 
ENDROOT
BRANCH  11  17
ATOM      1  O   UNL     1      15.157  12.772  20.486  0.00  0.00    -0.275 OA
ATOM      5  N   UNL     1      16.334  11.145  21.664  0.00  0.00    -0.311 N 
ATOM     17  C   UNL     1      15.540  12.271  21.541  0.00  0.00    +0.218 C 
ATOM     28  H   UNL     1      16.588  10.811  22.591  0.00  0.00    +0.149 HD
BRANCH   5  19
ATOM     19  C   UNL     1      16.826  10.396  20.531  0.00  0.00    +0.141 C 
BRANCH  19  21
ATOM      8  N   UNL     1      14.645   7.381  19.859  0.00  0.00    -0.263 NA
ATOM     21  C   UNL     1      16.328   8.980  20.533  0.00  0.00    -0.012 A 
ATOM     23  C   UNL     1      17.037   7.972  21.179  0.00  0.00    +0.008 A 
ATOM     25  C   UNL     1      15.149   8.635  19.893  0.00  0.00    +0.115 A 
ATOM     26  C   UNL     1      16.550   6.670  21.166  0.00  0.00    +0.020 A 
ATOM     27  C   UNL     1      15.361   6.429  20.497  0.00  0.00    +0.111 A 
ENDBRANCH  19  21
ENDBRANCH   5  19
ENDBRANCH  11  17
BRANCH  10  16
ATOM     16  C   UNL     1      11.393  12.039  22.461  0.00  0.00    +0.164 C 
BRANCH  16   4
ATOM      4  N   UNL     1      11.283  10.632  21.941  0.00  0.00    -0.250 N 
ATOM      6  N   UNL     1      11.789  10.303  20.742  0.00  0.00    -0.065 NA
ATOM      7  N   UNL     1      11.540   9.012  20.551  0.00  0.00    -0.134 NA
ATOM     18  C   UNL     1      10.698   9.565  22.550  0.00  0.00    +0.133 A 
ATOM     20  C   UNL     1      10.873   8.545  21.649  0.00  0.00    +0.085 A 
BRANCH  20  22
ATOM     22  C   UNL     1      10.451   7.142  21.746  0.00  0.00    +0.086 C 
BRANCH  22  24
ATOM     24  C   UNL     1      11.580   6.133  21.461  0.00  0.00    +0.162 C 
BRANCH  24   2
ATOM      2  O   UNL     1      11.822   6.082  20.060  0.00  0.00    -0.395 OA
ATOM     29  H   UNL     1      12.640   6.581  19.895  0.00  0.00    +0.209 HD
ENDBRANCH  24   2
ENDBRANCH  22  24
ENDBRANCH  20  22
ENDBRANCH  16   4
ENDBRANCH  10  16
TORSDOF 8
ENDMDL
MODEL 9
REMARK VINA RESULT:      -5.7     27.484     28.995
REMARK  Name = 44716179
REMARK  8 active torsions:
REMARK  status: ('A' for Active; 'I' for Inactive)
REMARK    1  A    between atoms: O_2  and  C_24
REMARK    2  A    between atoms: N_4  and  C_16
REMARK    3  A    between atoms: N_5  and  C_19
REMARK    4  A    between atoms: C_10  and  C_16
REMARK    5  A    between atoms: C_11  and  C_17
REMARK    6  A    between atoms: C_19  and  C_21
REMARK    7  A    between atoms: C_20  and  C_22
REMARK    8  A    between atoms: C_22  and  C_24
REMARK                            x       y       z     vdW  Elec       q    Type
REMARK                         _______ _______ _______ _____ _____    ______ ____
ROOT
ATOM      3  N   UNL     1      -5.698 -12.077  16.475  0.00  0.00    -0.297 NA
ATOM      9  C   UNL     1      -6.622 -10.243  18.074  0.00  0.00    +0.005 C 
ATOM     10  C   UNL     1      -5.915 -10.812  15.724  0.00  0.00    +0.078 C 
ATOM     11  C   UNL     1      -7.460 -11.534  18.161  0.00  0.00    +0.092 C 
ATOM     12  C   UNL     1      -6.606  -9.753  16.612  0.00  0.00    +0.025 C 
ATOM     13  C   UNL     1      -5.178 -10.625  18.446  0.00  0.00    +0.020 C 
ATOM     14  C   UNL     1      -6.967 -12.530  17.098  0.00  0.00    +0.097 C 
ATOM     15  C   UNL     1      -4.723 -11.802  17.560  0.00  0.00    +0.085 C 
ENDROOT
BRANCH  11  17
ATOM      1  O   UNL     1      -9.639 -11.916  17.261  0.00  0.00    -0.275 OA
ATOM      5  N   UNL     1      -9.337 -10.185  18.787  0.00  0.00    -0.311 N 
ATOM     17  C   UNL     1      -8.927 -11.255  18.013  0.00  0.00    +0.218 C 
ATOM     28  H   UNL     1      -8.660  -9.702  19.371  0.00  0.00    +0.149 HD
BRANCH   5  19
ATOM     19  C   UNL     1     -10.698  -9.699  18.807  0.00  0.00    +0.141 C 
BRANCH  19  21
ATOM      8  N   UNL     1     -12.503  -8.109  15.890  0.00  0.00    -0.263 NA
ATOM     21  C   UNL     1     -10.989  -8.794  17.645  0.00  0.00    -0.012 A 
ATOM     23  C   UNL     1     -10.070  -7.833  17.237  0.00  0.00    +0.008 A 
ATOM     25  C   UNL     1     -12.180  -8.890  16.945  0.00  0.00    +0.115 A 
ATOM     26  C   UNL     1     -10.366  -7.011  16.156  0.00  0.00    +0.020 A 
ATOM     27  C   UNL     1     -11.586  -7.187  15.522  0.00  0.00    +0.111 A 
ENDBRANCH  19  21
ENDBRANCH   5  19
ENDBRANCH  11  17
BRANCH  10  16
ATOM     16  C   UNL     1      -6.671 -11.035  14.413  0.00  0.00    +0.164 C 
BRANCH  16   4
ATOM      4  N   UNL     1      -5.989 -10.353  13.260  0.00  0.00    -0.250 N 
ATOM      6  N   UNL     1      -6.541  -9.277  12.676  0.00  0.00    -0.065 NA
ATOM      7  N   UNL     1      -5.726  -8.899  11.697  0.00  0.00    -0.134 NA
ATOM     18  C   UNL     1      -4.808 -10.692  12.674  0.00  0.00    +0.133 A 
ATOM     20  C   UNL     1      -4.660  -9.755  11.683  0.00  0.00    +0.085 A 
BRANCH  20  22
ATOM     22  C   UNL     1      -3.573  -9.603  10.708  0.00  0.00    +0.086 C 
BRANCH  22  24
ATOM     24  C   UNL     1      -4.039  -9.682   9.241  0.00  0.00    +0.162 C 
BRANCH  24   2
ATOM      2  O   UNL     1      -4.541  -8.413   8.839  0.00  0.00    -0.395 OA
ATOM     29  H   UNL     1      -4.469  -8.373   7.870  0.00  0.00    +0.209 HD
ENDBRANCH  24   2
ENDBRANCH  22  24
ENDBRANCH  20  22
ENDBRANCH  16   4
ENDBRANCH  10  16
TORSDOF 8
ENDMDL
MODEL 10
REMARK VINA RESULT:      -5.7      7.658     11.255
REMARK  Name = 44716179
REMARK  8 active torsions:
REMARK  status: ('A' for Active; 'I' for Inactive)
REMARK    1  A    between atoms: O_2  and  C_24
REMARK    2  A    between atoms: N_4  and  C_16
REMARK    3  A    between atoms: N_5  and  C_19
REMARK    4  A    between atoms: C_10  and  C_16
REMARK    5  A    between atoms: C_11  and  C_17
REMARK    6  A    between atoms: C_19  and  C_21
REMARK    7  A    between atoms: C_20  and  C_22
REMARK    8  A    between atoms: C_22  and  C_24
REMARK                            x       y       z     vdW  Elec       q    Type
REMARK                         _______ _______ _______ _____ _____    ______ ____
ROOT
ATOM      3  N   UNL     1      21.150   6.962  20.300  0.00  0.00    -0.297 NA
ATOM      9  C   UNL     1      21.332   6.336  22.820  0.00  0.00    +0.005 C 
ATOM     10  C   UNL     1      19.795   6.711  20.859  0.00  0.00    +0.078 C 
ATOM     11  C   UNL     1      22.259   5.457  21.957  0.00  0.00    +0.092 C 
ATOM     12  C   UNL     1      19.885   6.189  22.311  0.00  0.00    +0.025 C 
ATOM     13  C   UNL     1      21.757   7.796  22.580  0.00  0.00    +0.020 C 
ATOM     14  C   UNL     1      22.008   5.764  20.471  0.00  0.00    +0.097 C 
ATOM     15  C   UNL     1      21.759   8.080  21.065  0.00  0.00    +0.085 C 
ENDROOT
BRANCH  11  17
ATOM      1  O   UNL     1      21.427   3.262  21.513  0.00  0.00    -0.275 OA
ATOM      5  N   UNL     1      22.688   3.623  23.437  0.00  0.00    -0.311 N 
ATOM     17  C   UNL     1      22.074   3.998  22.255  0.00  0.00    +0.218 C 
ATOM     28  H   UNL     1      23.195   4.318  23.979  0.00  0.00    +0.149 HD
BRANCH   5  19
ATOM     19  C   UNL     1      22.640   2.277  23.961  0.00  0.00    +0.141 C 
BRANCH  19  21
ATOM      8  N   UNL     1      25.664   0.013  24.131  0.00  0.00    -0.263 NA
ATOM     21  C   UNL     1      23.826   1.464  23.530  0.00  0.00    -0.012 A 
ATOM     23  C   UNL     1      24.197   1.391  22.191  0.00  0.00    +0.008 A 
ATOM     25  C   UNL     1      24.585   0.762  24.452  0.00  0.00    +0.115 A 
ATOM     26  C   UNL     1      25.302   0.631  21.822  0.00  0.00    +0.020 A 
ATOM     27  C   UNL     1      25.994  -0.033  22.821  0.00  0.00    +0.111 A 
ENDBRANCH  19  21
ENDBRANCH   5  19
ENDBRANCH  11  17
BRANCH  10  16
ATOM     16  C   UNL     1      18.961   5.785  19.972  0.00  0.00    +0.164 C 
BRANCH  16   4
ATOM      4  N   UNL     1      17.553   6.289  19.819  0.00  0.00    -0.250 N 
ATOM      6  N   UNL     1      16.732   5.760  18.897  0.00  0.00    -0.065 NA
ATOM      7  N   UNL     1      15.572   6.400  18.990  0.00  0.00    -0.134 NA
ATOM     18  C   UNL     1      16.942   7.278  20.527  0.00  0.00    +0.133 A 
ATOM     20  C   UNL     1      15.684   7.332  19.984  0.00  0.00    +0.085 A 
BRANCH  20  22
ATOM     22  C   UNL     1      14.562   8.211  20.336  0.00  0.00    +0.086 C 
BRANCH  22  24
ATOM     24  C   UNL     1      13.186   7.521  20.263  0.00  0.00    +0.162 C 
BRANCH  24   2
ATOM      2  O   UNL     1      13.244   6.283  20.961  0.00  0.00    -0.395 OA
ATOM     29  H   UNL     1      14.184   6.065  21.077  0.00  0.00    +0.209 HD
ENDBRANCH  24   2
ENDBRANCH  22  24
ENDBRANCH  20  22
ENDBRANCH  16   4
ENDBRANCH  10  16
TORSDOF 8
ENDMDL
