MODEL 1
REMARK VINA RESULT:      -5.6      0.000      0.000
REMARK  Name = 75367060
REMARK  10 active torsions:
REMARK  status: ('A' for Active; 'I' for Inactive)
REMARK    1  A    between atoms: O_2  and  C_8
REMARK    2  A    between atoms: N_4  and  C_6
REMARK    3  A    between atoms: N_4  and  C_7
REMARK    4  A    between atoms: N_5  and  C_15
REMARK    5  A    between atoms: C_11  and  C_15
REMARK    6  A    between atoms: C_16  and  C_17
REMARK    7  A    between atoms: C_16  and  C_19
REMARK    8  A    between atoms: C_16  and  C_20
REMARK    9  A    between atoms: C_16  and  C_21
REMARK   10  A    between atoms: C_17  and  C_18
REMARK                            x       y       z     vdW  Elec       q    Type
REMARK                         _______ _______ _______ _____ _____    ______ ____
ROOT
ATOM      1  O   UNL     1      -4.801 -11.888  17.709  0.00  0.00    -0.371 OA
ATOM      7  C   UNL     1      -6.680 -10.477  17.359  0.00  0.00    +0.111 C 
ATOM      8  C   UNL     1      -5.477  -9.885  16.648  0.00  0.00    +0.164 C 
ATOM     11  C   UNL     1      -4.579 -11.108  16.522  0.00  0.00    +0.165 C 
ATOM     14  C   UNL     1      -6.013 -11.431  18.336  0.00  0.00    +0.181 C 
ENDROOT
BRANCH   8   2
ATOM      2  O   UNL     1      -5.803  -9.337  15.385  0.00  0.00    -0.388 OA
ATOM     23  H   UNL     1      -6.722  -9.577  15.177  0.00  0.00    +0.210 HD
ENDBRANCH   8   2
BRANCH   7   4
ATOM      4  N   UNL     1      -7.516  -9.486  18.017  0.00  0.00    -0.306 NA
ATOM     22  H   UNL     1      -7.118  -8.555  17.897  0.00  0.00    +0.123 HD
BRANCH   4   6
ATOM      6  C   UNL     1      -8.873  -9.520  17.501  0.00  0.00    +0.054 C 
ATOM      9  C   UNL     1      -9.868 -10.101  18.497  0.00  0.00    +0.019 C 
ATOM     10  C   UNL     1      -9.441  -8.130  17.245  0.00  0.00    +0.019 C 
ATOM     12  C   UNL     1     -11.222  -9.638  17.964  0.00  0.00    +0.002 C 
ATOM     13  C   UNL     1     -10.946  -8.366  17.158  0.00  0.00    +0.002 C 
ENDBRANCH   4   6
ENDBRANCH   7   4
BRANCH  11  15
ATOM     15  C   UNL     1      -3.106 -10.761  16.405  0.00  0.00    +0.138 C 
BRANCH  15   5
ATOM      3  O   UNL     1      -2.179 -12.355  14.171  0.00  0.00    -0.276 OA
ATOM      5  N   UNL     1      -2.776 -10.299  15.076  0.00  0.00    -0.313 N 
ATOM     18  C   UNL     1      -2.338 -11.140  14.067  0.00  0.00    +0.214 C 
ATOM     24  H   UNL     1      -2.885  -9.307  14.884  0.00  0.00    +0.149 HD
BRANCH  18  17
ATOM     17  C   UNL     1      -2.050 -10.409  12.766  0.00  0.00    +0.102 C 
BRANCH  17  16
ATOM     16  C   UNL     1      -3.153 -10.546  11.689  0.00  0.00    -0.029 C 
ATOM     19  C   UNL     1      -2.844  -9.544  10.559  0.00  0.00    +0.011 C 
ATOM     20  C   UNL     1      -3.181 -11.961  11.090  0.00  0.00    +0.011 C 
ATOM     21  C   UNL     1      -4.538 -10.212  12.269  0.00  0.00    +0.011 C 
ENDBRANCH  17  16
ENDBRANCH  18  17
ENDBRANCH  15   5
ENDBRANCH  11  15
TORSDOF 7
ENDMDL
MODEL 2
REMARK VINA RESULT:      -5.6     27.459     29.170
REMARK  Name = 75367060
REMARK  10 active torsions:
REMARK  status: ('A' for Active; 'I' for Inactive)
REMARK    1  A    between atoms: O_2  and  C_8
REMARK    2  A    between atoms: N_4  and  C_6
REMARK    3  A    between atoms: N_4  and  C_7
REMARK    4  A    between atoms: N_5  and  C_15
REMARK    5  A    between atoms: C_11  and  C_15
REMARK    6  A    between atoms: C_16  and  C_17
REMARK    7  A    between atoms: C_16  and  C_19
REMARK    8  A    between atoms: C_16  and  C_20
REMARK    9  A    between atoms: C_16  and  C_21
REMARK   10  A    between atoms: C_17  and  C_18
REMARK                            x       y       z     vdW  Elec       q    Type
REMARK                         _______ _______ _______ _____ _____    ______ ____
ROOT
ATOM      1  O   UNL     1      17.368   6.868  19.643  0.00  0.00    -0.371 OA
ATOM      7  C   UNL     1      15.136   7.083  20.428  0.00  0.00    +0.111 C 
ATOM      8  C   UNL     1      16.092   7.461  21.545  0.00  0.00    +0.164 C 
ATOM     11  C   UNL     1      17.354   7.779  20.755  0.00  0.00    +0.165 C 
ATOM     14  C   UNL     1      16.052   6.304  19.498  0.00  0.00    +0.181 C 
ENDROOT
BRANCH   8   2
ATOM      2  O   UNL     1      15.644   8.573  22.294  0.00  0.00    -0.388 OA
ATOM     23  H   UNL     1      16.397   8.926  22.797  0.00  0.00    +0.210 HD
ENDBRANCH   8   2
BRANCH   7   4
ATOM      4  N   UNL     1      13.992   6.306  20.877  0.00  0.00    -0.306 NA
ATOM     22  H   UNL     1      13.983   6.250  21.894  0.00  0.00    +0.123 HD
BRANCH   4   6
ATOM      6  C   UNL     1      12.748   6.880  20.396  0.00  0.00    +0.054 C 
ATOM      9  C   UNL     1      11.696   7.008  21.490  0.00  0.00    +0.019 C 
ATOM     10  C   UNL     1      12.907   8.321  19.927  0.00  0.00    +0.019 C 
ATOM     12  C   UNL     1      10.695   8.005  20.912  0.00  0.00    +0.002 C 
ATOM     13  C   UNL     1      11.477   8.853  19.905  0.00  0.00    +0.002 C 
ENDBRANCH   4   6
ENDBRANCH   7   4
BRANCH  11  15
ATOM     15  C   UNL     1      18.627   7.617  21.567  0.00  0.00    +0.138 C 
BRANCH  15   5
ATOM      3  O   UNL     1      21.242   7.290  20.367  0.00  0.00    -0.276 OA
ATOM      5  N   UNL     1      19.298   6.376  21.254  0.00  0.00    -0.313 N 
ATOM     18  C   UNL     1      20.555   6.318  20.676  0.00  0.00    +0.214 C 
ATOM     24  H   UNL     1      18.815   5.512  21.482  0.00  0.00    +0.149 HD
BRANCH  18  17
ATOM     17  C   UNL     1      21.037   4.896  20.440  0.00  0.00    +0.102 C 
BRANCH  17  16
ATOM     16  C   UNL     1      22.275   4.486  21.272  0.00  0.00    -0.029 C 
ATOM     19  C   UNL     1      22.052   4.956  22.723  0.00  0.00    +0.011 C 
ATOM     20  C   UNL     1      22.466   2.960  21.280  0.00  0.00    +0.011 C 
ATOM     21  C   UNL     1      23.551   5.154  20.734  0.00  0.00    +0.011 C 
ENDBRANCH  17  16
ENDBRANCH  18  17
ENDBRANCH  15   5
ENDBRANCH  11  15
TORSDOF 7
ENDMDL
MODEL 3
REMARK VINA RESULT:      -5.5     27.245     29.675
REMARK  Name = 75367060
REMARK  10 active torsions:
REMARK  status: ('A' for Active; 'I' for Inactive)
REMARK    1  A    between atoms: O_2  and  C_8
REMARK    2  A    between atoms: N_4  and  C_6
REMARK    3  A    between atoms: N_4  and  C_7
REMARK    4  A    between atoms: N_5  and  C_15
REMARK    5  A    between atoms: C_11  and  C_15
REMARK    6  A    between atoms: C_16  and  C_17
REMARK    7  A    between atoms: C_16  and  C_19
REMARK    8  A    between atoms: C_16  and  C_20
REMARK    9  A    between atoms: C_16  and  C_21
REMARK   10  A    between atoms: C_17  and  C_18
REMARK                            x       y       z     vdW  Elec       q    Type
REMARK                         _______ _______ _______ _____ _____    ______ ____
ROOT
ATOM      1  O   UNL     1      17.001   6.091  19.949  0.00  0.00    -0.371 OA
ATOM      7  C   UNL     1      19.290   5.913  20.558  0.00  0.00    +0.111 C 
ATOM      8  C   UNL     1      18.620   6.944  21.448  0.00  0.00    +0.164 C 
ATOM     11  C   UNL     1      17.157   6.549  21.302  0.00  0.00    +0.165 C 
ATOM     14  C   UNL     1      18.306   5.826  19.403  0.00  0.00    +0.181 C 
ENDROOT
BRANCH   8   2
ATOM      2  O   UNL     1      19.055   6.870  22.792  0.00  0.00    -0.388 OA
ATOM     23  H   UNL     1      20.026   6.867  22.798  0.00  0.00    +0.210 HD
ENDBRANCH   8   2
BRANCH   7   4
ATOM      4  N   UNL     1      20.629   6.290  20.134  0.00  0.00    -0.306 NA
ATOM     22  H   UNL     1      20.859   7.220  20.482  0.00  0.00    +0.123 HD
BRANCH   4   6
ATOM      6  C   UNL     1      21.614   5.326  20.593  0.00  0.00    +0.054 C 
ATOM      9  C   UNL     1      22.216   5.697  21.943  0.00  0.00    +0.019 C 
ATOM     10  C   UNL     1      21.012   3.955  20.870  0.00  0.00    +0.019 C 
ATOM     12  C   UNL     1      22.841   4.392  22.428  0.00  0.00    +0.002 C 
ATOM     13  C   UNL     1      22.064   3.268  21.737  0.00  0.00    +0.002 C 
ENDBRANCH   4   6
ENDBRANCH   7   4
BRANCH  11  15
ATOM     15  C   UNL     1      16.197   7.696  21.569  0.00  0.00    +0.138 C 
BRANCH  15   5
ATOM      3  O   UNL     1      14.143   8.049  19.558  0.00  0.00    -0.276 OA
ATOM      5  N   UNL     1      14.828   7.236  21.625  0.00  0.00    -0.313 N 
ATOM     18  C   UNL     1      13.913   7.454  20.609  0.00  0.00    +0.214 C 
ATOM     24  H   UNL     1      14.540   6.723  22.452  0.00  0.00    +0.149 HD
BRANCH  18  17
ATOM     17  C   UNL     1      12.539   6.880  20.913  0.00  0.00    +0.102 C 
BRANCH  17  16
ATOM     16  C   UNL     1      11.463   7.933  21.272  0.00  0.00    -0.029 C 
ATOM     19  C   UNL     1      10.905   8.512  19.957  0.00  0.00    +0.011 C 
ATOM     20  C   UNL     1      10.301   7.304  22.058  0.00  0.00    +0.011 C 
ATOM     21  C   UNL     1      12.067   9.084  22.093  0.00  0.00    +0.011 C 
ENDBRANCH  17  16
ENDBRANCH  18  17
ENDBRANCH  15   5
ENDBRANCH  11  15
TORSDOF 7
ENDMDL
MODEL 4
REMARK VINA RESULT:      -5.5     19.130     21.190
REMARK  Name = 75367060
REMARK  10 active torsions:
REMARK  status: ('A' for Active; 'I' for Inactive)
REMARK    1  A    between atoms: O_2  and  C_8
REMARK    2  A    between atoms: N_4  and  C_6
REMARK    3  A    between atoms: N_4  and  C_7
REMARK    4  A    between atoms: N_5  and  C_15
REMARK    5  A    between atoms: C_11  and  C_15
REMARK    6  A    between atoms: C_16  and  C_17
REMARK    7  A    between atoms: C_16  and  C_19
REMARK    8  A    between atoms: C_16  and  C_20
REMARK    9  A    between atoms: C_16  and  C_21
REMARK   10  A    between atoms: C_17  and  C_18
REMARK                            x       y       z     vdW  Elec       q    Type
REMARK                         _______ _______ _______ _____ _____    ______ ____
ROOT
ATOM      1  O   UNL     1     -16.795   4.083  22.065  0.00  0.00    -0.371 OA
ATOM      7  C   UNL     1     -14.859   5.445  22.271  0.00  0.00    +0.111 C 
ATOM      8  C   UNL     1     -15.127   4.760  23.599  0.00  0.00    +0.164 C 
ATOM     11  C   UNL     1     -15.998   3.593  23.156  0.00  0.00    +0.165 C 
ATOM     14  C   UNL     1     -16.208   5.305  21.584  0.00  0.00    +0.181 C 
ENDROOT
BRANCH   8   2
ATOM      2  O   UNL     1     -13.942   4.322  24.236  0.00  0.00    -0.388 OA
ATOM     23  H   UNL     1     -13.958   4.633  25.156  0.00  0.00    +0.210 HD
ENDBRANCH   8   2
BRANCH   7   4
ATOM      4  N   UNL     1     -14.433   6.828  22.403  0.00  0.00    -0.306 NA
ATOM     22  H   UNL     1     -13.921   6.957  23.275  0.00  0.00    +0.123 HD
BRANCH   4   6
ATOM      6  C   UNL     1     -13.610   7.232  21.277  0.00  0.00    +0.054 C 
ATOM      9  C   UNL     1     -13.064   8.647  21.422  0.00  0.00    +0.019 C 
ATOM     10  C   UNL     1     -12.338   6.403  21.149  0.00  0.00    +0.019 C 
ATOM     12  C   UNL     1     -11.916   8.694  20.417  0.00  0.00    +0.002 C 
ATOM     13  C   UNL     1     -11.447   7.247  20.242  0.00  0.00    +0.002 C 
ENDBRANCH   4   6
ENDBRANCH   7   4
BRANCH  11  15
ATOM     15  C   UNL     1     -16.904   3.070  24.257  0.00  0.00    +0.138 C 
BRANCH  15   5
ATOM      3  O   UNL     1     -17.729   4.110  26.831  0.00  0.00    -0.276 OA
ATOM      5  N   UNL     1     -16.199   2.960  25.514  0.00  0.00    -0.313 N 
ATOM     18  C   UNL     1     -16.674   3.494  26.700  0.00  0.00    +0.214 C 
ATOM     24  H   UNL     1     -15.316   2.457  25.513  0.00  0.00    +0.149 HD
BRANCH  18  17
ATOM     17  C   UNL     1     -15.743   3.251  27.876  0.00  0.00    +0.102 C 
BRANCH  17  16
ATOM     16  C   UNL     1     -16.262   2.223  28.910  0.00  0.00    -0.029 C 
ATOM     19  C   UNL     1     -17.160   2.970  29.916  0.00  0.00    +0.011 C 
ATOM     20  C   UNL     1     -17.097   1.121  28.238  0.00  0.00    +0.011 C 
ATOM     21  C   UNL     1     -15.098   1.579  29.682  0.00  0.00    +0.011 C 
ENDBRANCH  17  16
ENDBRANCH  18  17
ENDBRANCH  15   5
ENDBRANCH  11  15
TORSDOF 7
ENDMDL
MODEL 5
REMARK VINA RESULT:      -5.4     17.688     19.948
REMARK  Name = 75367060
REMARK  10 active torsions:
REMARK  status: ('A' for Active; 'I' for Inactive)
REMARK    1  A    between atoms: O_2  and  C_8
REMARK    2  A    between atoms: N_4  and  C_6
REMARK    3  A    between atoms: N_4  and  C_7
REMARK    4  A    between atoms: N_5  and  C_15
REMARK    5  A    between atoms: C_11  and  C_15
REMARK    6  A    between atoms: C_16  and  C_17
REMARK    7  A    between atoms: C_16  and  C_19
REMARK    8  A    between atoms: C_16  and  C_20
REMARK    9  A    between atoms: C_16  and  C_21
REMARK   10  A    between atoms: C_17  and  C_18
REMARK                            x       y       z     vdW  Elec       q    Type
REMARK                         _______ _______ _______ _____ _____    ______ ____
ROOT
ATOM      1  O   UNL     1      -0.672 -15.650  -2.336  0.00  0.00    -0.371 OA
ATOM      7  C   UNL     1       0.160 -14.473  -0.448  0.00  0.00    +0.111 C 
ATOM      8  C   UNL     1      -0.853 -13.602  -1.166  0.00  0.00    +0.164 C 
ATOM     11  C   UNL     1      -1.629 -14.647  -1.957  0.00  0.00    +0.165 C 
ATOM     14  C   UNL     1       0.506 -15.485  -1.528  0.00  0.00    +0.181 C 
ENDROOT
BRANCH   8   2
ATOM      2  O   UNL     1      -1.688 -12.888  -0.275  0.00  0.00    -0.388 OA
ATOM     23  H   UNL     1      -1.124 -12.347   0.303  0.00  0.00    +0.210 HD
ENDBRANCH   8   2
BRANCH   7   4
ATOM      4  N   UNL     1       1.321 -13.742   0.035  0.00  0.00    -0.306 NA
ATOM     22  H   UNL     1       1.199 -13.498   1.017  0.00  0.00    +0.123 HD
BRANCH   4   6
ATOM      6  C   UNL     1       2.537 -14.517  -0.140  0.00  0.00    +0.054 C 
ATOM      9  C   UNL     1       3.708 -13.672  -0.626  0.00  0.00    +0.019 C 
ATOM     10  C   UNL     1       3.066 -15.087   1.169  0.00  0.00    +0.019 C 
ATOM     12  C   UNL     1       4.928 -14.535  -0.313  0.00  0.00    +0.002 C 
ATOM     13  C   UNL     1       4.514 -15.447   0.847  0.00  0.00    +0.002 C 
ENDBRANCH   4   6
ENDBRANCH   7   4
BRANCH  11  15
ATOM     15  C   UNL     1      -2.300 -14.083  -3.197  0.00  0.00    +0.138 C 
BRANCH  15   5
ATOM      3  O   UNL     1      -0.525 -14.189  -5.483  0.00  0.00    -0.276 OA
ATOM      5  N   UNL     1      -1.535 -12.996  -3.763  0.00  0.00    -0.313 N 
ATOM     18  C   UNL     1      -0.708 -13.142  -4.864  0.00  0.00    +0.214 C 
ATOM     24  H   UNL     1      -1.626 -12.083  -3.327  0.00  0.00    +0.149 HD
BRANCH  18  17
ATOM     17  C   UNL     1      -0.008 -11.852  -5.258  0.00  0.00    +0.102 C 
BRANCH  17  16
ATOM     16  C   UNL     1       1.470 -11.755  -4.810  0.00  0.00    -0.029 C 
ATOM     19  C   UNL     1       1.773 -10.279  -4.484  0.00  0.00    +0.011 C 
ATOM     20  C   UNL     1       1.732 -12.595  -3.550  0.00  0.00    +0.011 C 
ATOM     21  C   UNL     1       2.420 -12.210  -5.930  0.00  0.00    +0.011 C 
ENDBRANCH  17  16
ENDBRANCH  18  17
ENDBRANCH  15   5
ENDBRANCH  11  15
TORSDOF 7
ENDMDL
MODEL 6
REMARK VINA RESULT:      -5.4      2.963      4.277
REMARK  Name = 75367060
REMARK  10 active torsions:
REMARK  status: ('A' for Active; 'I' for Inactive)
REMARK    1  A    between atoms: O_2  and  C_8
REMARK    2  A    between atoms: N_4  and  C_6
REMARK    3  A    between atoms: N_4  and  C_7
REMARK    4  A    between atoms: N_5  and  C_15
REMARK    5  A    between atoms: C_11  and  C_15
REMARK    6  A    between atoms: C_16  and  C_17
REMARK    7  A    between atoms: C_16  and  C_19
REMARK    8  A    between atoms: C_16  and  C_20
REMARK    9  A    between atoms: C_16  and  C_21
REMARK   10  A    between atoms: C_17  and  C_18
REMARK                            x       y       z     vdW  Elec       q    Type
REMARK                         _______ _______ _______ _____ _____    ______ ____
ROOT
ATOM      1  O   UNL     1      -3.904 -10.443  13.840  0.00  0.00    -0.371 OA
ATOM      7  C   UNL     1      -3.268 -10.753  16.108  0.00  0.00    +0.111 C 
ATOM      8  C   UNL     1      -2.171 -11.292  15.208  0.00  0.00    +0.164 C 
ATOM     11  C   UNL     1      -2.473 -10.560  13.907  0.00  0.00    +0.165 C 
ATOM     14  C   UNL     1      -4.445 -10.700  15.148  0.00  0.00    +0.181 C 
ENDROOT
BRANCH   8   2
ATOM      2  O   UNL     1      -0.875 -10.996  15.691  0.00  0.00    -0.388 OA
ATOM     23  H   UNL     1      -0.899 -10.122  16.115  0.00  0.00    +0.210 HD
ENDBRANCH   8   2
BRANCH   7   4
ATOM      4  N   UNL     1      -3.526 -11.582  17.274  0.00  0.00    -0.306 NA
ATOM     22  H   UNL     1      -2.959 -11.268  18.061  0.00  0.00    +0.123 HD
BRANCH   4   6
ATOM      6  C   UNL     1      -4.934 -11.559  17.631  0.00  0.00    +0.054 C 
ATOM      9  C   UNL     1      -5.469 -12.934  18.010  0.00  0.00    +0.019 C 
ATOM     10  C   UNL     1      -5.209 -10.744  18.888  0.00  0.00    +0.019 C 
ATOM     12  C   UNL     1      -6.763 -12.623  18.756  0.00  0.00    +0.002 C 
ATOM     13  C   UNL     1      -6.596 -11.211  19.324  0.00  0.00    +0.002 C 
ENDBRANCH   4   6
ENDBRANCH   7   4
BRANCH  11  15
ATOM     15  C   UNL     1      -1.959 -11.287  12.677  0.00  0.00    +0.138 C 
BRANCH  15   5
ATOM      3  O   UNL     1      -2.103  -9.228  10.645  0.00  0.00    -0.276 OA
ATOM      5  N   UNL     1      -2.898 -11.201  11.582  0.00  0.00    -0.313 N 
ATOM     18  C   UNL     1      -2.890 -10.173  10.655  0.00  0.00    +0.214 C 
ATOM     24  H   UNL     1      -3.586 -11.943  11.496  0.00  0.00    +0.149 HD
BRANCH  18  17
ATOM     17  C   UNL     1      -3.984 -10.307   9.609  0.00  0.00    +0.102 C 
BRANCH  17  16
ATOM     16  C   UNL     1      -5.357  -9.731  10.030  0.00  0.00    -0.029 C 
ATOM     19  C   UNL     1      -6.176 -10.868  10.671  0.00  0.00    +0.011 C 
ATOM     20  C   UNL     1      -5.200  -8.603  11.063  0.00  0.00    +0.011 C 
ATOM     21  C   UNL     1      -6.132  -9.200   8.813  0.00  0.00    +0.011 C 
ENDBRANCH  17  16
ENDBRANCH  18  17
ENDBRANCH  15   5
ENDBRANCH  11  15
TORSDOF 7
ENDMDL
MODEL 7
REMARK VINA RESULT:      -5.3     19.767     21.553
REMARK  Name = 75367060
REMARK  10 active torsions:
REMARK  status: ('A' for Active; 'I' for Inactive)
REMARK    1  A    between atoms: O_2  and  C_8
REMARK    2  A    between atoms: N_4  and  C_6
REMARK    3  A    between atoms: N_4  and  C_7
REMARK    4  A    between atoms: N_5  and  C_15
REMARK    5  A    between atoms: C_11  and  C_15
REMARK    6  A    between atoms: C_16  and  C_17
REMARK    7  A    between atoms: C_16  and  C_19
REMARK    8  A    between atoms: C_16  and  C_20
REMARK    9  A    between atoms: C_16  and  C_21
REMARK   10  A    between atoms: C_17  and  C_18
REMARK                            x       y       z     vdW  Elec       q    Type
REMARK                         _______ _______ _______ _____ _____    ______ ____
ROOT
ATOM      1  O   UNL     1     -16.195  -0.076  29.543  0.00  0.00    -0.371 OA
ATOM      7  C   UNL     1     -14.851   1.485  30.727  0.00  0.00    +0.111 C 
ATOM      8  C   UNL     1     -15.182   2.054  29.359  0.00  0.00    +0.164 C 
ATOM     11  C   UNL     1     -16.410   1.233  28.990  0.00  0.00    +0.165 C 
ATOM     14  C   UNL     1     -15.138   0.008  30.516  0.00  0.00    +0.181 C 
ENDROOT
BRANCH   8   2
ATOM      2  O   UNL     1     -15.466   3.439  29.398  0.00  0.00    -0.388 OA
ATOM     23  H   UNL     1     -16.217   3.580  29.998  0.00  0.00    +0.210 HD
ENDBRANCH   8   2
BRANCH   7   4
ATOM      4  N   UNL     1     -13.484   1.741  31.150  0.00  0.00    -0.306 NA
ATOM     22  H   UNL     1     -12.965   2.202  30.403  0.00  0.00    +0.123 HD
BRANCH   4   6
ATOM      6  C   UNL     1     -13.453   2.552  32.354  0.00  0.00    +0.054 C 
ATOM      9  C   UNL     1     -13.404   4.046  32.058  0.00  0.00    +0.019 C 
ATOM     10  C   UNL     1     -14.724   2.426  33.184  0.00  0.00    +0.019 C 
ATOM     12  C   UNL     1     -13.826   4.688  33.377  0.00  0.00    +0.002 C 
ATOM     13  C   UNL     1     -14.679   3.644  34.102  0.00  0.00    +0.002 C 
ENDBRANCH   4   6
ENDBRANCH   7   4
BRANCH  11  15
ATOM     15  C   UNL     1     -16.632   1.127  27.492  0.00  0.00    +0.138 C 
BRANCH  15   5
ATOM      3  O   UNL     1     -16.332   1.609  24.652  0.00  0.00    -0.276 OA
ATOM      5  N   UNL     1     -16.427   2.398  26.836  0.00  0.00    -0.313 N 
ATOM     18  C   UNL     1     -16.293   2.532  25.464  0.00  0.00    +0.214 C 
ATOM     24  H   UNL     1     -16.389   3.227  27.422  0.00  0.00    +0.149 HD
BRANCH  18  17
ATOM     17  C   UNL     1     -16.077   3.970  25.024  0.00  0.00    +0.102 C 
BRANCH  17  16
ATOM     16  C   UNL     1     -17.263   4.595  24.252  0.00  0.00    -0.029 C 
ATOM     19  C   UNL     1     -17.208   6.123  24.448  0.00  0.00    +0.011 C 
ATOM     20  C   UNL     1     -17.175   4.294  22.747  0.00  0.00    +0.011 C 
ATOM     21  C   UNL     1     -18.609   4.083  24.794  0.00  0.00    +0.011 C 
ENDBRANCH  17  16
ENDBRANCH  18  17
ENDBRANCH  15   5
ENDBRANCH  11  15
TORSDOF 7
ENDMDL
MODEL 8
REMARK VINA RESULT:      -5.2      1.434      2.059
REMARK  Name = 75367060
REMARK  10 active torsions:
REMARK  status: ('A' for Active; 'I' for Inactive)
REMARK    1  A    between atoms: O_2  and  C_8
REMARK    2  A    between atoms: N_4  and  C_6
REMARK    3  A    between atoms: N_4  and  C_7
REMARK    4  A    between atoms: N_5  and  C_15
REMARK    5  A    between atoms: C_11  and  C_15
REMARK    6  A    between atoms: C_16  and  C_17
REMARK    7  A    between atoms: C_16  and  C_19
REMARK    8  A    between atoms: C_16  and  C_20
REMARK    9  A    between atoms: C_16  and  C_21
REMARK   10  A    between atoms: C_17  and  C_18
REMARK                            x       y       z     vdW  Elec       q    Type
REMARK                         _______ _______ _______ _____ _____    ______ ____
ROOT
ATOM      1  O   UNL     1      -6.936 -12.399  17.094  0.00  0.00    -0.371 OA
ATOM      7  C   UNL     1      -7.620 -10.126  17.008  0.00  0.00    +0.111 C 
ATOM      8  C   UNL     1      -6.104 -10.189  16.957  0.00  0.00    +0.164 C 
ATOM     11  C   UNL     1      -5.887 -11.623  16.492  0.00  0.00    +0.165 C 
ATOM     14  C   UNL     1      -7.960 -11.502  17.558  0.00  0.00    +0.181 C 
ENDROOT
BRANCH   8   2
ATOM      2  O   UNL     1      -5.549  -9.252  16.054  0.00  0.00    -0.388 OA
ATOM     23  H   UNL     1      -4.720  -9.620  15.705  0.00  0.00    +0.210 HD
ENDBRANCH   8   2
BRANCH   7   4
ATOM      4  N   UNL     1      -8.131  -9.045  17.834  0.00  0.00    -0.306 NA
ATOM     22  H   UNL     1      -7.387  -8.380  18.044  0.00  0.00    +0.123 HD
BRANCH   4   6
ATOM      6  C   UNL     1      -9.237  -8.366  17.182  0.00  0.00    +0.054 C 
ATOM      9  C   UNL     1      -9.357  -8.720  15.705  0.00  0.00    +0.019 C 
ATOM     10  C   UNL     1     -10.594  -8.790  17.730  0.00  0.00    +0.019 C 
ATOM     12  C   UNL     1     -10.777  -8.290  15.347  0.00  0.00    +0.002 C 
ATOM     13  C   UNL     1     -11.576  -8.337  16.653  0.00  0.00    +0.002 C 
ENDBRANCH   4   6
ENDBRANCH   7   4
BRANCH  11  15
ATOM     15  C   UNL     1      -4.536 -12.186  16.897  0.00  0.00    +0.138 C 
BRANCH  15   5
ATOM      3  O   UNL     1      -2.593 -10.199  16.078  0.00  0.00    -0.276 OA
ATOM      5  N   UNL     1      -3.633 -12.255  15.770  0.00  0.00    -0.313 N 
ATOM     18  C   UNL     1      -2.735 -11.250  15.455  0.00  0.00    +0.214 C 
ATOM     24  H   UNL     1      -3.665 -13.092  15.196  0.00  0.00    +0.149 HD
BRANCH  18  17
ATOM     17  C   UNL     1      -1.905 -11.559  14.220  0.00  0.00    +0.102 C 
BRANCH  17  16
ATOM     16  C   UNL     1      -2.599 -11.231  12.876  0.00  0.00    -0.029 C 
ATOM     19  C   UNL     1      -2.809 -12.552  12.112  0.00  0.00    +0.011 C 
ATOM     20  C   UNL     1      -3.971 -10.573  13.097  0.00  0.00    +0.011 C 
ATOM     21  C   UNL     1      -1.726 -10.304  12.014  0.00  0.00    +0.011 C 
ENDBRANCH  17  16
ENDBRANCH  18  17
ENDBRANCH  15   5
ENDBRANCH  11  15
TORSDOF 7
ENDMDL
MODEL 9
REMARK VINA RESULT:      -5.2     26.341     28.185
REMARK  Name = 75367060
REMARK  10 active torsions:
REMARK  status: ('A' for Active; 'I' for Inactive)
REMARK    1  A    between atoms: O_2  and  C_8
REMARK    2  A    between atoms: N_4  and  C_6
REMARK    3  A    between atoms: N_4  and  C_7
REMARK    4  A    between atoms: N_5  and  C_15
REMARK    5  A    between atoms: C_11  and  C_15
REMARK    6  A    between atoms: C_16  and  C_17
REMARK    7  A    between atoms: C_16  and  C_19
REMARK    8  A    between atoms: C_16  and  C_20
REMARK    9  A    between atoms: C_16  and  C_21
REMARK   10  A    between atoms: C_17  and  C_18
REMARK                            x       y       z     vdW  Elec       q    Type
REMARK                         _______ _______ _______ _____ _____    ______ ____
ROOT
ATOM      1  O   UNL     1      11.654   6.936  19.831  0.00  0.00    -0.371 OA
ATOM      7  C   UNL     1      12.865   7.974  21.592  0.00  0.00    +0.111 C 
ATOM      8  C   UNL     1      12.873   8.888  20.380  0.00  0.00    +0.164 C 
ATOM     11  C   UNL     1      11.676   8.355  19.604  0.00  0.00    +0.165 C 
ATOM     14  C   UNL     1      12.494   6.642  20.962  0.00  0.00    +0.181 C 
ENDROOT
BRANCH   8   2
ATOM      2  O   UNL     1      12.714  10.251  20.722  0.00  0.00    -0.388 OA
ATOM     23  H   UNL     1      12.331  10.715  19.959  0.00  0.00    +0.210 HD
ENDBRANCH   8   2
BRANCH   7   4
ATOM      4  N   UNL     1      14.134   7.932  22.299  0.00  0.00    -0.306 NA
ATOM     22  H   UNL     1      14.176   7.108  22.897  0.00  0.00    +0.123 HD
BRANCH   4   6
ATOM      6  C   UNL     1      15.251   7.932  21.370  0.00  0.00    +0.054 C 
ATOM      9  C   UNL     1      16.307   8.974  21.718  0.00  0.00    +0.019 C 
ATOM     10  C   UNL     1      16.048   6.634  21.407  0.00  0.00    +0.019 C 
ATOM     12  C   UNL     1      17.536   8.513  20.938  0.00  0.00    +0.002 C 
ATOM     13  C   UNL     1      17.370   7.004  20.739  0.00  0.00    +0.002 C 
ENDBRANCH   4   6
ENDBRANCH   7   4
BRANCH  11  15
ATOM     15  C   UNL     1      11.755   8.634  18.113  0.00  0.00    +0.138 C 
BRANCH  15   5
ATOM      3  O   UNL     1      13.779   8.360  16.059  0.00  0.00    -0.276 OA
ATOM      5  N   UNL     1      12.822   9.559  17.805  0.00  0.00    -0.313 N 
ATOM     18  C   UNL     1      13.749   9.341  16.799  0.00  0.00    +0.214 C 
ATOM     24  H   UNL     1      12.878  10.410  18.357  0.00  0.00    +0.149 HD
BRANCH  18  17
ATOM     17  C   UNL     1      14.773  10.457  16.682  0.00  0.00    +0.102 C 
BRANCH  17  16
ATOM     16  C   UNL     1      14.667  11.300  15.389  0.00  0.00    -0.029 C 
ATOM     19  C   UNL     1      15.659  10.722  14.360  0.00  0.00    +0.011 C 
ATOM     20  C   UNL     1      13.253  11.236  14.790  0.00  0.00    +0.011 C 
ATOM     21  C   UNL     1      15.041  12.769  15.652  0.00  0.00    +0.011 C 
ENDBRANCH  17  16
ENDBRANCH  18  17
ENDBRANCH  15   5
ENDBRANCH  11  15
TORSDOF 7
ENDMDL
MODEL 10
REMARK VINA RESULT:      -5.1      4.140      7.620
REMARK  Name = 75367060
REMARK  10 active torsions:
REMARK  status: ('A' for Active; 'I' for Inactive)
REMARK    1  A    between atoms: O_2  and  C_8
REMARK    2  A    between atoms: N_4  and  C_6
REMARK    3  A    between atoms: N_4  and  C_7
REMARK    4  A    between atoms: N_5  and  C_15
REMARK    5  A    between atoms: C_11  and  C_15
REMARK    6  A    between atoms: C_16  and  C_17
REMARK    7  A    between atoms: C_16  and  C_19
REMARK    8  A    between atoms: C_16  and  C_20
REMARK    9  A    between atoms: C_16  and  C_21
REMARK   10  A    between atoms: C_17  and  C_18
REMARK                            x       y       z     vdW  Elec       q    Type
REMARK                         _______ _______ _______ _____ _____    ______ ____
ROOT
ATOM      1  O   UNL     1     -10.207 -12.663  18.370  0.00  0.00    -0.371 OA
ATOM      7  C   UNL     1      -8.604 -11.209  19.349  0.00  0.00    +0.111 C 
ATOM      8  C   UNL     1      -9.990 -10.626  19.553  0.00  0.00    +0.164 C 
ATOM     11  C   UNL     1     -10.858 -11.863  19.372  0.00  0.00    +0.165 C 
ATOM     14  C   UNL     1      -8.855 -12.195  18.220  0.00  0.00    +0.181 C 
ENDROOT
BRANCH   8   2
ATOM      2  O   UNL     1     -10.156 -10.047  20.833  0.00  0.00    -0.388 OA
ATOM     23  H   UNL     1     -10.209  -9.083  20.727  0.00  0.00    +0.210 HD
ENDBRANCH   8   2
BRANCH   7   4
ATOM      4  N   UNL     1      -7.595 -10.216  19.019  0.00  0.00    -0.306 NA
ATOM     22  H   UNL     1      -7.151  -9.870  19.869  0.00  0.00    +0.123 HD
BRANCH   4   6
ATOM      6  C   UNL     1      -6.595 -10.765  18.120  0.00  0.00    +0.054 C 
ATOM      9  C   UNL     1      -6.196  -9.792  17.018  0.00  0.00    +0.019 C 
ATOM     10  C   UNL     1      -5.266 -11.037  18.812  0.00  0.00    +0.019 C 
ATOM     12  C   UNL     1      -4.877 -10.358  16.499  0.00  0.00    +0.002 C 
ATOM     13  C   UNL     1      -4.276 -11.160  17.657  0.00  0.00    +0.002 C 
ENDBRANCH   4   6
ENDBRANCH   7   4
BRANCH  11  15
ATOM     15  C   UNL     1     -12.275 -11.542  18.931  0.00  0.00    +0.138 C 
BRANCH  15   5
ATOM      3  O   UNL     1     -12.150 -10.678  16.169  0.00  0.00    -0.276 OA
ATOM      5  N   UNL     1     -12.379 -10.191  18.430  0.00  0.00    -0.313 N 
ATOM     18  C   UNL     1     -12.306  -9.872  17.085  0.00  0.00    +0.214 C 
ATOM     24  H   UNL     1     -12.521  -9.449  19.110  0.00  0.00    +0.149 HD
BRANCH  18  17
ATOM     17  C   UNL     1     -12.435  -8.382  16.818  0.00  0.00    +0.102 C 
BRANCH  17  16
ATOM     16  C   UNL     1     -11.153  -7.710  16.270  0.00  0.00    -0.029 C 
ATOM     19  C   UNL     1     -11.360  -6.183  16.310  0.00  0.00    +0.011 C 
ATOM     20  C   UNL     1      -9.925  -8.057  17.128  0.00  0.00    +0.011 C 
ATOM     21  C   UNL     1     -10.888  -8.127  14.814  0.00  0.00    +0.011 C 
ENDBRANCH  17  16
ENDBRANCH  18  17
ENDBRANCH  15   5
ENDBRANCH  11  15
TORSDOF 7
ENDMDL
