MODEL 1
REMARK VINA RESULT:      -6.4      0.000      0.000
REMARK  Name = 75537065
REMARK  3 active torsions:
REMARK  status: ('A' for Active; 'I' for Inactive)
REMARK    1  A    between atoms: N_2  and  C_6
REMARK    2  A    between atoms: N_4  and  C_16
REMARK    3  A    between atoms: C_16  and  C_17
REMARK                            x       y       z     vdW  Elec       q    Type
REMARK                         _______ _______ _______ _____ _____    ______ ____
ROOT
ATOM      1  O   UNL     1      15.972   9.891  20.295  0.00  0.00    -0.252 OA
ATOM      2  N   UNL     1      19.610   6.516  21.346  0.00  0.00    -0.296 NA
ATOM      3  N   UNL     1      17.299   8.038  20.864  0.00  0.00    -0.278 N 
ATOM      4  N   UNL     1      15.538   7.709  19.509  0.00  0.00    -0.279 N 
ATOM      7  C   UNL     1      17.247   6.602  20.677  0.00  0.00    +0.109 C 
ATOM      8  C   UNL     1      18.635   6.060  20.336  0.00  0.00    +0.108 C 
ATOM     12  C   UNL     1      19.683   7.991  21.382  0.00  0.00    +0.104 C 
ATOM     13  C   UNL     1      18.322   8.606  21.718  0.00  0.00    +0.125 C 
ATOM     14  C   UNL     1      16.199   6.418  19.581  0.00  0.00    +0.133 C 
ATOM     15  C   UNL     1      16.234   8.696  20.234  0.00  0.00    +0.305 C 
ENDROOT
BRANCH   2   6
ATOM      6  C   UNL     1      20.923   5.981  21.020  0.00  0.00    +0.057 C 
ATOM      9  C   UNL     1      20.765   4.546  20.471  0.00  0.00    +0.019 C 
ATOM     10  C   UNL     1      21.545   5.350  22.283  0.00  0.00    +0.019 C 
ATOM     11  C   UNL     1      21.951   4.161  21.384  0.00  0.00    +0.003 C 
ENDBRANCH   2   6
BRANCH   4  16
ATOM     16  C   UNL     1      14.389   7.936  18.660  0.00  0.00    +0.146 C 
BRANCH  16  17
ATOM      5  N   UNL     1      11.364   6.788  20.617  0.00  0.00    -0.263 NA
ATOM     17  C   UNL     1      13.110   7.981  19.445  0.00  0.00    -0.012 A 
ATOM     18  C   UNL     1      12.488   9.190  19.732  0.00  0.00    +0.008 A 
ATOM     19  C   UNL     1      12.513   6.819  19.906  0.00  0.00    +0.115 A 
ATOM     20  C   UNL     1      11.303   9.200  20.462  0.00  0.00    +0.020 A 
ATOM     21  C   UNL     1      10.787   7.984  20.877  0.00  0.00    +0.111 A 
ENDBRANCH  16  17
ENDBRANCH   4  16
TORSDOF 3
ENDMDL
MODEL 2
REMARK VINA RESULT:      -6.4      2.771      4.304
REMARK  Name = 75537065
REMARK  3 active torsions:
REMARK  status: ('A' for Active; 'I' for Inactive)
REMARK    1  A    between atoms: N_2  and  C_6
REMARK    2  A    between atoms: N_4  and  C_16
REMARK    3  A    between atoms: C_16  and  C_17
REMARK                            x       y       z     vdW  Elec       q    Type
REMARK                         _______ _______ _______ _____ _____    ______ ____
ROOT
ATOM      1  O   UNL     1      11.700   7.814  19.191  0.00  0.00    -0.252 OA
ATOM      2  N   UNL     1      16.590   7.307  20.442  0.00  0.00    -0.296 NA
ATOM      3  N   UNL     1      13.926   8.023  19.914  0.00  0.00    -0.278 N 
ATOM      4  N   UNL     1      12.299   8.838  21.231  0.00  0.00    -0.279 N 
ATOM      7  C   UNL     1      14.629   8.681  20.996  0.00  0.00    +0.109 C 
ATOM      8  C   UNL     1      15.727   7.771  21.546  0.00  0.00    +0.108 C 
ATOM     12  C   UNL     1      15.809   6.543  19.447  0.00  0.00    +0.104 C 
ATOM     13  C   UNL     1      14.685   7.395  18.852  0.00  0.00    +0.125 C 
ATOM     14  C   UNL     1      13.522   9.025  21.991  0.00  0.00    +0.133 C 
ATOM     15  C   UNL     1      12.536   8.182  20.006  0.00  0.00    +0.305 C 
ENDROOT
BRANCH   2   6
ATOM      6  C   UNL     1      17.640   6.455  20.980  0.00  0.00    +0.057 C 
ATOM      9  C   UNL     1      18.893   7.312  21.266  0.00  0.00    +0.019 C 
ATOM     10  C   UNL     1      18.430   5.822  19.815  0.00  0.00    +0.019 C 
ATOM     11  C   UNL     1      19.710   6.180  20.603  0.00  0.00    +0.003 C 
ENDBRANCH   2   6
BRANCH   4  16
ATOM     16  C   UNL     1      11.000   9.168  21.775  0.00  0.00    +0.146 C 
BRANCH  16  17
ATOM      5  N   UNL     1      10.727  11.790  24.486  0.00  0.00    -0.263 NA
ATOM     17  C   UNL     1      11.000  10.507  22.456  0.00  0.00    -0.012 A 
ATOM     18  C   UNL     1      11.259  11.673  21.744  0.00  0.00    +0.008 A 
ATOM     19  C   UNL     1      10.742  10.618  23.812  0.00  0.00    +0.115 A 
ATOM     20  C   UNL     1      11.252  12.898  22.402  0.00  0.00    +0.020 A 
ATOM     21  C   UNL     1      10.983  12.903  23.761  0.00  0.00    +0.111 A 
ENDBRANCH  16  17
ENDBRANCH   4  16
TORSDOF 3
ENDMDL
MODEL 3
REMARK VINA RESULT:      -5.9      3.823      5.883
REMARK  Name = 75537065
REMARK  3 active torsions:
REMARK  status: ('A' for Active; 'I' for Inactive)
REMARK    1  A    between atoms: N_2  and  C_6
REMARK    2  A    between atoms: N_4  and  C_16
REMARK    3  A    between atoms: C_16  and  C_17
REMARK                            x       y       z     vdW  Elec       q    Type
REMARK                         _______ _______ _______ _____ _____    ______ ____
ROOT
ATOM      1  O   UNL     1      10.232   9.072  22.309  0.00  0.00    -0.252 OA
ATOM      2  N   UNL     1      14.746   7.506  20.605  0.00  0.00    -0.296 NA
ATOM      3  N   UNL     1      12.403   8.803  21.453  0.00  0.00    -0.278 N 
ATOM      4  N   UNL     1      12.048  10.432  22.959  0.00  0.00    -0.279 N 
ATOM      7  C   UNL     1      13.665   9.511  21.529  0.00  0.00    +0.109 C 
ATOM      8  C   UNL     1      14.821   8.522  21.674  0.00  0.00    +0.108 C 
ATOM     12  C   UNL     1      13.478   6.753  20.681  0.00  0.00    +0.104 C 
ATOM     13  C   UNL     1      12.270   7.685  20.543  0.00  0.00    +0.125 C 
ATOM     14  C   UNL     1      13.479  10.459  22.712  0.00  0.00    +0.133 C 
ATOM     15  C   UNL     1      11.411   9.397  22.245  0.00  0.00    +0.305 C 
ENDROOT
BRANCH   2   6
ATOM      6  C   UNL     1      15.860   6.580  20.745  0.00  0.00    +0.057 C 
ATOM      9  C   UNL     1      17.154   7.379  21.014  0.00  0.00    +0.019 C 
ATOM     10  C   UNL     1      16.435   6.260  19.349  0.00  0.00    +0.019 C 
ATOM     11  C   UNL     1      17.834   6.457  19.976  0.00  0.00    +0.003 C 
ENDBRANCH   2   6
BRANCH   4  16
ATOM     16  C   UNL     1      11.423  11.290  23.941  0.00  0.00    +0.146 C 
BRANCH  16  17
ATOM      5  N   UNL     1      10.529  13.893  21.348  0.00  0.00    -0.263 NA
ATOM     17  C   UNL     1      10.864  12.539  23.323  0.00  0.00    -0.012 A 
ATOM     18  C   UNL     1      10.189  13.479  24.092  0.00  0.00    +0.008 A 
ATOM     19  C   UNL     1      11.007  12.790  21.968  0.00  0.00    +0.115 A 
ATOM     20  C   UNL     1       9.682  14.627  23.491  0.00  0.00    +0.020 A 
ATOM     21  C   UNL     1       9.878  14.785  22.128  0.00  0.00    +0.111 A 
ENDBRANCH  16  17
ENDBRANCH   4  16
TORSDOF 3
ENDMDL
MODEL 4
REMARK VINA RESULT:      -5.9      3.224      7.759
REMARK  Name = 75537065
REMARK  3 active torsions:
REMARK  status: ('A' for Active; 'I' for Inactive)
REMARK    1  A    between atoms: N_2  and  C_6
REMARK    2  A    between atoms: N_4  and  C_16
REMARK    3  A    between atoms: C_16  and  C_17
REMARK                            x       y       z     vdW  Elec       q    Type
REMARK                         _______ _______ _______ _____ _____    ______ ____
ROOT
ATOM      1  O   UNL     1      13.715   9.933  19.047  0.00  0.00    -0.252 OA
ATOM      2  N   UNL     1      10.931  11.267  23.072  0.00  0.00    -0.296 NA
ATOM      3  N   UNL     1      12.116  10.243  20.741  0.00  0.00    -0.278 N 
ATOM      4  N   UNL     1      12.576   8.145  20.085  0.00  0.00    -0.279 N 
ATOM      7  C   UNL     1      11.174   9.419  21.470  0.00  0.00    +0.109 C 
ATOM      8  C   UNL     1      11.156   9.813  22.947  0.00  0.00    +0.108 C 
ATOM     12  C   UNL     1      12.005  12.027  22.402  0.00  0.00    +0.104 C 
ATOM     13  C   UNL     1      12.083  11.681  20.912  0.00  0.00    +0.125 C 
ATOM     14  C   UNL     1      11.648   7.994  21.192  0.00  0.00    +0.133 C 
ATOM     15  C   UNL     1      12.902   9.496  19.853  0.00  0.00    +0.305 C 
ENDROOT
BRANCH   2   6
ATOM      6  C   UNL     1      10.900  11.627  24.482  0.00  0.00    +0.057 C 
ATOM      9  C   UNL     1      10.394  13.079  24.625  0.00  0.00    +0.019 C 
ATOM     10  C   UNL     1      12.290  12.148  24.906  0.00  0.00    +0.019 C 
ATOM     11  C   UNL     1      11.544  13.287  25.637  0.00  0.00    +0.003 C 
ENDBRANCH   2   6
BRANCH   4  16
ATOM     16  C   UNL     1      13.179   7.005  19.429  0.00  0.00    +0.146 C 
BRANCH  16  17
ATOM      5  N   UNL     1      16.223   6.632  21.643  0.00  0.00    -0.263 NA
ATOM     17  C   UNL     1      14.606   6.803  19.854  0.00  0.00    -0.012 A 
ATOM     18  C   UNL     1      15.612   6.607  18.915  0.00  0.00    +0.008 A 
ATOM     19  C   UNL     1      14.960   6.807  21.193  0.00  0.00    +0.115 A 
ATOM     20  C   UNL     1      16.924   6.423  19.339  0.00  0.00    +0.020 A 
ATOM     21  C   UNL     1      17.175   6.444  20.701  0.00  0.00    +0.111 A 
ENDBRANCH  16  17
ENDBRANCH   4  16
TORSDOF 3
ENDMDL
MODEL 5
REMARK VINA RESULT:      -5.7     30.650     33.247
REMARK  Name = 75537065
REMARK  3 active torsions:
REMARK  status: ('A' for Active; 'I' for Inactive)
REMARK    1  A    between atoms: N_2  and  C_6
REMARK    2  A    between atoms: N_4  and  C_16
REMARK    3  A    between atoms: C_16  and  C_17
REMARK                            x       y       z     vdW  Elec       q    Type
REMARK                         _______ _______ _______ _____ _____    ______ ____
ROOT
ATOM      1  O   UNL     1     -13.830   5.754  34.824  0.00  0.00    -0.252 OA
ATOM      2  N   UNL     1     -15.457   2.469  31.318  0.00  0.00    -0.296 NA
ATOM      3  N   UNL     1     -14.966   4.503  33.191  0.00  0.00    -0.278 N 
ATOM      4  N   UNL     1     -14.985   6.743  33.019  0.00  0.00    -0.279 N 
ATOM      7  C   UNL     1     -15.848   4.775  32.074  0.00  0.00    +0.109 C 
ATOM      8  C   UNL     1     -15.491   3.881  30.887  0.00  0.00    +0.108 C 
ATOM     12  C   UNL     1     -14.446   2.264  32.374  0.00  0.00    +0.104 C 
ATOM     13  C   UNL     1     -14.740   3.132  33.600  0.00  0.00    +0.125 C 
ATOM     14  C   UNL     1     -15.670   6.272  31.828  0.00  0.00    +0.133 C 
ATOM     15  C   UNL     1     -14.511   5.676  33.809  0.00  0.00    +0.305 C 
ENDROOT
BRANCH   2   6
ATOM      6  C   UNL     1     -15.133   1.628  30.175  0.00  0.00    +0.057 C 
ATOM      9  C   UNL     1     -15.395   0.150  30.541  0.00  0.00    +0.019 C 
ATOM     10  C   UNL     1     -13.627   1.290  30.202  0.00  0.00    +0.019 C 
ATOM     11  C   UNL     1     -14.036  -0.164  29.877  0.00  0.00    +0.003 C 
ENDBRANCH   2   6
BRANCH   4  16
ATOM     16  C   UNL     1     -14.718   8.146  33.245  0.00  0.00    +0.146 C 
BRANCH  16  17
ATOM      5  N   UNL     1     -12.989  10.004  30.442  0.00  0.00    -0.263 NA
ATOM     17  C   UNL     1     -13.630   8.663  32.348  0.00  0.00    -0.012 A 
ATOM     18  C   UNL     1     -12.302   8.310  32.557  0.00  0.00    +0.008 A 
ATOM     19  C   UNL     1     -13.919   9.504  31.286  0.00  0.00    +0.115 A 
ATOM     20  C   UNL     1     -11.316   8.804  31.709  0.00  0.00    +0.020 A 
ATOM     21  C   UNL     1     -11.708   9.639  30.676  0.00  0.00    +0.111 A 
ENDBRANCH  16  17
ENDBRANCH   4  16
TORSDOF 3
ENDMDL
MODEL 6
REMARK VINA RESULT:      -5.7     17.199     19.590
REMARK  Name = 75537065
REMARK  3 active torsions:
REMARK  status: ('A' for Active; 'I' for Inactive)
REMARK    1  A    between atoms: N_2  and  C_6
REMARK    2  A    between atoms: N_4  and  C_16
REMARK    3  A    between atoms: C_16  and  C_17
REMARK                            x       y       z     vdW  Elec       q    Type
REMARK                         _______ _______ _______ _____ _____    ______ ____
ROOT
ATOM      1  O   UNL     1      13.729   6.143   2.113  0.00  0.00    -0.252 OA
ATOM      2  N   UNL     1       9.622   6.146   5.091  0.00  0.00    -0.296 NA
ATOM      3  N   UNL     1      11.628   5.909   3.139  0.00  0.00    -0.278 N 
ATOM      4  N   UNL     1      12.504   4.126   2.092  0.00  0.00    -0.279 N 
ATOM      7  C   UNL     1      10.588   4.902   3.204  0.00  0.00    +0.109 C 
ATOM      8  C   UNL     1      10.031   4.806   4.623  0.00  0.00    +0.108 C 
ATOM     12  C   UNL     1      10.772   7.073   5.106  0.00  0.00    +0.104 C 
ATOM     13  C   UNL     1      11.386   7.218   3.710  0.00  0.00    +0.125 C 
ATOM     14  C   UNL     1      11.278   3.637   2.698  0.00  0.00    +0.133 C 
ATOM     15  C   UNL     1      12.743   5.478   2.407  0.00  0.00    +0.305 C 
ENDROOT
BRANCH   2   6
ATOM      6  C   UNL     1       9.079   6.039   6.436  0.00  0.00    +0.057 C 
ATOM      9  C   UNL     1       9.876   6.963   7.382  0.00  0.00    +0.019 C 
ATOM     10  C   UNL     1       9.742   4.848   7.161  0.00  0.00    +0.019 C 
ATOM     11  C   UNL     1       9.887   5.784   8.382  0.00  0.00    +0.003 C 
ENDBRANCH   2   6
BRANCH   4  16
ATOM     16  C   UNL     1      13.411   3.250   1.383  0.00  0.00    +0.146 C 
BRANCH  16  17
ATOM      5  N   UNL     1      14.565   4.305  -2.060  0.00  0.00    -0.263 NA
ATOM     17  C   UNL     1      13.401   3.509  -0.096  0.00  0.00    -0.012 A 
ATOM     18  C   UNL     1      12.282   3.217  -0.867  0.00  0.00    +0.008 A 
ATOM     19  C   UNL     1      14.507   4.047  -0.734  0.00  0.00    +0.115 A 
ATOM     20  C   UNL     1      12.303   3.468  -2.235  0.00  0.00    +0.020 A 
ATOM     21  C   UNL     1      13.457   4.008  -2.778  0.00  0.00    +0.111 A 
ENDBRANCH  16  17
ENDBRANCH   4  16
TORSDOF 3
ENDMDL
MODEL 7
REMARK VINA RESULT:      -5.7     27.637     29.138
REMARK  Name = 75537065
REMARK  3 active torsions:
REMARK  status: ('A' for Active; 'I' for Inactive)
REMARK    1  A    between atoms: N_2  and  C_6
REMARK    2  A    between atoms: N_4  and  C_16
REMARK    3  A    between atoms: C_16  and  C_17
REMARK                            x       y       z     vdW  Elec       q    Type
REMARK                         _______ _______ _______ _____ _____    ______ ____
ROOT
ATOM      1  O   UNL     1      -3.843 -10.341  16.783  0.00  0.00    -0.252 OA
ATOM      2  N   UNL     1      -3.688 -10.705  11.726  0.00  0.00    -0.296 NA
ATOM      3  N   UNL     1      -4.182 -10.728  14.491  0.00  0.00    -0.278 N 
ATOM      4  N   UNL     1      -5.919 -10.000  15.714  0.00  0.00    -0.279 N 
ATOM      7  C   UNL     1      -5.305 -10.749  13.576  0.00  0.00    +0.109 C 
ATOM      8  C   UNL     1      -4.923 -10.090  12.251  0.00  0.00    +0.108 C 
ATOM     12  C   UNL     1      -2.568 -10.530  12.672  0.00  0.00    +0.104 C 
ATOM     13  C   UNL     1      -2.881 -11.168  14.028  0.00  0.00    +0.125 C 
ATOM     14  C   UNL     1      -6.415 -10.040  14.350  0.00  0.00    +0.133 C 
ATOM     15  C   UNL     1      -4.558 -10.358  15.789  0.00  0.00    +0.305 C 
ENDROOT
BRANCH   2   6
ATOM      6  C   UNL     1      -3.344 -10.080  10.457  0.00  0.00    +0.057 C 
ATOM      9  C   UNL     1      -4.162  -8.779  10.293  0.00  0.00    +0.019 C 
ATOM     10  C   UNL     1      -4.219 -10.683   9.338  0.00  0.00    +0.019 C 
ATOM     11  C   UNL     1      -4.429  -9.235   8.841  0.00  0.00    +0.003 C 
ENDBRANCH   2   6
BRANCH   4  16
ATOM     16  C   UNL     1      -6.723  -9.501  16.808  0.00  0.00    +0.146 C 
BRANCH  16  17
ATOM      5  N   UNL     1      -6.830 -11.317  20.124  0.00  0.00    -0.263 NA
ATOM     17  C   UNL     1      -6.999 -10.564  17.832  0.00  0.00    -0.012 A 
ATOM     18  C   UNL     1      -7.648 -11.743  17.484  0.00  0.00    +0.008 A 
ATOM     19  C   UNL     1      -6.614 -10.401  19.153  0.00  0.00    +0.115 A 
ATOM     20  C   UNL     1      -7.889 -12.710  18.455  0.00  0.00    +0.020 A 
ATOM     21  C   UNL     1      -7.464 -12.451  19.748  0.00  0.00    +0.111 A 
ENDBRANCH  16  17
ENDBRANCH   4  16
TORSDOF 3
ENDMDL
MODEL 8
REMARK VINA RESULT:      -5.6      3.795      6.089
REMARK  Name = 75537065
REMARK  3 active torsions:
REMARK  status: ('A' for Active; 'I' for Inactive)
REMARK    1  A    between atoms: N_2  and  C_6
REMARK    2  A    between atoms: N_4  and  C_16
REMARK    3  A    between atoms: C_16  and  C_17
REMARK                            x       y       z     vdW  Elec       q    Type
REMARK                         _______ _______ _______ _____ _____    ______ ____
ROOT
ATOM      1  O   UNL     1      10.406   9.065  22.633  0.00  0.00    -0.252 OA
ATOM      2  N   UNL     1      14.175   7.781  19.490  0.00  0.00    -0.296 NA
ATOM      3  N   UNL     1      11.981   8.813  20.907  0.00  0.00    -0.278 N 
ATOM      4  N   UNL     1      11.474  10.892  21.589  0.00  0.00    -0.279 N 
ATOM      7  C   UNL     1      12.699   9.679  19.995  0.00  0.00    +0.109 C 
ATOM      8  C   UNL     1      14.146   9.213  19.848  0.00  0.00    +0.108 C 
ATOM     12  C   UNL     1      13.527   6.962  20.535  0.00  0.00    +0.104 C 
ATOM     13  C   UNL     1      12.067   7.376  20.738  0.00  0.00    +0.125 C 
ATOM     14  C   UNL     1      12.531  11.068  20.608  0.00  0.00    +0.133 C 
ATOM     15  C   UNL     1      11.185   9.531  21.811  0.00  0.00    +0.305 C 
ENDROOT
BRANCH   2   6
ATOM      6  C   UNL     1      15.557   7.353  19.337  0.00  0.00    +0.057 C 
ATOM      9  C   UNL     1      15.846   6.203  20.328  0.00  0.00    +0.019 C 
ATOM     10  C   UNL     1      16.466   8.238  20.216  0.00  0.00    +0.019 C 
ATOM     11  C   UNL     1      17.168   6.933  20.654  0.00  0.00    +0.003 C 
ENDBRANCH   2   6
BRANCH   4  16
ATOM     16  C   UNL     1      10.923  12.005  22.330  0.00  0.00    +0.146 C 
BRANCH  16  17
ATOM      5  N   UNL     1      12.610  11.944  25.714  0.00  0.00    -0.263 NA
ATOM     17  C   UNL     1      11.799  12.402  23.483  0.00  0.00    -0.012 A 
ATOM     18  C   UNL     1      12.589  13.545  23.422  0.00  0.00    +0.008 A 
ATOM     19  C   UNL     1      11.845  11.643  24.641  0.00  0.00    +0.115 A 
ATOM     20  C   UNL     1      13.391  13.887  24.506  0.00  0.00    +0.020 A 
ATOM     21  C   UNL     1      13.365  13.062  25.618  0.00  0.00    +0.111 A 
ENDBRANCH  16  17
ENDBRANCH   4  16
TORSDOF 3
ENDMDL
MODEL 9
REMARK VINA RESULT:      -5.6     27.546     29.232
REMARK  Name = 75537065
REMARK  3 active torsions:
REMARK  status: ('A' for Active; 'I' for Inactive)
REMARK    1  A    between atoms: N_2  and  C_6
REMARK    2  A    between atoms: N_4  and  C_16
REMARK    3  A    between atoms: C_16  and  C_17
REMARK                            x       y       z     vdW  Elec       q    Type
REMARK                         _______ _______ _______ _____ _____    ______ ____
ROOT
ATOM      1  O   UNL     1      -3.683 -14.054  14.018  0.00  0.00    -0.252 OA
ATOM      2  N   UNL     1      -5.510 -10.948  17.588  0.00  0.00    -0.296 NA
ATOM      3  N   UNL     1      -4.080 -12.496  15.731  0.00  0.00    -0.278 N 
ATOM      4  N   UNL     1      -2.641 -11.938  14.100  0.00  0.00    -0.279 N 
ATOM      7  C   UNL     1      -3.538 -11.218  16.146  0.00  0.00    +0.109 C 
ATOM      8  C   UNL     1      -4.664 -10.280  16.579  0.00  0.00    +0.108 C 
ATOM     12  C   UNL     1      -6.116 -12.177  17.038  0.00  0.00    +0.104 C 
ATOM     13  C   UNL     1      -5.043 -13.169  16.580  0.00  0.00    +0.125 C 
ATOM     14  C   UNL     1      -2.745 -10.750  14.928  0.00  0.00    +0.133 C 
ATOM     15  C   UNL     1      -3.490 -12.968  14.551  0.00  0.00    +0.305 C 
ENDROOT
BRANCH   2   6
ATOM      6  C   UNL     1      -6.567 -10.039  18.004  0.00  0.00    +0.057 C 
ATOM      9  C   UNL     1      -7.881 -10.832  18.176  0.00  0.00    +0.019 C 
ATOM     10  C   UNL     1      -7.206  -9.394  16.756  0.00  0.00    +0.019 C 
ATOM     11  C   UNL     1      -8.574  -9.678  17.416  0.00  0.00    +0.003 C 
ENDBRANCH   2   6
BRANCH   4  16
ATOM     16  C   UNL     1      -1.859 -11.959  12.884  0.00  0.00    +0.146 C 
BRANCH  16  17
ATOM      5  N   UNL     1      -4.181 -11.555   9.926  0.00  0.00    -0.263 NA
ATOM     17  C   UNL     1      -2.591 -11.329  11.734  0.00  0.00    -0.012 A 
ATOM     18  C   UNL     1      -2.388  -9.995  11.399  0.00  0.00    +0.008 A 
ATOM     19  C   UNL     1      -3.490 -12.060  10.973  0.00  0.00    +0.115 A 
ATOM     20  C   UNL     1      -3.081  -9.440  10.329  0.00  0.00    +0.020 A 
ATOM     21  C   UNL     1      -3.957 -10.254   9.631  0.00  0.00    +0.111 A 
ENDBRANCH  16  17
ENDBRANCH   4  16
TORSDOF 3
ENDMDL
MODEL 10
REMARK VINA RESULT:      -5.5     28.178     29.298
REMARK  Name = 75537065
REMARK  3 active torsions:
REMARK  status: ('A' for Active; 'I' for Inactive)
REMARK    1  A    between atoms: N_2  and  C_6
REMARK    2  A    between atoms: N_4  and  C_16
REMARK    3  A    between atoms: C_16  and  C_17
REMARK                            x       y       z     vdW  Elec       q    Type
REMARK                         _______ _______ _______ _____ _____    ______ ____
ROOT
ATOM      1  O   UNL     1      -6.280  -8.854  11.819  0.00  0.00    -0.252 OA
ATOM      2  N   UNL     1      -5.251 -10.857  16.364  0.00  0.00    -0.296 NA
ATOM      3  N   UNL     1      -5.620 -10.134  13.675  0.00  0.00    -0.278 N 
ATOM      4  N   UNL     1      -4.182  -9.923  11.963  0.00  0.00    -0.279 N 
ATOM      7  C   UNL     1      -4.510 -10.997  14.025  0.00  0.00    +0.109 C 
ATOM      8  C   UNL     1      -4.080 -10.750  15.470  0.00  0.00    +0.108 C 
ATOM     12  C   UNL     1      -6.279  -9.859  16.008  0.00  0.00    +0.104 C 
ATOM     13  C   UNL     1      -6.759 -10.046  14.566  0.00  0.00    +0.125 C 
ATOM     14  C   UNL     1      -3.451 -10.668  12.974  0.00  0.00    +0.133 C 
ATOM     15  C   UNL     1      -5.466  -9.552  12.409  0.00  0.00    +0.305 C 
ENDROOT
BRANCH   2   6
ATOM      6  C   UNL     1      -4.825 -10.636  17.738  0.00  0.00    +0.057 C 
ATOM      9  C   UNL     1      -4.479 -11.994  18.388  0.00  0.00    +0.019 C 
ATOM     10  C   UNL     1      -6.066 -10.597  18.655  0.00  0.00    +0.019 C 
ATOM     11  C   UNL     1      -5.273 -11.506  19.621  0.00  0.00    +0.003 C 
ENDBRANCH   2   6
BRANCH   4  16
ATOM     16  C   UNL     1      -3.566  -9.509  10.722  0.00  0.00    +0.146 C 
BRANCH  16  17
ATOM      5  N   UNL     1      -4.569 -12.355   8.443  0.00  0.00    -0.263 NA
ATOM     17  C   UNL     1      -4.130 -10.247   9.542  0.00  0.00    -0.012 A 
ATOM     18  C   UNL     1      -4.716  -9.564   8.483  0.00  0.00    +0.008 A 
ATOM     19  C   UNL     1      -4.081 -11.630   9.474  0.00  0.00    +0.115 A 
ATOM     20  C   UNL     1      -5.230 -10.275   7.403  0.00  0.00    +0.020 A 
ATOM     21  C   UNL     1      -5.132 -11.656   7.431  0.00  0.00    +0.111 A 
ENDBRANCH  16  17
ENDBRANCH   4  16
TORSDOF 3
ENDMDL
