MODEL 1
REMARK VINA RESULT:      -6.5      0.000      0.000
REMARK  Name = 75536571
REMARK  7 active torsions:
REMARK  status: ('A' for Active; 'I' for Inactive)
REMARK    1  A    between atoms: O_3  and  C_8
REMARK    2  A    between atoms: N_5  and  C_16
REMARK    3  A    between atoms: N_6  and  C_9
REMARK    4  A    between atoms: N_6  and  C_18
REMARK    5  A    between atoms: C_7  and  C_16
REMARK    6  A    between atoms: C_10  and  C_17
REMARK    7  A    between atoms: C_18  and  C_19
REMARK                            x       y       z     vdW  Elec       q    Type
REMARK                         _______ _______ _______ _____ _____    ______ ____
ROOT
ATOM      2  O   UNL     1      11.000   8.799  20.133  0.00  0.00    -0.371 OA
ATOM      7  C   UNL     1      10.812   7.846  21.192  0.00  0.00    +0.165 C 
ATOM      8  C   UNL     1      12.058   6.971  21.197  0.00  0.00    +0.164 C 
ATOM      9  C   UNL     1      12.378   6.911  19.714  0.00  0.00    +0.111 C 
ATOM     15  C   UNL     1      12.059   8.331  19.280  0.00  0.00    +0.181 C 
ENDROOT
BRANCH   8   3
ATOM      3  O   UNL     1      11.805   5.696  21.753  0.00  0.00    -0.388 OA
ATOM     25  H   UNL     1      12.026   5.725  22.699  0.00  0.00    +0.210 HD
ENDBRANCH   8   3
BRANCH   9   6
ATOM      6  N   UNL     1      13.751   6.526  19.429  0.00  0.00    -0.304 NA
ATOM     24  H   UNL     1      13.805   6.175  18.474  0.00  0.00    +0.123 HD
BRANCH   6  18
ATOM     18  C   UNL     1      14.653   7.663  19.570  0.00  0.00    +0.124 C 
BRANCH  18  19
ATOM      1  S   UNL     1      16.955   8.046  21.085  0.00  0.00    -0.100 S 
ATOM     19  C   UNL     1      16.062   7.226  19.876  0.00  0.00    +0.004 A 
ATOM     20  C   UNL     1      16.788   6.208  19.297  0.00  0.00    +0.012 A 
ATOM     21  C   UNL     1      18.094   6.099  19.855  0.00  0.00    +0.008 A 
ATOM     22  C   UNL     1      18.317   7.038  20.838  0.00  0.00    +0.045 A 
ENDBRANCH  18  19
ENDBRANCH   6  18
ENDBRANCH   9   6
BRANCH   7  16
ATOM     16  C   UNL     1      10.585   8.575  22.504  0.00  0.00    +0.138 C 
BRANCH  16   5
ATOM      4  O   UNL     1      11.094  10.554  24.566  0.00  0.00    -0.276 OA
ATOM      5  N   UNL     1      10.698   9.995  22.339  0.00  0.00    -0.313 N 
ATOM     17  C   UNL     1      10.945  10.873  23.390  0.00  0.00    +0.216 C 
ATOM     23  H   UNL     1      10.592  10.367  21.400  0.00  0.00    +0.149 HD
BRANCH  17  10
ATOM     10  C   UNL     1      11.039  12.299  22.938  0.00  0.00    +0.075 C 
ATOM     11  C   UNL     1      12.145  13.032  23.697  0.00  0.00    +0.013 C 
ATOM     12  C   UNL     1      11.420  12.363  21.455  0.00  0.00    +0.013 C 
ATOM     13  C   UNL     1      13.332  13.029  22.745  0.00  0.00    +0.001 C 
ATOM     14  C   UNL     1      12.681  13.217  21.387  0.00  0.00    +0.001 C 
ENDBRANCH  17  10
ENDBRANCH  16   5
ENDBRANCH   7  16
TORSDOF 7
ENDMDL
MODEL 2
REMARK VINA RESULT:      -6.5      3.055      6.872
REMARK  Name = 75536571
REMARK  7 active torsions:
REMARK  status: ('A' for Active; 'I' for Inactive)
REMARK    1  A    between atoms: O_3  and  C_8
REMARK    2  A    between atoms: N_5  and  C_16
REMARK    3  A    between atoms: N_6  and  C_9
REMARK    4  A    between atoms: N_6  and  C_18
REMARK    5  A    between atoms: C_7  and  C_16
REMARK    6  A    between atoms: C_10  and  C_17
REMARK    7  A    between atoms: C_18  and  C_19
REMARK                            x       y       z     vdW  Elec       q    Type
REMARK                         _______ _______ _______ _____ _____    ______ ____
ROOT
ATOM      2  O   UNL     1      13.141   8.020  21.619  0.00  0.00    -0.371 OA
ATOM      7  C   UNL     1      12.018   7.142  21.436  0.00  0.00    +0.165 C 
ATOM      8  C   UNL     1      10.776   8.005  21.615  0.00  0.00    +0.164 C 
ATOM      9  C   UNL     1      11.245   8.973  22.686  0.00  0.00    +0.111 C 
ATOM     15  C   UNL     1      12.680   9.225  22.256  0.00  0.00    +0.181 C 
ENDROOT
BRANCH   8   3
ATOM      3  O   UNL     1       9.658   7.241  22.022  0.00  0.00    -0.388 OA
ATOM     25  H   UNL     1       9.621   6.437  21.477  0.00  0.00    +0.210 HD
ENDBRANCH   8   3
BRANCH   9   6
ATOM      6  N   UNL     1      10.453  10.191  22.756  0.00  0.00    -0.304 NA
ATOM     24  H   UNL     1       9.473   9.941  22.886  0.00  0.00    +0.123 HD
BRANCH   6  18
ATOM     18  C   UNL     1      10.881  11.030  23.870  0.00  0.00    +0.124 C 
BRANCH  18  19
ATOM      1  S   UNL     1      10.969  13.078  21.990  0.00  0.00    -0.100 S 
ATOM     19  C   UNL     1      10.687  12.494  23.575  0.00  0.00    +0.004 A 
ATOM     20  C   UNL     1      10.297  13.497  24.435  0.00  0.00    +0.012 A 
ATOM     21  C   UNL     1      10.227  14.762  23.783  0.00  0.00    +0.008 A 
ATOM     22  C   UNL     1      10.567  14.678  22.451  0.00  0.00    +0.045 A 
ENDBRANCH  18  19
ENDBRANCH   6  18
ENDBRANCH   9   6
BRANCH   7  16
ATOM     16  C   UNL     1      12.100   6.482  20.072  0.00  0.00    +0.138 C 
BRANCH  16   5
ATOM      4  O   UNL     1      11.802   7.396  17.333  0.00  0.00    -0.276 OA
ATOM      5  N   UNL     1      13.095   7.106  19.248  0.00  0.00    -0.313 N 
ATOM     17  C   UNL     1      12.863   7.513  17.939  0.00  0.00    +0.216 C 
ATOM     23  H   UNL     1      14.014   7.252  19.656  0.00  0.00    +0.149 HD
BRANCH  17  10
ATOM     10  C   UNL     1      14.064   8.156  17.315  0.00  0.00    +0.075 C 
ATOM     11  C   UNL     1      13.698   8.795  15.975  0.00  0.00    +0.013 C 
ATOM     12  C   UNL     1      14.582   9.292  18.205  0.00  0.00    +0.013 C 
ATOM     13  C   UNL     1      13.517  10.273  16.290  0.00  0.00    +0.001 C 
ATOM     14  C   UNL     1      14.596  10.536  17.324  0.00  0.00    +0.001 C 
ENDBRANCH  17  10
ENDBRANCH  16   5
ENDBRANCH   7  16
TORSDOF 7
ENDMDL
MODEL 3
REMARK VINA RESULT:      -6.3      2.880      4.969
REMARK  Name = 75536571
REMARK  7 active torsions:
REMARK  status: ('A' for Active; 'I' for Inactive)
REMARK    1  A    between atoms: O_3  and  C_8
REMARK    2  A    between atoms: N_5  and  C_16
REMARK    3  A    between atoms: N_6  and  C_9
REMARK    4  A    between atoms: N_6  and  C_18
REMARK    5  A    between atoms: C_7  and  C_16
REMARK    6  A    between atoms: C_10  and  C_17
REMARK    7  A    between atoms: C_18  and  C_19
REMARK                            x       y       z     vdW  Elec       q    Type
REMARK                         _______ _______ _______ _____ _____    ______ ____
ROOT
ATOM      2  O   UNL     1      16.211   6.141  18.751  0.00  0.00    -0.371 OA
ATOM      7  C   UNL     1      15.282   6.936  19.509  0.00  0.00    +0.165 C 
ATOM      8  C   UNL     1      16.088   7.558  20.640  0.00  0.00    +0.164 C 
ATOM      9  C   UNL     1      17.077   6.447  20.941  0.00  0.00    +0.111 C 
ATOM     15  C   UNL     1      17.393   5.940  19.544  0.00  0.00    +0.181 C 
ENDROOT
BRANCH   8   3
ATOM      3  O   UNL     1      15.275   7.880  21.752  0.00  0.00    -0.388 OA
ATOM     25  H   UNL     1      14.798   8.705  21.555  0.00  0.00    +0.210 HD
ENDBRANCH   8   3
BRANCH   9   6
ATOM      6  N   UNL     1      18.258   6.896  21.662  0.00  0.00    -0.304 NA
ATOM     24  H   UNL     1      18.417   6.277  22.456  0.00  0.00    +0.123 HD
BRANCH   6  18
ATOM     18  C   UNL     1      19.435   6.878  20.801  0.00  0.00    +0.124 C 
BRANCH  18  19
ATOM      1  S   UNL     1      21.295   6.062  22.701  0.00  0.00    -0.100 S 
ATOM     19  C   UNL     1      20.433   5.839  21.239  0.00  0.00    +0.004 A 
ATOM     20  C   UNL     1      20.783   4.667  20.605  0.00  0.00    +0.012 A 
ATOM     21  C   UNL     1      21.771   3.941  21.331  0.00  0.00    +0.008 A 
ATOM     22  C   UNL     1      22.139   4.587  22.491  0.00  0.00    +0.045 A 
ENDBRANCH  18  19
ENDBRANCH   6  18
ENDBRANCH   9   6
BRANCH   7  16
ATOM     16  C   UNL     1      14.627   7.962  18.603  0.00  0.00    +0.138 C 
BRANCH  16   5
ATOM      4  O   UNL     1      12.046   6.684  18.968  0.00  0.00    -0.276 OA
ATOM      5  N   UNL     1      13.455   8.523  19.211  0.00  0.00    -0.313 N 
ATOM     17  C   UNL     1      12.254   7.834  19.344  0.00  0.00    +0.216 C 
ATOM     23  H   UNL     1      13.519   9.475  19.559  0.00  0.00    +0.149 HD
BRANCH  17  10
ATOM     10  C   UNL     1      11.200   8.643  20.035  0.00  0.00    +0.075 C 
ATOM     11  C   UNL     1      10.593   7.857  21.198  0.00  0.00    +0.013 C 
ATOM     12  C   UNL     1      11.815   9.907  20.647  0.00  0.00    +0.013 C 
ATOM     13  C   UNL     1      11.303   8.388  22.434  0.00  0.00    +0.001 C 
ATOM     14  C   UNL     1      11.460   9.867  22.129  0.00  0.00    +0.001 C 
ENDBRANCH  17  10
ENDBRANCH  16   5
ENDBRANCH   7  16
TORSDOF 7
ENDMDL
MODEL 4
REMARK VINA RESULT:      -6.2      2.268      6.839
REMARK  Name = 75536571
REMARK  7 active torsions:
REMARK  status: ('A' for Active; 'I' for Inactive)
REMARK    1  A    between atoms: O_3  and  C_8
REMARK    2  A    between atoms: N_5  and  C_16
REMARK    3  A    between atoms: N_6  and  C_9
REMARK    4  A    between atoms: N_6  and  C_18
REMARK    5  A    between atoms: C_7  and  C_16
REMARK    6  A    between atoms: C_10  and  C_17
REMARK    7  A    between atoms: C_18  and  C_19
REMARK                            x       y       z     vdW  Elec       q    Type
REMARK                         _______ _______ _______ _____ _____    ______ ____
ROOT
ATOM      2  O   UNL     1      12.907   6.458  20.926  0.00  0.00    -0.371 OA
ATOM      7  C   UNL     1      12.748   6.987  19.598  0.00  0.00    +0.165 C 
ATOM      8  C   UNL     1      11.817   8.184  19.732  0.00  0.00    +0.164 C 
ATOM      9  C   UNL     1      10.893   7.713  20.840  0.00  0.00    +0.111 C 
ATOM     15  C   UNL     1      11.867   6.997  21.760  0.00  0.00    +0.181 C 
ENDROOT
BRANCH   8   3
ATOM      3  O   UNL     1      11.130   8.454  18.526  0.00  0.00    -0.388 OA
ATOM     25  H   UNL     1      11.051   9.418  18.427  0.00  0.00    +0.210 HD
ENDBRANCH   8   3
BRANCH   9   6
ATOM      6  N   UNL     1      10.179   8.794  21.501  0.00  0.00    -0.304 NA
ATOM     24  H   UNL     1       9.218   8.501  21.672  0.00  0.00    +0.123 HD
BRANCH   6  18
ATOM     18  C   UNL     1      10.806   9.134  22.774  0.00  0.00    +0.124 C 
BRANCH  18  19
ATOM      1  S   UNL     1      11.170  11.338  24.432  0.00  0.00    -0.100 S 
ATOM     19  C   UNL     1      11.083  10.611  22.885  0.00  0.00    +0.004 A 
ATOM     20  C   UNL     1      11.288  11.522  21.872  0.00  0.00    +0.012 A 
ATOM     21  C   UNL     1      11.521  12.835  22.374  0.00  0.00    +0.008 A 
ATOM     22  C   UNL     1      11.484  12.876  23.751  0.00  0.00    +0.045 A 
ENDBRANCH  18  19
ENDBRANCH   6  18
ENDBRANCH   9   6
BRANCH   7  16
ATOM     16  C   UNL     1      14.107   7.343  19.022  0.00  0.00    +0.138 C 
BRANCH  16   5
ATOM      4  O   UNL     1      16.534   5.761  18.850  0.00  0.00    -0.276 OA
ATOM      5  N   UNL     1      15.141   7.224  20.009  0.00  0.00    -0.313 N 
ATOM     17  C   UNL     1      16.276   6.438  19.841  0.00  0.00    +0.216 C 
ATOM     23  H   UNL     1      15.026   7.748  20.872  0.00  0.00    +0.149 HD
BRANCH  17  10
ATOM     10  C   UNL     1      17.205   6.511  21.014  0.00  0.00    +0.075 C 
ATOM     11  C   UNL     1      18.578   5.943  20.650  0.00  0.00    +0.013 C 
ATOM     12  C   UNL     1      17.438   7.972  21.418  0.00  0.00    +0.013 C 
ATOM     13  C   UNL     1      19.433   7.166  20.353  0.00  0.00    +0.001 C 
ATOM     14  C   UNL     1      18.948   8.179  21.373  0.00  0.00    +0.001 C 
ENDBRANCH  17  10
ENDBRANCH  16   5
ENDBRANCH   7  16
TORSDOF 7
ENDMDL
MODEL 5
REMARK VINA RESULT:      -5.9      2.829      5.061
REMARK  Name = 75536571
REMARK  7 active torsions:
REMARK  status: ('A' for Active; 'I' for Inactive)
REMARK    1  A    between atoms: O_3  and  C_8
REMARK    2  A    between atoms: N_5  and  C_16
REMARK    3  A    between atoms: N_6  and  C_9
REMARK    4  A    between atoms: N_6  and  C_18
REMARK    5  A    between atoms: C_7  and  C_16
REMARK    6  A    between atoms: C_10  and  C_17
REMARK    7  A    between atoms: C_18  and  C_19
REMARK                            x       y       z     vdW  Elec       q    Type
REMARK                         _______ _______ _______ _____ _____    ______ ____
ROOT
ATOM      2  O   UNL     1      16.661   6.063  18.892  0.00  0.00    -0.371 OA
ATOM      7  C   UNL     1      15.474   6.523  19.560  0.00  0.00    +0.165 C 
ATOM      8  C   UNL     1      15.952   7.268  20.799  0.00  0.00    +0.164 C 
ATOM      9  C   UNL     1      17.174   6.451  21.177  0.00  0.00    +0.111 C 
ATOM     15  C   UNL     1      17.763   6.141  19.812  0.00  0.00    +0.181 C 
ENDROOT
BRANCH   8   3
ATOM      3  O   UNL     1      14.970   7.284  21.816  0.00  0.00    -0.388 OA
ATOM     25  H   UNL     1      14.393   6.510  21.697  0.00  0.00    +0.210 HD
ENDBRANCH   8   3
BRANCH   9   6
ATOM      6  N   UNL     1      18.101   7.158  22.047  0.00  0.00    -0.304 NA
ATOM     24  H   UNL     1      18.610   6.478  22.612  0.00  0.00    +0.123 HD
BRANCH   6  18
ATOM     18  C   UNL     1      19.056   7.939  21.269  0.00  0.00    +0.124 C 
BRANCH  18  19
ATOM      1  S   UNL     1      19.852  10.105  22.822  0.00  0.00    -0.100 S 
ATOM     19  C   UNL     1      18.936   9.414  21.552  0.00  0.00    +0.004 A 
ATOM     20  C   UNL     1      18.154  10.348  20.909  0.00  0.00    +0.012 A 
ATOM     21  C   UNL     1      18.311  11.650  21.466  0.00  0.00    +0.008 A 
ATOM     22  C   UNL     1      19.205  11.660  22.514  0.00  0.00    +0.045 A 
ENDBRANCH  18  19
ENDBRANCH   6  18
ENDBRANCH   9   6
BRANCH   7  16
ATOM     16  C   UNL     1      14.657   7.388  18.617  0.00  0.00    +0.138 C 
BRANCH  16   5
ATOM      4  O   UNL     1      11.809   7.287  18.067  0.00  0.00    -0.276 OA
ATOM      5  N   UNL     1      13.611   8.077  19.314  0.00  0.00    -0.313 N 
ATOM     17  C   UNL     1      12.265   7.970  18.980  0.00  0.00    +0.216 C 
ATOM     23  H   UNL     1      13.880   8.672  20.093  0.00  0.00    +0.149 HD
BRANCH  17  10
ATOM     10  C   UNL     1      11.381   8.775  19.883  0.00  0.00    +0.075 C 
ATOM     11  C   UNL     1      10.741   7.882  20.947  0.00  0.00    +0.013 C 
ATOM     12  C   UNL     1      12.207   9.821  20.641  0.00  0.00    +0.013 C 
ATOM     13  C   UNL     1      11.595   8.091  22.189  0.00  0.00    +0.001 C 
ATOM     14  C   UNL     1      11.941   9.567  22.121  0.00  0.00    +0.001 C 
ENDBRANCH  17  10
ENDBRANCH  16   5
ENDBRANCH   7  16
TORSDOF 7
ENDMDL
MODEL 6
REMARK VINA RESULT:      -5.7     27.036     28.325
REMARK  Name = 75536571
REMARK  7 active torsions:
REMARK  status: ('A' for Active; 'I' for Inactive)
REMARK    1  A    between atoms: O_3  and  C_8
REMARK    2  A    between atoms: N_5  and  C_16
REMARK    3  A    between atoms: N_6  and  C_9
REMARK    4  A    between atoms: N_6  and  C_18
REMARK    5  A    between atoms: C_7  and  C_16
REMARK    6  A    between atoms: C_10  and  C_17
REMARK    7  A    between atoms: C_18  and  C_19
REMARK                            x       y       z     vdW  Elec       q    Type
REMARK                         _______ _______ _______ _____ _____    ______ ____
ROOT
ATOM      2  O   UNL     1      -3.389 -14.426  12.806  0.00  0.00    -0.371 OA
ATOM      7  C   UNL     1      -3.059 -14.076  14.161  0.00  0.00    +0.165 C 
ATOM      8  C   UNL     1      -2.766 -12.582  14.149  0.00  0.00    +0.164 C 
ATOM      9  C   UNL     1      -2.113 -12.423  12.788  0.00  0.00    +0.111 C 
ATOM     15  C   UNL     1      -2.953 -13.364  11.940  0.00  0.00    +0.181 C 
ENDROOT
BRANCH   8   3
ATOM      3  O   UNL     1      -1.911 -12.204  15.211  0.00  0.00    -0.388 OA
ATOM     25  H   UNL     1      -2.257 -12.589  16.034  0.00  0.00    +0.210 HD
ENDBRANCH   8   3
BRANCH   9   6
ATOM      6  N   UNL     1      -2.121 -11.056  12.293  0.00  0.00    -0.304 NA
ATOM     24  H   UNL     1      -1.966 -11.067  11.286  0.00  0.00    +0.123 HD
BRANCH   6  18
ATOM     18  C   UNL     1      -3.398 -10.406  12.570  0.00  0.00    +0.124 C 
BRANCH  18  19
ATOM      1  S   UNL     1      -5.601  -9.237  11.339  0.00  0.00    -0.100 S 
ATOM     19  C   UNL     1      -3.964  -9.740  11.344  0.00  0.00    +0.004 A 
ATOM     20  C   UNL     1      -3.332  -9.456  10.154  0.00  0.00    +0.012 A 
ATOM     21  C   UNL     1      -4.202  -8.816   9.225  0.00  0.00    +0.008 A 
ATOM     22  C   UNL     1      -5.467  -8.636   9.741  0.00  0.00    +0.045 A 
ENDBRANCH  18  19
ENDBRANCH   6  18
ENDBRANCH   9   6
BRANCH   7  16
ATOM     16  C   UNL     1      -4.204 -14.455  15.082  0.00  0.00    +0.138 C 
BRANCH  16   5
ATOM      4  O   UNL     1      -6.322 -14.182  17.049  0.00  0.00    -0.276 OA
ATOM      5  N   UNL     1      -4.171 -13.695  16.298  0.00  0.00    -0.313 N 
ATOM     17  C   UNL     1      -5.239 -13.620  17.186  0.00  0.00    +0.216 C 
ATOM     23  H   UNL     1      -3.316 -13.189  16.510  0.00  0.00    +0.149 HD
BRANCH  17  10
ATOM     10  C   UNL     1      -4.931 -12.778  18.387  0.00  0.00    +0.075 C 
ATOM     11  C   UNL     1      -4.092 -11.562  17.992  0.00  0.00    +0.013 C 
ATOM     12  C   UNL     1      -6.225 -12.227  18.996  0.00  0.00    +0.013 C 
ATOM     13  C   UNL     1      -5.092 -10.420  17.894  0.00  0.00    +0.001 C 
ATOM     14  C   UNL     1      -6.057 -10.712  19.029  0.00  0.00    +0.001 C 
ENDBRANCH  17  10
ENDBRANCH  16   5
ENDBRANCH   7  16
TORSDOF 7
ENDMDL
MODEL 7
REMARK VINA RESULT:      -5.7     27.415     29.328
REMARK  Name = 75536571
REMARK  7 active torsions:
REMARK  status: ('A' for Active; 'I' for Inactive)
REMARK    1  A    between atoms: O_3  and  C_8
REMARK    2  A    between atoms: N_5  and  C_16
REMARK    3  A    between atoms: N_6  and  C_9
REMARK    4  A    between atoms: N_6  and  C_18
REMARK    5  A    between atoms: C_7  and  C_16
REMARK    6  A    between atoms: C_10  and  C_17
REMARK    7  A    between atoms: C_18  and  C_19
REMARK                            x       y       z     vdW  Elec       q    Type
REMARK                         _______ _______ _______ _____ _____    ______ ____
ROOT
ATOM      2  O   UNL     1     -11.593  -7.781  13.877  0.00  0.00    -0.371 OA
ATOM      7  C   UNL     1     -11.764  -6.836  14.947  0.00  0.00    +0.165 C 
ATOM      8  C   UNL     1     -10.477  -6.885  15.760  0.00  0.00    +0.164 C 
ATOM      9  C   UNL     1     -10.115  -8.355  15.645  0.00  0.00    +0.111 C 
ATOM     15  C   UNL     1     -10.491  -8.645  14.202  0.00  0.00    +0.181 C 
ENDROOT
BRANCH   8   3
ATOM      3  O   UNL     1     -10.683  -6.477  17.098  0.00  0.00    -0.388 OA
ATOM     25  H   UNL     1     -10.180  -5.659  17.250  0.00  0.00    +0.210 HD
ENDBRANCH   8   3
BRANCH   9   6
ATOM      6  N   UNL     1      -8.718  -8.634  15.934  0.00  0.00    -0.304 NA
ATOM     24  H   UNL     1      -8.203  -7.754  15.966  0.00  0.00    +0.123 HD
BRANCH   6  18
ATOM     18  C   UNL     1      -8.574  -9.316  17.216  0.00  0.00    +0.124 C 
BRANCH  18  19
ATOM      1  S   UNL     1      -6.034  -9.714  16.153  0.00  0.00    -0.100 S 
ATOM     19  C   UNL     1      -7.167  -9.807  17.434  0.00  0.00    +0.004 A 
ATOM     20  C   UNL     1      -6.618 -10.355  18.572  0.00  0.00    +0.012 A 
ATOM     21  C   UNL     1      -5.248 -10.702  18.391  0.00  0.00    +0.008 A 
ATOM     22  C   UNL     1      -4.803 -10.407  17.121  0.00  0.00    +0.045 A 
ENDBRANCH  18  19
ENDBRANCH   6  18
ENDBRANCH   9   6
BRANCH   7  16
ATOM     16  C   UNL     1     -12.061  -5.462  14.375  0.00  0.00    +0.138 C 
BRANCH  16   5
ATOM      4  O   UNL     1     -12.241  -3.234  12.523  0.00  0.00    -0.276 OA
ATOM      5  N   UNL     1     -12.286  -5.522  12.960  0.00  0.00    -0.313 N 
ATOM     17  C   UNL     1     -12.357  -4.397  12.146  0.00  0.00    +0.216 C 
ATOM     23  H   UNL     1     -12.395  -6.441  12.542  0.00  0.00    +0.149 HD
BRANCH  17  10
ATOM     10  C   UNL     1     -12.575  -4.742  10.704  0.00  0.00    +0.075 C 
ATOM     11  C   UNL     1     -12.267  -3.541   9.809  0.00  0.00    +0.013 C 
ATOM     12  C   UNL     1     -11.615  -5.857  10.273  0.00  0.00    +0.013 C 
ATOM     13  C   UNL     1     -10.861  -3.802   9.287  0.00  0.00    +0.001 C 
ATOM     14  C   UNL     1     -10.848  -5.305   9.077  0.00  0.00    +0.001 C 
ENDBRANCH  17  10
ENDBRANCH  16   5
ENDBRANCH   7  16
TORSDOF 7
ENDMDL
MODEL 8
REMARK VINA RESULT:      -5.7     25.972     28.091
REMARK  Name = 75536571
REMARK  7 active torsions:
REMARK  status: ('A' for Active; 'I' for Inactive)
REMARK    1  A    between atoms: O_3  and  C_8
REMARK    2  A    between atoms: N_5  and  C_16
REMARK    3  A    between atoms: N_6  and  C_9
REMARK    4  A    between atoms: N_6  and  C_18
REMARK    5  A    between atoms: C_7  and  C_16
REMARK    6  A    between atoms: C_10  and  C_17
REMARK    7  A    between atoms: C_18  and  C_19
REMARK                            x       y       z     vdW  Elec       q    Type
REMARK                         _______ _______ _______ _____ _____    ______ ____
ROOT
ATOM      2  O   UNL     1      -1.807 -10.785  12.924  0.00  0.00    -0.371 OA
ATOM      7  C   UNL     1      -1.981 -12.212  12.939  0.00  0.00    +0.165 C 
ATOM      8  C   UNL     1      -2.591 -12.546  14.294  0.00  0.00    +0.164 C 
ATOM      9  C   UNL     1      -1.914 -11.517  15.181  0.00  0.00    +0.111 C 
ATOM     15  C   UNL     1      -1.904 -10.298  14.274  0.00  0.00    +0.181 C 
ENDROOT
BRANCH   8   3
ATOM      3  O   UNL     1      -2.307 -13.875  14.686  0.00  0.00    -0.388 OA
ATOM     25  H   UNL     1      -1.361 -13.937  14.899  0.00  0.00    +0.210 HD
ENDBRANCH   8   3
BRANCH   9   6
ATOM      6  N   UNL     1      -2.608 -11.283  16.437  0.00  0.00    -0.304 NA
ATOM     24  H   UNL     1      -2.320 -10.379  16.812  0.00  0.00    +0.123 HD
BRANCH   6  18
ATOM     18  C   UNL     1      -4.054 -11.277  16.242  0.00  0.00    +0.124 C 
BRANCH  18  19
ATOM      1  S   UNL     1      -4.285 -12.064  18.901  0.00  0.00    -0.100 S 
ATOM     19  C   UNL     1      -4.794 -11.146  17.548  0.00  0.00    +0.004 A 
ATOM     20  C   UNL     1      -5.884 -10.355  17.839  0.00  0.00    +0.012 A 
ATOM     21  C   UNL     1      -6.305 -10.504  19.192  0.00  0.00    +0.008 A 
ATOM     22  C   UNL     1      -5.523 -11.403  19.882  0.00  0.00    +0.045 A 
ENDBRANCH  18  19
ENDBRANCH   6  18
ENDBRANCH   9   6
BRANCH   7  16
ATOM     16  C   UNL     1      -2.851 -12.635  11.769  0.00  0.00    +0.138 C 
BRANCH  16   5
ATOM      4  O   UNL     1      -4.398 -12.665   9.314  0.00  0.00    -0.276 OA
ATOM      5  N   UNL     1      -3.217 -11.511  10.957  0.00  0.00    -0.313 N 
ATOM     17  C   UNL     1      -3.965 -11.619   9.789  0.00  0.00    +0.216 C 
ATOM     23  H   UNL     1      -2.909 -10.593  11.263  0.00  0.00    +0.149 HD
BRANCH  17  10
ATOM     10  C   UNL     1      -4.227 -10.291   9.148  0.00  0.00    +0.075 C 
ATOM     11  C   UNL     1      -5.730 -10.045   9.010  0.00  0.00    +0.013 C 
ATOM     12  C   UNL     1      -3.686  -9.159  10.030  0.00  0.00    +0.013 C 
ATOM     13  C   UNL     1      -6.081  -9.144  10.185  0.00  0.00    +0.001 C 
ATOM     14  C   UNL     1      -4.870  -8.236  10.294  0.00  0.00    +0.001 C 
ENDBRANCH  17  10
ENDBRANCH  16   5
ENDBRANCH   7  16
TORSDOF 7
ENDMDL
MODEL 9
REMARK VINA RESULT:      -5.6     27.655     29.743
REMARK  Name = 75536571
REMARK  7 active torsions:
REMARK  status: ('A' for Active; 'I' for Inactive)
REMARK    1  A    between atoms: O_3  and  C_8
REMARK    2  A    between atoms: N_5  and  C_16
REMARK    3  A    between atoms: N_6  and  C_9
REMARK    4  A    between atoms: N_6  and  C_18
REMARK    5  A    between atoms: C_7  and  C_16
REMARK    6  A    between atoms: C_10  and  C_17
REMARK    7  A    between atoms: C_18  and  C_19
REMARK                            x       y       z     vdW  Elec       q    Type
REMARK                         _______ _______ _______ _____ _____    ______ ____
ROOT
ATOM      2  O   UNL     1     -12.434  -9.070  16.336  0.00  0.00    -0.371 OA
ATOM      7  C   UNL     1     -12.374  -7.671  16.012  0.00  0.00    +0.165 C 
ATOM      8  C   UNL     1     -10.939  -7.239  16.282  0.00  0.00    +0.164 C 
ATOM      9  C   UNL     1     -10.595  -8.099  17.484  0.00  0.00    +0.111 C 
ATOM     15  C   UNL     1     -11.277  -9.408  17.121  0.00  0.00    +0.181 C 
ENDROOT
BRANCH   8   3
ATOM      3  O   UNL     1     -10.849  -5.854  16.558  0.00  0.00    -0.388 OA
ATOM     25  H   UNL     1     -10.583  -5.395  15.743  0.00  0.00    +0.210 HD
ENDBRANCH   8   3
BRANCH   9   6
ATOM      6  N   UNL     1      -9.166  -8.248  17.704  0.00  0.00    -0.304 NA
ATOM     24  H   UNL     1      -9.016  -8.773  18.566  0.00  0.00    +0.123 HD
BRANCH   6  18
ATOM     18  C   UNL     1      -8.536  -8.959  16.598  0.00  0.00    +0.124 C 
BRANCH  18  19
ATOM      1  S   UNL     1      -7.092 -10.378  18.507  0.00  0.00    -0.100 S 
ATOM     19  C   UNL     1      -7.220  -9.571  17.002  0.00  0.00    +0.004 A 
ATOM     20  C   UNL     1      -6.030  -9.579  16.307  0.00  0.00    +0.012 A 
ATOM     21  C   UNL     1      -5.001 -10.259  17.019  0.00  0.00    +0.008 A 
ATOM     22  C   UNL     1      -5.442 -10.743  18.231  0.00  0.00    +0.045 A 
ENDBRANCH  18  19
ENDBRANCH   6  18
ENDBRANCH   9   6
BRANCH   7  16
ATOM     16  C   UNL     1     -12.805  -7.458  14.572  0.00  0.00    +0.138 C 
BRANCH  16   5
ATOM      4  O   UNL     1     -12.407  -6.125  12.024  0.00  0.00    -0.276 OA
ATOM      5  N   UNL     1     -12.985  -6.066  14.280  0.00  0.00    -0.313 N 
ATOM     17  C   UNL     1     -12.770  -5.510  13.024  0.00  0.00    +0.216 C 
ATOM     23  H   UNL     1     -13.287  -5.464  15.041  0.00  0.00    +0.149 HD
BRANCH  17  10
ATOM     10  C   UNL     1     -13.055  -4.040  12.988  0.00  0.00    +0.075 C 
ATOM     11  C   UNL     1     -12.599  -3.435  11.659  0.00  0.00    +0.013 C 
ATOM     12  C   UNL     1     -14.564  -3.788  13.078  0.00  0.00    +0.013 C 
ATOM     13  C   UNL     1     -13.868  -3.336  10.826  0.00  0.00    +0.001 C 
ATOM     14  C   UNL     1     -14.922  -2.957  11.851  0.00  0.00    +0.001 C 
ENDBRANCH  17  10
ENDBRANCH  16   5
ENDBRANCH   7  16
TORSDOF 7
ENDMDL
MODEL 10
REMARK VINA RESULT:      -5.6     26.184     28.315
REMARK  Name = 75536571
REMARK  7 active torsions:
REMARK  status: ('A' for Active; 'I' for Inactive)
REMARK    1  A    between atoms: O_3  and  C_8
REMARK    2  A    between atoms: N_5  and  C_16
REMARK    3  A    between atoms: N_6  and  C_9
REMARK    4  A    between atoms: N_6  and  C_18
REMARK    5  A    between atoms: C_7  and  C_16
REMARK    6  A    between atoms: C_10  and  C_17
REMARK    7  A    between atoms: C_18  and  C_19
REMARK                            x       y       z     vdW  Elec       q    Type
REMARK                         _______ _______ _______ _____ _____    ______ ____
ROOT
ATOM      2  O   UNL     1      -7.521 -12.995  18.610  0.00  0.00    -0.371 OA
ATOM      7  C   UNL     1      -7.766 -11.871  19.472  0.00  0.00    +0.165 C 
ATOM      8  C   UNL     1      -6.650 -10.874  19.190  0.00  0.00    +0.164 C 
ATOM      9  C   UNL     1      -5.486 -11.809  18.915  0.00  0.00    +0.111 C 
ATOM     15  C   UNL     1      -6.169 -12.915  18.128  0.00  0.00    +0.181 C 
ENDROOT
BRANCH   8   3
ATOM      3  O   UNL     1      -6.415 -10.021  20.293  0.00  0.00    -0.388 OA
ATOM     25  H   UNL     1      -6.767  -9.140  20.079  0.00  0.00    +0.210 HD
ENDBRANCH   8   3
BRANCH   9   6
ATOM      6  N   UNL     1      -4.396 -11.183  18.184  0.00  0.00    -0.304 NA
ATOM     24  H   UNL     1      -3.631 -11.851  18.094  0.00  0.00    +0.123 HD
BRANCH   6  18
ATOM     18  C   UNL     1      -4.827 -10.772  16.853  0.00  0.00    +0.124 C 
BRANCH  18  19
ATOM      1  S   UNL     1      -3.973 -10.817  14.205  0.00  0.00    -0.100 S 
ATOM     19  C   UNL     1      -3.673 -10.703  15.887  0.00  0.00    +0.004 A 
ATOM     20  C   UNL     1      -2.331 -10.556  16.165  0.00  0.00    +0.012 A 
ATOM     21  C   UNL     1      -1.540 -10.535  14.981  0.00  0.00    +0.008 A 
ATOM     22  C   UNL     1      -2.306 -10.668  13.844  0.00  0.00    +0.045 A 
ENDBRANCH  18  19
ENDBRANCH   6  18
ENDBRANCH   9   6
BRANCH   7  16
ATOM     16  C   UNL     1      -9.152 -11.312  19.205  0.00  0.00    +0.138 C 
BRANCH  16   5
ATOM      4  O   UNL     1     -11.356  -9.569  18.477  0.00  0.00    -0.276 OA
ATOM      5  N   UNL     1      -9.088 -10.100  18.440  0.00  0.00    -0.313 N 
ATOM     17  C   UNL     1     -10.202  -9.324  18.137  0.00  0.00    +0.216 C 
ATOM     23  H   UNL     1      -8.175  -9.803  18.109  0.00  0.00    +0.149 HD
BRANCH  17  10
ATOM     10  C   UNL     1      -9.853  -8.100  17.347  0.00  0.00    +0.075 C 
ATOM     11  C   UNL     1      -9.120  -8.479  16.060  0.00  0.00    +0.013 C 
ATOM     12  C   UNL     1     -11.127  -7.365  16.915  0.00  0.00    +0.013 C 
ATOM     13  C   UNL     1     -10.191  -8.433  14.980  0.00  0.00    +0.001 C 
ATOM     14  C   UNL     1     -11.046  -7.251  15.397  0.00  0.00    +0.001 C 
ENDBRANCH  17  10
ENDBRANCH  16   5
ENDBRANCH   7  16
TORSDOF 7
ENDMDL
