MODEL 1
REMARK VINA RESULT:      -6.5      0.000      0.000
REMARK  Name = 11882527
REMARK  9 active torsions:
REMARK  status: ('A' for Active; 'I' for Inactive)
REMARK    1  A    between atoms: S_1  and  N_9
REMARK    2  A    between atoms: S_1  and  C_19
REMARK    3  A    between atoms: O_3  and  C_12
REMARK    4  A    between atoms: O_4  and  C_14
REMARK    5  A    between atoms: N_9  and  C_13
REMARK    6  A    between atoms: N_10  and  C_20
REMARK    7  A    between atoms: C_16  and  C_18
REMARK    8  A    between atoms: C_20  and  C_22
REMARK    9  A    between atoms: C_22  and  C_25
REMARK                            x       y       z     vdW  Elec       q    Type
REMARK                         _______ _______ _______ _____ _____    ______ ____
ROOT
ATOM     12  C   UNL     1      12.443   8.350  21.764  0.00  0.00    +0.166 C 
ATOM     13  C   UNL     1      12.503   9.211  20.489  0.00  0.00    +0.131 C 
ATOM     14  C   UNL     1      11.165   8.627  22.567  0.00  0.00    +0.149 C 
ATOM     15  C   UNL     1      11.015  10.117  22.921  0.00  0.00    +0.074 C 
ATOM     16  C   UNL     1      11.455  11.039  21.820  0.00  0.00    +0.014 C 
ATOM     17  C   UNL     1      12.115  10.646  20.720  0.00  0.00    +0.004 C 
ENDROOT
BRANCH  16  18
ATOM      7  O   UNL     1      11.527  13.277  21.108  0.00  0.00    -0.271 OA
ATOM     10  N   UNL     1      10.352  12.747  23.050  0.00  0.00    -0.311 N 
ATOM     18  C   UNL     1      11.126  12.463  21.939  0.00  0.00    +0.240 C 
ATOM     29  H   UNL     1      10.087  12.019  23.703  0.00  0.00    +0.149 HD
BRANCH  10  20
ATOM     20  C   UNL     1       9.904  14.081  23.380  0.00  0.00    +0.113 C 
BRANCH  20  22
ATOM     22  C   UNL     1      10.735  14.707  24.492  0.00  0.00    +0.114 C 
BRANCH  22  25
ATOM      8  O   UNL     1      11.951  12.821  25.419  0.00  0.00    -0.276 OA
ATOM     11  N   UNL     1      10.457  13.942  26.758  0.00  0.00    -0.329 N 
ATOM     25  C   UNL     1      11.132  13.721  25.576  0.00  0.00    +0.212 C 
ATOM     30  H   UNL     1      10.619  13.356  27.569  0.00  0.00    +0.145 HD
ATOM     31  H   UNL     1       9.780  14.692  26.864  0.00  0.00    +0.145 HD
ENDBRANCH  22  25
ENDBRANCH  20  22
ENDBRANCH  10  20
ENDBRANCH  16  18
BRANCH  12   3
ATOM      3  O   UNL     1      13.573   8.633  22.593  0.00  0.00    -0.387 OA
ATOM     27  H   UNL     1      13.985   9.447  22.258  0.00  0.00    +0.210 HD
ENDBRANCH  12   3
BRANCH  14   4
ATOM      4  O   UNL     1      10.023   8.180  21.838  0.00  0.00    -0.389 OA
ATOM     28  H   UNL     1       9.523   7.580  22.418  0.00  0.00    +0.210 HD
ENDBRANCH  14   4
BRANCH  13   9
ATOM      9  N   UNL     1      13.869   9.159  19.912  0.00  0.00    -0.180 NA
ATOM     26  H   UNL     1      14.608   9.578  20.492  0.00  0.00    +0.149 HD
BRANCH   9   1
ATOM      1  S   UNL     1      14.272   7.810  18.943  0.00  0.00    +0.065 S 
ATOM      5  O   UNL     1      14.461   8.240  17.571  0.00  0.00    -0.153 OA
ATOM      6  O   UNL     1      13.381   6.715  19.273  0.00  0.00    -0.153 OA
BRANCH   1  19
ATOM      2  S   UNL     1      16.567   8.168  20.720  0.00  0.00    -0.077 S 
ATOM     19  C   UNL     1      15.877   7.227  19.486  0.00  0.00    +0.142 A 
ATOM     21  C   UNL     1      16.642   6.178  19.096  0.00  0.00    +0.036 A 
ATOM     23  C   UNL     1      17.857   6.130  19.837  0.00  0.00    +0.010 A 
ATOM     24  C   UNL     1      17.945   7.154  20.754  0.00  0.00    +0.047 A 
ENDBRANCH   1  19
ENDBRANCH   9   1
ENDBRANCH  13   9
TORSDOF 9
ENDMDL
MODEL 2
REMARK VINA RESULT:      -6.5      2.741      3.283
REMARK  Name = 11882527
REMARK  9 active torsions:
REMARK  status: ('A' for Active; 'I' for Inactive)
REMARK    1  A    between atoms: S_1  and  N_9
REMARK    2  A    between atoms: S_1  and  C_19
REMARK    3  A    between atoms: O_3  and  C_12
REMARK    4  A    between atoms: O_4  and  C_14
REMARK    5  A    between atoms: N_9  and  C_13
REMARK    6  A    between atoms: N_10  and  C_20
REMARK    7  A    between atoms: C_16  and  C_18
REMARK    8  A    between atoms: C_20  and  C_22
REMARK    9  A    between atoms: C_22  and  C_25
REMARK                            x       y       z     vdW  Elec       q    Type
REMARK                         _______ _______ _______ _____ _____    ______ ____
ROOT
ATOM     12  C   UNL     1      12.130   6.970  21.037  0.00  0.00    +0.166 C 
ATOM     13  C   UNL     1      12.077   8.028  19.920  0.00  0.00    +0.131 C 
ATOM     14  C   UNL     1      11.039   7.210  22.089  0.00  0.00    +0.149 C 
ATOM     15  C   UNL     1      11.118   8.625  22.690  0.00  0.00    +0.074 C 
ATOM     16  C   UNL     1      11.472   9.682  21.684  0.00  0.00    +0.014 C 
ATOM     17  C   UNL     1      11.895   9.430  20.436  0.00  0.00    +0.004 C 
ENDROOT
BRANCH  16  18
ATOM      7  O   UNL     1      11.765  11.992  21.368  0.00  0.00    -0.271 OA
ATOM     10  N   UNL     1      10.677  11.244  23.289  0.00  0.00    -0.311 N 
ATOM     18  C   UNL     1      11.329  11.087  22.079  0.00  0.00    +0.240 C 
ATOM     29  H   UNL     1      10.373  10.441  23.827  0.00  0.00    +0.149 HD
BRANCH  10  20
ATOM     20  C   UNL     1      10.421  12.535  23.886  0.00  0.00    +0.113 C 
BRANCH  20  22
ATOM     22  C   UNL     1      11.020  12.653  25.281  0.00  0.00    +0.114 C 
BRANCH  22  25
ATOM      8  O   UNL     1      13.200  13.673  24.954  0.00  0.00    -0.276 OA
ATOM     11  N   UNL     1      13.092  11.496  25.684  0.00  0.00    -0.329 N 
ATOM     25  C   UNL     1      12.538  12.693  25.283  0.00  0.00    +0.212 C 
ATOM     30  H   UNL     1      14.098  11.376  25.730  0.00  0.00    +0.145 HD
ATOM     31  H   UNL     1      12.524  10.697  25.948  0.00  0.00    +0.145 HD
ENDBRANCH  22  25
ENDBRANCH  20  22
ENDBRANCH  10  20
ENDBRANCH  16  18
BRANCH  12   3
ATOM      3  O   UNL     1      13.405   7.011  21.683  0.00  0.00    -0.387 OA
ATOM     27  H   UNL     1      13.546   6.147  22.106  0.00  0.00    +0.210 HD
ENDBRANCH  12   3
BRANCH  14   4
ATOM      4  O   UNL     1       9.751   6.992  21.518  0.00  0.00    -0.389 OA
ATOM     28  H   UNL     1       9.827   6.244  20.902  0.00  0.00    +0.210 HD
ENDBRANCH  14   4
BRANCH  13   9
ATOM      9  N   UNL     1      13.315   7.962  19.106  0.00  0.00    -0.180 NA
ATOM     26  H   UNL     1      14.007   7.266  19.413  0.00  0.00    +0.149 HD
BRANCH   9   1
ATOM      1  S   UNL     1      13.185   8.288  17.433  0.00  0.00    +0.065 S 
ATOM      5  O   UNL     1      11.785   8.322  17.056  0.00  0.00    -0.153 OA
ATOM      6  O   UNL     1      14.138   7.459  16.720  0.00  0.00    -0.153 OA
BRANCH   1  19
ATOM      2  S   UNL     1      13.683  10.472  15.554  0.00  0.00    -0.077 S 
ATOM     19  C   UNL     1      13.791   9.953  17.168  0.00  0.00    +0.142 A 
ATOM     21  C   UNL     1      14.319  10.873  18.011  0.00  0.00    +0.036 A 
ATOM     23  C   UNL     1      14.657  12.069  17.316  0.00  0.00    +0.010 A 
ATOM     24  C   UNL     1      14.362  11.987  15.972  0.00  0.00    +0.047 A 
ENDBRANCH   1  19
ENDBRANCH   9   1
ENDBRANCH  13   9
TORSDOF 9
ENDMDL
MODEL 3
REMARK VINA RESULT:      -6.4      3.081      8.030
REMARK  Name = 11882527
REMARK  9 active torsions:
REMARK  status: ('A' for Active; 'I' for Inactive)
REMARK    1  A    between atoms: S_1  and  N_9
REMARK    2  A    between atoms: S_1  and  C_19
REMARK    3  A    between atoms: O_3  and  C_12
REMARK    4  A    between atoms: O_4  and  C_14
REMARK    5  A    between atoms: N_9  and  C_13
REMARK    6  A    between atoms: N_10  and  C_20
REMARK    7  A    between atoms: C_16  and  C_18
REMARK    8  A    between atoms: C_20  and  C_22
REMARK    9  A    between atoms: C_22  and  C_25
REMARK                            x       y       z     vdW  Elec       q    Type
REMARK                         _______ _______ _______ _____ _____    ______ ____
ROOT
ATOM     12  C   UNL     1      12.478   9.273  18.163  0.00  0.00    +0.166 C 
ATOM     13  C   UNL     1      12.588   8.892  19.650  0.00  0.00    +0.131 C 
ATOM     14  C   UNL     1      12.829   8.088  17.253  0.00  0.00    +0.149 C 
ATOM     15  C   UNL     1      14.227   7.519  17.558  0.00  0.00    +0.074 C 
ATOM     16  C   UNL     1      14.556   7.497  19.023  0.00  0.00    +0.014 C 
ATOM     17  C   UNL     1      13.826   8.101  19.973  0.00  0.00    +0.004 C 
ENDROOT
BRANCH  16  18
ATOM      7  O   UNL     1      16.274   5.925  18.712  0.00  0.00    -0.271 OA
ATOM     10  N   UNL     1      16.157   7.085  20.730  0.00  0.00    -0.311 N 
ATOM     18  C   UNL     1      15.743   6.752  19.453  0.00  0.00    +0.240 C 
ATOM     29  H   UNL     1      15.644   7.760  21.287  0.00  0.00    +0.149 HD
BRANCH  10  20
ATOM     20  C   UNL     1      17.302   6.482  21.373  0.00  0.00    +0.113 C 
BRANCH  20  22
ATOM     22  C   UNL     1      18.608   7.148  20.964  0.00  0.00    +0.114 C 
BRANCH  22  25
ATOM      8  O   UNL     1      20.850   6.270  20.642  0.00  0.00    -0.276 OA
ATOM     11  N   UNL     1      19.077   5.163  19.686  0.00  0.00    -0.329 N 
ATOM     25  C   UNL     1      19.644   6.171  20.436  0.00  0.00    +0.212 C 
ATOM     30  H   UNL     1      19.650   4.439  19.266  0.00  0.00    +0.145 HD
ATOM     31  H   UNL     1      18.076   5.103  19.525  0.00  0.00    +0.145 HD
ENDBRANCH  22  25
ENDBRANCH  20  22
ENDBRANCH  10  20
ENDBRANCH  16  18
BRANCH  12   3
ATOM      3  O   UNL     1      13.371  10.352  17.872  0.00  0.00    -0.387 OA
ATOM     27  H   UNL     1      13.737  10.664  18.716  0.00  0.00    +0.210 HD
ENDBRANCH  12   3
BRANCH  14   4
ATOM      4  O   UNL     1      11.845   7.063  17.382  0.00  0.00    -0.389 OA
ATOM     28  H   UNL     1      10.994   7.496  17.560  0.00  0.00    +0.210 HD
ENDBRANCH  14   4
BRANCH  13   9
ATOM      9  N   UNL     1      12.556  10.117  20.486  0.00  0.00    -0.180 NA
ATOM     26  H   UNL     1      12.069  10.921  20.070  0.00  0.00    +0.149 HD
BRANCH   9   1
ATOM      1  S   UNL     1      12.487   9.920  22.183  0.00  0.00    +0.065 S 
ATOM      5  O   UNL     1      13.822  10.031  22.737  0.00  0.00    -0.153 OA
ATOM      6  O   UNL     1      11.637   8.785  22.487  0.00  0.00    -0.153 OA
BRANCH   1  19
ATOM      2  S   UNL     1      11.394  12.596  21.741  0.00  0.00    -0.077 S 
ATOM     19  C   UNL     1      11.578  11.317  22.843  0.00  0.00    +0.142 A 
ATOM     21  C   UNL     1      11.013  11.542  24.054  0.00  0.00    +0.036 A 
ATOM     23  C   UNL     1      10.394  12.824  24.096  0.00  0.00    +0.010 A 
ATOM     24  C   UNL     1      10.525  13.503  22.904  0.00  0.00    +0.047 A 
ENDBRANCH   1  19
ENDBRANCH   9   1
ENDBRANCH  13   9
TORSDOF 9
ENDMDL
MODEL 4
REMARK VINA RESULT:      -6.3      5.800      9.010
REMARK  Name = 11882527
REMARK  9 active torsions:
REMARK  status: ('A' for Active; 'I' for Inactive)
REMARK    1  A    between atoms: S_1  and  N_9
REMARK    2  A    between atoms: S_1  and  C_19
REMARK    3  A    between atoms: O_3  and  C_12
REMARK    4  A    between atoms: O_4  and  C_14
REMARK    5  A    between atoms: N_9  and  C_13
REMARK    6  A    between atoms: N_10  and  C_20
REMARK    7  A    between atoms: C_16  and  C_18
REMARK    8  A    between atoms: C_20  and  C_22
REMARK    9  A    between atoms: C_22  and  C_25
REMARK                            x       y       z     vdW  Elec       q    Type
REMARK                         _______ _______ _______ _____ _____    ______ ____
ROOT
ATOM     12  C   UNL     1      21.003   6.801  21.497  0.00  0.00    +0.166 C 
ATOM     13  C   UNL     1      20.744   5.427  20.852  0.00  0.00    +0.131 C 
ATOM     14  C   UNL     1      19.745   7.339  22.192  0.00  0.00    +0.149 C 
ATOM     15  C   UNL     1      18.544   7.418  21.234  0.00  0.00    +0.074 C 
ATOM     16  C   UNL     1      18.467   6.263  20.277  0.00  0.00    +0.014 C 
ATOM     17  C   UNL     1      19.441   5.358  20.101  0.00  0.00    +0.004 C 
ENDROOT
BRANCH  16  18
ATOM      7  O   UNL     1      17.214   5.365  18.503  0.00  0.00    -0.271 OA
ATOM     10  N   UNL     1      16.177   6.831  19.990  0.00  0.00    -0.311 N 
ATOM     18  C   UNL     1      17.239   6.096  19.493  0.00  0.00    +0.240 C 
ATOM     29  H   UNL     1      16.290   7.432  20.798  0.00  0.00    +0.149 HD
BRANCH  10  20
ATOM     20  C   UNL     1      14.865   6.830  19.385  0.00  0.00    +0.113 C 
BRANCH  20  22
ATOM     22  C   UNL     1      13.756   6.985  20.417  0.00  0.00    +0.114 C 
BRANCH  22  25
ATOM      8  O   UNL     1      11.951   7.356  18.835  0.00  0.00    -0.276 OA
ATOM     11  N   UNL     1      11.612   5.903  20.583  0.00  0.00    -0.329 N 
ATOM     25  C   UNL     1      12.365   6.787  19.841  0.00  0.00    +0.212 C 
ATOM     30  H   UNL     1      10.659   5.677  20.318  0.00  0.00    +0.145 HD
ATOM     31  H   UNL     1      11.975   5.447  21.415  0.00  0.00    +0.145 HD
ENDBRANCH  22  25
ENDBRANCH  20  22
ENDBRANCH  10  20
ENDBRANCH  16  18
BRANCH  12   3
ATOM      3  O   UNL     1      21.408   7.738  20.496  0.00  0.00    -0.387 OA
ATOM     27  H   UNL     1      21.015   7.454  19.654  0.00  0.00    +0.210 HD
ENDBRANCH  12   3
BRANCH  14   4
ATOM      4  O   UNL     1      19.421   6.526  23.318  0.00  0.00    -0.389 OA
ATOM     28  H   UNL     1      19.380   7.107  24.096  0.00  0.00    +0.210 HD
ENDBRANCH  14   4
BRANCH  13   9
ATOM      9  N   UNL     1      21.858   5.086  19.933  0.00  0.00    -0.180 NA
ATOM     26  H   UNL     1      21.803   5.510  18.999  0.00  0.00    +0.149 HD
BRANCH   9   1
ATOM      1  S   UNL     1      23.404   4.837  20.619  0.00  0.00    +0.065 S 
ATOM      5  O   UNL     1      24.000   6.119  20.943  0.00  0.00    -0.153 OA
ATOM      6  O   UNL     1      24.115   3.855  19.823  0.00  0.00    -0.153 OA
BRANCH   1  19
ATOM      2  S   UNL     1      23.602   4.953  23.534  0.00  0.00    -0.077 S 
ATOM     19  C   UNL     1      23.162   4.011  22.191  0.00  0.00    +0.142 A 
ATOM     21  C   UNL     1      22.694   2.779  22.507  0.00  0.00    +0.036 A 
ATOM     23  C   UNL     1      22.691   2.582  23.917  0.00  0.00    +0.010 A 
ATOM     24  C   UNL     1      23.159   3.686  24.596  0.00  0.00    +0.047 A 
ENDBRANCH   1  19
ENDBRANCH   9   1
ENDBRANCH  13   9
TORSDOF 9
ENDMDL
MODEL 5
REMARK VINA RESULT:      -6.0     27.525     28.557
REMARK  Name = 11882527
REMARK  9 active torsions:
REMARK  status: ('A' for Active; 'I' for Inactive)
REMARK    1  A    between atoms: S_1  and  N_9
REMARK    2  A    between atoms: S_1  and  C_19
REMARK    3  A    between atoms: O_3  and  C_12
REMARK    4  A    between atoms: O_4  and  C_14
REMARK    5  A    between atoms: N_9  and  C_13
REMARK    6  A    between atoms: N_10  and  C_20
REMARK    7  A    between atoms: C_16  and  C_18
REMARK    8  A    between atoms: C_20  and  C_22
REMARK    9  A    between atoms: C_22  and  C_25
REMARK                            x       y       z     vdW  Elec       q    Type
REMARK                         _______ _______ _______ _____ _____    ______ ____
ROOT
ATOM     12  C   UNL     1      -3.920 -11.040  16.457  0.00  0.00    +0.166 C 
ATOM     13  C   UNL     1      -5.154 -11.249  15.561  0.00  0.00    +0.131 C 
ATOM     14  C   UNL     1      -4.163 -11.572  17.876  0.00  0.00    +0.149 C 
ATOM     15  C   UNL     1      -5.408 -10.942  18.526  0.00  0.00    +0.074 C 
ATOM     16  C   UNL     1      -6.546 -10.745  17.566  0.00  0.00    +0.014 C 
ATOM     17  C   UNL     1      -6.450 -10.887  16.235  0.00  0.00    +0.004 C 
ENDROOT
BRANCH  16  18
ATOM      7  O   UNL     1      -8.202 -10.776  19.233  0.00  0.00    -0.271 OA
ATOM     10  N   UNL     1      -8.614  -9.616  17.254  0.00  0.00    -0.311 N 
ATOM     18  C   UNL     1      -7.859 -10.392  18.115  0.00  0.00    +0.240 C 
ATOM     29  H   UNL     1      -8.266  -9.366  16.335  0.00  0.00    +0.149 HD
BRANCH  10  20
ATOM     20  C   UNL     1      -9.943  -9.147  17.572  0.00  0.00    +0.113 C 
BRANCH  20  22
ATOM     22  C   UNL     1     -10.105  -7.656  17.310  0.00  0.00    +0.114 C 
BRANCH  22  25
ATOM      8  O   UNL     1     -10.068  -8.130  14.929  0.00  0.00    -0.276 OA
ATOM     11  N   UNL     1     -10.329  -5.954  15.622  0.00  0.00    -0.329 N 
ATOM     25  C   UNL     1     -10.165  -7.307  15.834  0.00  0.00    +0.212 C 
ATOM     30  H   UNL     1     -10.383  -5.576  14.683  0.00  0.00    +0.145 HD
ATOM     31  H   UNL     1     -10.404  -5.291  16.387  0.00  0.00    +0.145 HD
ENDBRANCH  22  25
ENDBRANCH  20  22
ENDBRANCH  10  20
ENDBRANCH  16  18
BRANCH  12   3
ATOM      3  O   UNL     1      -3.611  -9.646  16.539  0.00  0.00    -0.387 OA
ATOM     27  H   UNL     1      -3.801  -9.254  15.670  0.00  0.00    +0.210 HD
ENDBRANCH  12   3
BRANCH  14   4
ATOM      4  O   UNL     1      -4.289 -12.993  17.852  0.00  0.00    -0.389 OA
ATOM     28  H   UNL     1      -3.709 -13.326  17.147  0.00  0.00    +0.210 HD
ENDBRANCH  14   4
BRANCH  13   9
ATOM      9  N   UNL     1      -5.011 -10.454  14.316  0.00  0.00    -0.180 NA
ATOM     26  H   UNL     1      -5.261  -9.461  14.398  0.00  0.00    +0.149 HD
BRANCH   9   1
ATOM      1  S   UNL     1      -3.757 -10.886  13.237  0.00  0.00    +0.065 S 
ATOM      5  O   UNL     1      -3.885 -12.287  12.885  0.00  0.00    -0.153 OA
ATOM      6  O   UNL     1      -2.507 -10.345  13.734  0.00  0.00    -0.153 OA
BRANCH   1  19
ATOM      2  S   UNL     1      -5.587  -9.310  11.589  0.00  0.00    -0.077 S 
ATOM     19  C   UNL     1      -4.033  -9.984  11.714  0.00  0.00    +0.142 A 
ATOM     21  C   UNL     1      -3.236  -9.739  10.646  0.00  0.00    +0.036 A 
ATOM     23  C   UNL     1      -3.919  -8.962   9.667  0.00  0.00    +0.010 A 
ATOM     24  C   UNL     1      -5.206  -8.659  10.053  0.00  0.00    +0.047 A 
ENDBRANCH   1  19
ENDBRANCH   9   1
ENDBRANCH  13   9
TORSDOF 9
ENDMDL
MODEL 6
REMARK VINA RESULT:      -5.9     15.833     19.103
REMARK  Name = 11882527
REMARK  9 active torsions:
REMARK  status: ('A' for Active; 'I' for Inactive)
REMARK    1  A    between atoms: S_1  and  N_9
REMARK    2  A    between atoms: S_1  and  C_19
REMARK    3  A    between atoms: O_3  and  C_12
REMARK    4  A    between atoms: O_4  and  C_14
REMARK    5  A    between atoms: N_9  and  C_13
REMARK    6  A    between atoms: N_10  and  C_20
REMARK    7  A    between atoms: C_16  and  C_18
REMARK    8  A    between atoms: C_20  and  C_22
REMARK    9  A    between atoms: C_22  and  C_25
REMARK                            x       y       z     vdW  Elec       q    Type
REMARK                         _______ _______ _______ _____ _____    ______ ____
ROOT
ATOM     12  C   UNL     1      15.080   4.288   1.301  0.00  0.00    +0.166 C 
ATOM     13  C   UNL     1      14.529   5.591   1.908  0.00  0.00    +0.131 C 
ATOM     14  C   UNL     1      14.024   3.583   0.439  0.00  0.00    +0.149 C 
ATOM     15  C   UNL     1      12.730   3.302   1.223  0.00  0.00    +0.074 C 
ATOM     16  C   UNL     1      12.349   4.410   2.163  0.00  0.00    +0.014 C 
ATOM     17  C   UNL     1      13.142   5.446   2.473  0.00  0.00    +0.004 C 
ENDROOT
BRANCH  16  18
ATOM      7  O   UNL     1      10.008   4.228   2.079  0.00  0.00    -0.271 OA
ATOM     10  N   UNL     1      11.045   4.515   4.146  0.00  0.00    -0.311 N 
ATOM     18  C   UNL     1      11.016   4.372   2.770  0.00  0.00    +0.240 C 
ATOM     29  H   UNL     1      11.920   4.658   4.639  0.00  0.00    +0.149 HD
BRANCH  10  20
ATOM     20  C   UNL     1       9.855   4.513   4.966  0.00  0.00    +0.113 C 
BRANCH  20  22
ATOM     22  C   UNL     1       9.825   5.684   5.940  0.00  0.00    +0.114 C 
BRANCH  22  25
ATOM      8  O   UNL     1      10.624   6.104   8.194  0.00  0.00    -0.276 OA
ATOM     11  N   UNL     1      10.108   3.948   7.584  0.00  0.00    -0.329 N 
ATOM     25  C   UNL     1      10.227   5.302   7.353  0.00  0.00    +0.212 C 
ATOM     30  H   UNL     1      10.347   3.549   8.485  0.00  0.00    +0.145 HD
ATOM     31  H   UNL     1       9.781   3.303   6.871  0.00  0.00    +0.145 HD
ENDBRANCH  22  25
ENDBRANCH  20  22
ENDBRANCH  10  20
ENDBRANCH  16  18
BRANCH  12   3
ATOM      3  O   UNL     1      15.483   3.399   2.347  0.00  0.00    -0.387 OA
ATOM     27  H   UNL     1      15.785   3.944   3.093  0.00  0.00    +0.210 HD
ENDBRANCH  12   3
BRANCH  14   4
ATOM      4  O   UNL     1      13.736   4.364  -0.719  0.00  0.00    -0.389 OA
ATOM     28  H   UNL     1      12.963   3.966  -1.155  0.00  0.00    +0.210 HD
ENDBRANCH  14   4
BRANCH  13   9
ATOM      9  N   UNL     1      15.444   6.075   2.972  0.00  0.00    -0.180 NA
ATOM     26  H   UNL     1      16.340   5.577   3.041  0.00  0.00    +0.149 HD
BRANCH   9   1
ATOM      1  S   UNL     1      15.416   7.743   3.345  0.00  0.00    +0.065 S 
ATOM      5  O   UNL     1      14.875   8.481   2.220  0.00  0.00    -0.153 OA
ATOM      6  O   UNL     1      16.684   8.108   3.946  0.00  0.00    -0.153 OA
BRANCH   1  19
ATOM      2  S   UNL     1      14.849   7.566   6.209  0.00  0.00    -0.077 S 
ATOM     19  C   UNL     1      14.237   7.969   4.676  0.00  0.00    +0.142 A 
ATOM     21  C   UNL     1      12.953   8.400   4.688  0.00  0.00    +0.036 A 
ATOM     23  C   UNL     1      12.429   8.406   6.013  0.00  0.00    +0.010 A 
ATOM     24  C   UNL     1      13.355   7.976   6.937  0.00  0.00    +0.047 A 
ENDBRANCH   1  19
ENDBRANCH   9   1
ENDBRANCH  13   9
TORSDOF 9
ENDMDL
MODEL 7
REMARK VINA RESULT:      -5.9      4.976      6.696
REMARK  Name = 11882527
REMARK  9 active torsions:
REMARK  status: ('A' for Active; 'I' for Inactive)
REMARK    1  A    between atoms: S_1  and  N_9
REMARK    2  A    between atoms: S_1  and  C_19
REMARK    3  A    between atoms: O_3  and  C_12
REMARK    4  A    between atoms: O_4  and  C_14
REMARK    5  A    between atoms: N_9  and  C_13
REMARK    6  A    between atoms: N_10  and  C_20
REMARK    7  A    between atoms: C_16  and  C_18
REMARK    8  A    between atoms: C_20  and  C_22
REMARK    9  A    between atoms: C_22  and  C_25
REMARK                            x       y       z     vdW  Elec       q    Type
REMARK                         _______ _______ _______ _____ _____    ______ ____
ROOT
ATOM     12  C   UNL     1      16.362   6.712  21.107  0.00  0.00    +0.166 C 
ATOM     13  C   UNL     1      17.097   8.030  20.804  0.00  0.00    +0.131 C 
ATOM     14  C   UNL     1      15.475   6.282  19.931  0.00  0.00    +0.149 C 
ATOM     15  C   UNL     1      14.468   7.377  19.536  0.00  0.00    +0.074 C 
ATOM     16  C   UNL     1      15.035   8.766  19.613  0.00  0.00    +0.014 C 
ATOM     17  C   UNL     1      16.216   9.073  20.171  0.00  0.00    +0.004 C 
ENDROOT
BRANCH  16  18
ATOM      7  O   UNL     1      13.292  10.342  19.612  0.00  0.00    -0.271 OA
ATOM     10  N   UNL     1      14.739  10.258  17.787  0.00  0.00    -0.311 N 
ATOM     18  C   UNL     1      14.260   9.862  19.024  0.00  0.00    +0.240 C 
ATOM     29  H   UNL     1      15.529   9.789  17.358  0.00  0.00    +0.149 HD
BRANCH  10  20
ATOM     20  C   UNL     1      14.139  11.318  17.010  0.00  0.00    +0.113 C 
BRANCH  20  22
ATOM     22  C   UNL     1      13.793  10.870  15.596  0.00  0.00    +0.114 C 
BRANCH  22  25
ATOM      8  O   UNL     1      13.623   8.459  15.362  0.00  0.00    -0.276 OA
ATOM     11  N   UNL     1      11.707   9.677  15.721  0.00  0.00    -0.329 N 
ATOM     25  C   UNL     1      13.067   9.538  15.547  0.00  0.00    +0.212 C 
ATOM     30  H   UNL     1      11.093   8.869  15.708  0.00  0.00    +0.145 HD
ATOM     31  H   UNL     1      11.268  10.581  15.869  0.00  0.00    +0.145 HD
ENDBRANCH  22  25
ENDBRANCH  20  22
ENDBRANCH  10  20
ENDBRANCH  16  18
BRANCH  12   3
ATOM      3  O   UNL     1      15.538   6.872  22.266  0.00  0.00    -0.387 OA
ATOM     27  H   UNL     1      14.631   7.034  21.959  0.00  0.00    +0.210 HD
ENDBRANCH  12   3
BRANCH  14   4
ATOM      4  O   UNL     1      16.284   5.934  18.809  0.00  0.00    -0.389 OA
ATOM     28  H   UNL     1      17.197   6.196  19.015  0.00  0.00    +0.210 HD
ENDBRANCH  14   4
BRANCH  13   9
ATOM      9  N   UNL     1      17.684   8.577  22.053  0.00  0.00    -0.180 NA
ATOM     26  H   UNL     1      17.270   8.222  22.925  0.00  0.00    +0.149 HD
BRANCH   9   1
ATOM      1  S   UNL     1      19.349   8.961  22.047  0.00  0.00    +0.065 S 
ATOM      5  O   UNL     1      19.795   9.197  23.407  0.00  0.00    -0.153 OA
ATOM      6  O   UNL     1      19.603   9.924  20.993  0.00  0.00    -0.153 OA
BRANCH   1  19
ATOM      2  S   UNL     1      21.640   7.836  20.620  0.00  0.00    -0.077 S 
ATOM     19  C   UNL     1      20.229   7.498  21.504  0.00  0.00    +0.142 A 
ATOM     21  C   UNL     1      19.980   6.175  21.665  0.00  0.00    +0.036 A 
ATOM     23  C   UNL     1      20.987   5.387  21.039  0.00  0.00    +0.010 A 
ATOM     24  C   UNL     1      21.951   6.163  20.433  0.00  0.00    +0.047 A 
ENDBRANCH   1  19
ENDBRANCH   9   1
ENDBRANCH  13   9
TORSDOF 9
ENDMDL
MODEL 8
REMARK VINA RESULT:      -5.9     28.509     30.443
REMARK  Name = 11882527
REMARK  9 active torsions:
REMARK  status: ('A' for Active; 'I' for Inactive)
REMARK    1  A    between atoms: S_1  and  N_9
REMARK    2  A    between atoms: S_1  and  C_19
REMARK    3  A    between atoms: O_3  and  C_12
REMARK    4  A    between atoms: O_4  and  C_14
REMARK    5  A    between atoms: N_9  and  C_13
REMARK    6  A    between atoms: N_10  and  C_20
REMARK    7  A    between atoms: C_16  and  C_18
REMARK    8  A    between atoms: C_20  and  C_22
REMARK    9  A    between atoms: C_22  and  C_25
REMARK                            x       y       z     vdW  Elec       q    Type
REMARK                         _______ _______ _______ _____ _____    ______ ____
ROOT
ATOM     12  C   UNL     1     -10.379 -10.942  19.892  0.00  0.00    +0.166 C 
ATOM     13  C   UNL     1      -9.212 -10.655  18.930  0.00  0.00    +0.131 C 
ATOM     14  C   UNL     1     -11.728 -10.920  19.160  0.00  0.00    +0.149 C 
ATOM     15  C   UNL     1     -11.961  -9.592  18.418  0.00  0.00    +0.074 C 
ATOM     16  C   UNL     1     -10.721  -9.040  17.776  0.00  0.00    +0.014 C 
ATOM     17  C   UNL     1      -9.483  -9.512  17.990  0.00  0.00    +0.004 C 
ENDROOT
BRANCH  16  18
ATOM      7  O   UNL     1      -9.882  -7.315  16.420  0.00  0.00    -0.271 OA
ATOM     10  N   UNL     1     -12.185  -7.664  16.507  0.00  0.00    -0.311 N 
ATOM     18  C   UNL     1     -10.866  -7.924  16.837  0.00  0.00    +0.240 C 
ATOM     29  H   UNL     1     -12.942  -8.198  16.919  0.00  0.00    +0.149 HD
BRANCH  10  20
ATOM     20  C   UNL     1     -12.580  -6.610  15.601  0.00  0.00    +0.113 C 
BRANCH  20  22
ATOM     22  C   UNL     1     -13.855  -6.951  14.842  0.00  0.00    +0.114 C 
BRANCH  22  25
ATOM      8  O   UNL     1     -15.196  -7.225  16.848  0.00  0.00    -0.276 OA
ATOM     11  N   UNL     1     -16.150  -6.244  15.002  0.00  0.00    -0.329 N 
ATOM     25  C   UNL     1     -15.109  -6.833  15.688  0.00  0.00    +0.212 C 
ATOM     30  H   UNL     1     -17.053  -6.103  15.442  0.00  0.00    +0.145 HD
ATOM     31  H   UNL     1     -16.057  -5.930  14.040  0.00  0.00    +0.145 HD
ENDBRANCH  22  25
ENDBRANCH  20  22
ENDBRANCH  10  20
ENDBRANCH  16  18
BRANCH  12   3
ATOM      3  O   UNL     1     -10.406  -9.957  20.929  0.00  0.00    -0.387 OA
ATOM     27  H   UNL     1     -10.629  -9.106  20.517  0.00  0.00    +0.210 HD
ENDBRANCH  12   3
BRANCH  14   4
ATOM      4  O   UNL     1     -11.807 -12.011  18.245  0.00  0.00    -0.389 OA
ATOM     28  H   UNL     1     -10.994 -12.005  17.712  0.00  0.00    +0.210 HD
ENDBRANCH  14   4
BRANCH  13   9
ATOM      9  N   UNL     1      -7.980 -10.371  19.706  0.00  0.00    -0.180 NA
ATOM     26  H   UNL     1      -8.120  -9.842  20.576  0.00  0.00    +0.149 HD
BRANCH   9   1
ATOM      1  S   UNL     1      -6.727 -11.533  19.660  0.00  0.00    +0.065 S 
ATOM      5  O   UNL     1      -7.281 -12.826  19.309  0.00  0.00    -0.153 OA
ATOM      6  O   UNL     1      -5.891 -11.365  20.833  0.00  0.00    -0.153 OA
BRANCH   1  19
ATOM      2  S   UNL     1      -4.109 -11.813  18.388  0.00  0.00    -0.077 S 
ATOM     19  C   UNL     1      -5.644 -11.092  18.302  0.00  0.00    +0.142 A 
ATOM     21  C   UNL     1      -5.821 -10.293  17.221  0.00  0.00    +0.036 A 
ATOM     23  C   UNL     1      -4.648 -10.260  16.414  0.00  0.00    +0.010 A 
ATOM     24  C   UNL     1      -3.640 -11.043  16.933  0.00  0.00    +0.047 A 
ENDBRANCH   1  19
ENDBRANCH   9   1
ENDBRANCH  13   9
TORSDOF 9
ENDMDL
MODEL 9
REMARK VINA RESULT:      -5.9     14.925     18.583
REMARK  Name = 11882527
REMARK  9 active torsions:
REMARK  status: ('A' for Active; 'I' for Inactive)
REMARK    1  A    between atoms: S_1  and  N_9
REMARK    2  A    between atoms: S_1  and  C_19
REMARK    3  A    between atoms: O_3  and  C_12
REMARK    4  A    between atoms: O_4  and  C_14
REMARK    5  A    between atoms: N_9  and  C_13
REMARK    6  A    between atoms: N_10  and  C_20
REMARK    7  A    between atoms: C_16  and  C_18
REMARK    8  A    between atoms: C_20  and  C_22
REMARK    9  A    between atoms: C_22  and  C_25
REMARK                            x       y       z     vdW  Elec       q    Type
REMARK                         _______ _______ _______ _____ _____    ______ ____
ROOT
ATOM     12  C   UNL     1      13.255   7.388   6.770  0.00  0.00    +0.166 C 
ATOM     13  C   UNL     1      12.469   7.108   5.476  0.00  0.00    +0.131 C 
ATOM     14  C   UNL     1      14.308   8.484   6.560  0.00  0.00    +0.149 C 
ATOM     15  C   UNL     1      15.275   8.145   5.412  0.00  0.00    +0.074 C 
ATOM     16  C   UNL     1      14.604   7.480   4.244  0.00  0.00    +0.014 C 
ATOM     17  C   UNL     1      13.345   7.018   4.255  0.00  0.00    +0.004 C 
ENDROOT
BRANCH  16  18
ATOM      7  O   UNL     1      16.259   8.135   2.710  0.00  0.00    -0.271 OA
ATOM     10  N   UNL     1      14.961   6.258   2.237  0.00  0.00    -0.311 N 
ATOM     18  C   UNL     1      15.365   7.341   2.998  0.00  0.00    +0.240 C 
ATOM     29  H   UNL     1      14.194   5.667   2.535  0.00  0.00    +0.149 HD
BRANCH  10  20
ATOM     20  C   UNL     1      15.560   5.918   0.967  0.00  0.00    +0.113 C 
BRANCH  20  22
ATOM     22  C   UNL     1      14.893   4.711   0.321  0.00  0.00    +0.114 C 
BRANCH  22  25
ATOM      8  O   UNL     1      15.238   3.133   2.134  0.00  0.00    -0.276 OA
ATOM     11  N   UNL     1      13.144   3.312   1.202  0.00  0.00    -0.329 N 
ATOM     25  C   UNL     1      14.476   3.647   1.320  0.00  0.00    +0.212 C 
ATOM     30  H   UNL     1      12.727   2.610   1.804  0.00  0.00    +0.145 HD
ATOM     31  H   UNL     1      12.534   3.748   0.518  0.00  0.00    +0.145 HD
ENDBRANCH  22  25
ENDBRANCH  20  22
ENDBRANCH  10  20
ENDBRANCH  16  18
BRANCH  12   3
ATOM      3  O   UNL     1      13.916   6.195   7.202  0.00  0.00    -0.387 OA
ATOM     27  H   UNL     1      13.906   5.570   6.459  0.00  0.00    +0.210 HD
ENDBRANCH  12   3
BRANCH  14   4
ATOM      4  O   UNL     1      13.671   9.735   6.310  0.00  0.00    -0.389 OA
ATOM     28  H   UNL     1      13.727   9.906   5.355  0.00  0.00    +0.210 HD
ENDBRANCH  14   4
BRANCH  13   9
ATOM      9  N   UNL     1      11.696   5.850   5.619  0.00  0.00    -0.180 NA
ATOM     26  H   UNL     1      12.197   5.076   6.073  0.00  0.00    +0.149 HD
BRANCH   9   1
ATOM      1  S   UNL     1      10.010   5.978   5.867  0.00  0.00    +0.065 S 
ATOM      5  O   UNL     1       9.318   5.103   4.940  0.00  0.00    -0.153 OA
ATOM      6  O   UNL     1       9.659   7.380   5.983  0.00  0.00    -0.153 OA
BRANCH   1  19
ATOM      2  S   UNL     1       9.094   6.479   8.598  0.00  0.00    -0.077 S 
ATOM     19  C   UNL     1       9.661   5.318   7.496  0.00  0.00    +0.142 A 
ATOM     21  C   UNL     1       9.767   4.069   8.012  0.00  0.00    +0.036 A 
ATOM     23  C   UNL     1       9.365   4.047   9.379  0.00  0.00    +0.010 A 
ATOM     24  C   UNL     1       8.975   5.290   9.824  0.00  0.00    +0.047 A 
ENDBRANCH   1  19
ENDBRANCH   9   1
ENDBRANCH  13   9
TORSDOF 9
ENDMDL
MODEL 10
REMARK VINA RESULT:      -5.8     15.702     18.934
REMARK  Name = 11882527
REMARK  9 active torsions:
REMARK  status: ('A' for Active; 'I' for Inactive)
REMARK    1  A    between atoms: S_1  and  N_9
REMARK    2  A    between atoms: S_1  and  C_19
REMARK    3  A    between atoms: O_3  and  C_12
REMARK    4  A    between atoms: O_4  and  C_14
REMARK    5  A    between atoms: N_9  and  C_13
REMARK    6  A    between atoms: N_10  and  C_20
REMARK    7  A    between atoms: C_16  and  C_18
REMARK    8  A    between atoms: C_20  and  C_22
REMARK    9  A    between atoms: C_22  and  C_25
REMARK                            x       y       z     vdW  Elec       q    Type
REMARK                         _______ _______ _______ _____ _____    ______ ____
ROOT
ATOM     12  C   UNL     1      13.334   7.392   6.918  0.00  0.00    +0.166 C 
ATOM     13  C   UNL     1      12.433   7.115   5.700  0.00  0.00    +0.131 C 
ATOM     14  C   UNL     1      14.382   8.469   6.606  0.00  0.00    +0.149 C 
ATOM     15  C   UNL     1      15.239   8.104   5.380  0.00  0.00    +0.074 C 
ATOM     16  C   UNL     1      14.457   7.440   4.282  0.00  0.00    +0.014 C 
ATOM     17  C   UNL     1      13.197   6.999   4.408  0.00  0.00    +0.004 C 
ENDROOT
BRANCH  16  18
ATOM      7  O   UNL     1      16.190   7.803   2.737  0.00  0.00    -0.271 OA
ATOM     10  N   UNL     1      14.365   6.500   2.102  0.00  0.00    -0.311 N 
ATOM     18  C   UNL     1      15.103   7.278   2.976  0.00  0.00    +0.240 C 
ATOM     29  H   UNL     1      13.461   6.126   2.370  0.00  0.00    +0.149 HD
BRANCH  10  20
ATOM     20  C   UNL     1      14.795   6.200   0.755  0.00  0.00    +0.113 C 
BRANCH  20  22
ATOM     22  C   UNL     1      14.551   4.744   0.384  0.00  0.00    +0.114 C 
BRANCH  22  25
ATOM      8  O   UNL     1      13.148   3.586   1.992  0.00  0.00    -0.276 OA
ATOM     11  N   UNL     1      15.432   3.393   2.171  0.00  0.00    -0.329 N 
ATOM     25  C   UNL     1      14.274   3.855   1.583  0.00  0.00    +0.212 C 
ATOM     30  H   UNL     1      15.398   2.790   2.986  0.00  0.00    +0.145 HD
ATOM     31  H   UNL     1      16.353   3.632   1.816  0.00  0.00    +0.145 HD
ENDBRANCH  22  25
ENDBRANCH  20  22
ENDBRANCH  10  20
ENDBRANCH  16  18
BRANCH  12   3
ATOM      3  O   UNL     1      14.011   6.193   7.302  0.00  0.00    -0.387 OA
ATOM     27  H   UNL     1      14.569   5.920   6.555  0.00  0.00    +0.210 HD
ENDBRANCH  12   3
BRANCH  14   4
ATOM      4  O   UNL     1      13.746   9.728   6.400  0.00  0.00    -0.389 OA
ATOM     28  H   UNL     1      13.850  10.245   7.217  0.00  0.00    +0.210 HD
ENDBRANCH  14   4
BRANCH  13   9
ATOM      9  N   UNL     1      11.656   5.872   5.923  0.00  0.00    -0.180 NA
ATOM     26  H   UNL     1      12.212   5.043   6.168  0.00  0.00    +0.149 HD
BRANCH   9   1
ATOM      1  S   UNL     1      10.092   6.023   6.598  0.00  0.00    +0.065 S 
ATOM      5  O   UNL     1      10.186   6.660   7.897  0.00  0.00    -0.153 OA
ATOM      6  O   UNL     1       9.385   4.769   6.423  0.00  0.00    -0.153 OA
BRANCH   1  19
ATOM      2  S   UNL     1       8.693   8.581   6.379  0.00  0.00    -0.077 S 
ATOM     19  C   UNL     1       9.179   7.170   5.568  0.00  0.00    +0.142 A 
ATOM     21  C   UNL     1       8.803   7.122   4.267  0.00  0.00    +0.036 A 
ATOM     23  C   UNL     1       8.081   8.294   3.901  0.00  0.00    +0.010 A 
ATOM     24  C   UNL     1       7.949   9.171   4.955  0.00  0.00    +0.047 A 
ENDBRANCH   1  19
ENDBRANCH   9   1
ENDBRANCH  13   9
TORSDOF 9
ENDMDL
