MODEL 1
REMARK VINA RESULT:      -7.7      0.000      0.000
REMARK  Name = 51136963
REMARK  4 active torsions:
REMARK  status: ('A' for Active; 'I' for Inactive)
REMARK    1  A    between atoms: N_3  and  C_8
REMARK    2  A    between atoms: C_9  and  C_17
REMARK    3  A    between atoms: C_18  and  C_19
REMARK    4  A    between atoms: C_23  and  C_24
REMARK                            x       y       z     vdW  Elec       q    Type
REMARK                         _______ _______ _______ _____ _____    ______ ____
ROOT
ATOM      2  O   UNL     1      16.028   8.656  20.282  0.00  0.00    -0.336 OA
ATOM      4  N   UNL     1      16.491   6.529  19.755  0.00  0.00    -0.190 NA
ATOM      5  N   UNL     1      17.295   8.390  20.816  0.00  0.00    -0.056 NA
ATOM     17  C   UNL     1      15.627   7.509  19.676  0.00  0.00    +0.245 A 
ATOM     18  C   UNL     1      17.499   7.118  20.464  0.00  0.00    +0.204 A 
ENDROOT
BRANCH  18  19
ATOM      6  N   UNL     1      20.544   6.081  22.328  0.00  0.00    -0.254 NA
ATOM     19  C   UNL     1      18.696   6.404  20.804  0.00  0.00    +0.041 A 
ATOM     20  C   UNL     1      19.174   5.380  19.995  0.00  0.00    +0.015 A 
ATOM     21  C   UNL     1      19.411   6.713  21.950  0.00  0.00    +0.123 A 
ATOM     22  C   UNL     1      20.337   4.705  20.351  0.00  0.00    +0.029 A 
ATOM     23  C   UNL     1      20.979   5.091  21.517  0.00  0.00    +0.071 A 
BRANCH  23  24
ATOM      7  N   UNL     1      24.536   3.163  22.785  0.00  0.00    -0.263 NA
ATOM     24  C   UNL     1      22.190   4.435  21.949  0.00  0.00    +0.003 A 
ATOM     25  C   UNL     1      23.015   5.040  22.892  0.00  0.00    +0.030 A 
ATOM     26  C   UNL     1      22.538   3.195  21.424  0.00  0.00    +0.030 A 
ATOM     27  C   UNL     1      24.165   4.369  23.274  0.00  0.00    +0.111 A 
ATOM     28  C   UNL     1      23.709   2.607  21.871  0.00  0.00    +0.111 A 
ENDBRANCH  23  24
ENDBRANCH  18  19
BRANCH  17   9
ATOM      3  N   UNL     1      13.359   8.532  19.615  0.00  0.00    -0.288 NA
ATOM      9  C   UNL     1      14.267   7.537  19.010  0.00  0.00    +0.146 C 
ATOM     10  C   UNL     1      12.452   8.965  18.552  0.00  0.00    +0.085 C 
ATOM     11  C   UNL     1      14.342   7.931  17.523  0.00  0.00    +0.030 C 
ATOM     12  C   UNL     1      13.397   9.115  17.377  0.00  0.00    +0.017 C 
BRANCH   3   8
ATOM      1  O   UNL     1      10.159   7.147  21.955  0.00  0.00    -0.380 OA
ATOM      8  C   UNL     1      12.637   8.019  20.778  0.00  0.00    +0.062 C 
ATOM     13  C   UNL     1      12.031   6.643  20.489  0.00  0.00    +0.047 C 
ATOM     14  C   UNL     1      11.537   8.999  21.196  0.00  0.00    +0.047 C 
ATOM     15  C   UNL     1      11.173   6.184  21.663  0.00  0.00    +0.161 C 
ATOM     16  C   UNL     1      10.706   8.410  22.331  0.00  0.00    +0.161 C 
ENDBRANCH   3   8
ENDBRANCH  17   9
TORSDOF 4
ENDMDL
MODEL 2
REMARK VINA RESULT:      -7.5      1.778      3.231
REMARK  Name = 51136963
REMARK  4 active torsions:
REMARK  status: ('A' for Active; 'I' for Inactive)
REMARK    1  A    between atoms: N_3  and  C_8
REMARK    2  A    between atoms: C_9  and  C_17
REMARK    3  A    between atoms: C_18  and  C_19
REMARK    4  A    between atoms: C_23  and  C_24
REMARK                            x       y       z     vdW  Elec       q    Type
REMARK                         _______ _______ _______ _____ _____    ______ ____
ROOT
ATOM      2  O   UNL     1      15.720   9.787  20.968  0.00  0.00    -0.336 OA
ATOM      4  N   UNL     1      15.723   7.579  20.591  0.00  0.00    -0.190 NA
ATOM      5  N   UNL     1      17.059   9.383  21.033  0.00  0.00    -0.056 NA
ATOM     17  C   UNL     1      15.001   8.665  20.704  0.00  0.00    +0.245 A 
ATOM     18  C   UNL     1      16.980   8.070  20.801  0.00  0.00    +0.204 A 
ENDROOT
BRANCH  18  19
ATOM      6  N   UNL     1      20.370   6.745  21.561  0.00  0.00    -0.254 NA
ATOM     19  C   UNL     1      18.134   7.219  20.772  0.00  0.00    +0.041 A 
ATOM     20  C   UNL     1      18.168   6.083  19.972  0.00  0.00    +0.015 A 
ATOM     21  C   UNL     1      19.251   7.504  21.542  0.00  0.00    +0.123 A 
ATOM     22  C   UNL     1      19.301   5.276  19.965  0.00  0.00    +0.029 A 
ATOM     23  C   UNL     1      20.366   5.648  20.770  0.00  0.00    +0.071 A 
BRANCH  23  24
ATOM      7  N   UNL     1      23.914   3.332  20.899  0.00  0.00    -0.263 NA
ATOM     24  C   UNL     1      21.573   4.860  20.815  0.00  0.00    +0.003 A 
ATOM     25  C   UNL     1      21.520   3.521  21.188  0.00  0.00    +0.030 A 
ATOM     26  C   UNL     1      22.795   5.435  20.483  0.00  0.00    +0.030 A 
ATOM     27  C   UNL     1      22.708   2.807  21.213  0.00  0.00    +0.111 A 
ATOM     28  C   UNL     1      23.925   4.636  20.541  0.00  0.00    +0.111 A 
ENDBRANCH  23  24
ENDBRANCH  18  19
BRANCH  17   9
ATOM      3  N   UNL     1      12.927   8.046  19.475  0.00  0.00    -0.288 NA
ATOM      9  C   UNL     1      13.501   8.837  20.582  0.00  0.00    +0.146 C 
ATOM     10  C   UNL     1      11.556   7.721  19.867  0.00  0.00    +0.085 C 
ATOM     11  C   UNL     1      12.745   8.360  21.836  0.00  0.00    +0.030 C 
ATOM     12  C   UNL     1      11.727   7.350  21.326  0.00  0.00    +0.017 C 
BRANCH   3   8
ATOM      1  O   UNL     1      12.765   8.620  15.319  0.00  0.00    -0.380 OA
ATOM      8  C   UNL     1      12.982   8.734  18.187  0.00  0.00    +0.062 C 
ATOM     13  C   UNL     1      11.632   8.669  17.468  0.00  0.00    +0.047 C 
ATOM     14  C   UNL     1      14.076   8.126  17.305  0.00  0.00    +0.047 C 
ATOM     15  C   UNL     1      11.744   9.274  16.073  0.00  0.00    +0.161 C 
ATOM     16  C   UNL     1      14.053   8.761  15.919  0.00  0.00    +0.161 C 
ENDBRANCH   3   8
ENDBRANCH  17   9
TORSDOF 4
ENDMDL
MODEL 3
REMARK VINA RESULT:      -7.0      3.316     10.572
REMARK  Name = 51136963
REMARK  4 active torsions:
REMARK  status: ('A' for Active; 'I' for Inactive)
REMARK    1  A    between atoms: N_3  and  C_8
REMARK    2  A    between atoms: C_9  and  C_17
REMARK    3  A    between atoms: C_18  and  C_19
REMARK    4  A    between atoms: C_23  and  C_24
REMARK                            x       y       z     vdW  Elec       q    Type
REMARK                         _______ _______ _______ _____ _____    ______ ____
ROOT
ATOM      2  O   UNL     1      22.108   6.144  21.398  0.00  0.00    -0.336 OA
ATOM      4  N   UNL     1      20.665   4.771  20.373  0.00  0.00    -0.190 NA
ATOM      5  N   UNL     1      20.898   6.845  21.312  0.00  0.00    -0.056 NA
ATOM     17  C   UNL     1      21.884   4.935  20.822  0.00  0.00    +0.245 A 
ATOM     18  C   UNL     1      20.097   5.970  20.696  0.00  0.00    +0.204 A 
ENDROOT
BRANCH  18  19
ATOM      6  N   UNL     1      16.799   5.869  18.984  0.00  0.00    -0.254 NA
ATOM     19  C   UNL     1      18.727   6.261  20.388  0.00  0.00    +0.041 A 
ATOM     20  C   UNL     1      18.001   7.174  21.144  0.00  0.00    +0.015 A 
ATOM     21  C   UNL     1      18.085   5.641  19.328  0.00  0.00    +0.123 A 
ATOM     22  C   UNL     1      16.673   7.435  20.822  0.00  0.00    +0.029 A 
ATOM     23  C   UNL     1      16.124   6.763  19.742  0.00  0.00    +0.071 A 
BRANCH  23  24
ATOM      7  N   UNL     1      12.096   7.413  18.591  0.00  0.00    -0.263 NA
ATOM     24  C   UNL     1      14.753   6.984  19.350  0.00  0.00    +0.003 A 
ATOM     25  C   UNL     1      13.720   6.726  20.246  0.00  0.00    +0.030 A 
ATOM     26  C   UNL     1      14.458   7.456  18.076  0.00  0.00    +0.030 A 
ATOM     27  C   UNL     1      12.421   6.955  19.821  0.00  0.00    +0.111 A 
ATOM     28  C   UNL     1      13.127   7.652  17.748  0.00  0.00    +0.111 A 
ENDBRANCH  23  24
ENDBRANCH  18  19
BRANCH  17   9
ATOM      3  N   UNL     1      24.282   4.556  21.370  0.00  0.00    -0.288 NA
ATOM      9  C   UNL     1      23.055   3.975  20.788  0.00  0.00    +0.146 C 
ATOM     10  C   UNL     1      25.048   3.438  21.919  0.00  0.00    +0.085 C 
ATOM     11  C   UNL     1      22.800   2.698  21.610  0.00  0.00    +0.030 C 
ATOM     12  C   UNL     1      23.966   2.613  22.585  0.00  0.00    +0.017 C 
BRANCH   3   8
ATOM      1  O   UNL     1      27.616   5.995  19.262  0.00  0.00    -0.380 OA
ATOM      8  C   UNL     1      25.060   5.337  20.411  0.00  0.00    +0.062 C 
ATOM     13  C   UNL     1      25.763   4.428  19.400  0.00  0.00    +0.047 C 
ATOM     14  C   UNL     1      26.088   6.205  21.141  0.00  0.00    +0.047 C 
ATOM     15  C   UNL     1      26.673   5.248  18.492  0.00  0.00    +0.161 C 
ATOM     16  C   UNL     1      26.981   6.927  20.137  0.00  0.00    +0.161 C 
ENDBRANCH   3   8
ENDBRANCH  17   9
TORSDOF 4
ENDMDL
MODEL 4
REMARK VINA RESULT:      -6.7     30.297     32.494
REMARK  Name = 51136963
REMARK  4 active torsions:
REMARK  status: ('A' for Active; 'I' for Inactive)
REMARK    1  A    between atoms: N_3  and  C_8
REMARK    2  A    between atoms: C_9  and  C_17
REMARK    3  A    between atoms: C_18  and  C_19
REMARK    4  A    between atoms: C_23  and  C_24
REMARK                            x       y       z     vdW  Elec       q    Type
REMARK                         _______ _______ _______ _____ _____    ______ ____
ROOT
ATOM      2  O   UNL     1     -14.280  -5.560  14.126  0.00  0.00    -0.336 OA
ATOM      4  N   UNL     1     -12.041  -5.620  14.137  0.00  0.00    -0.190 NA
ATOM      5  N   UNL     1     -13.921  -6.538  15.062  0.00  0.00    -0.056 NA
ATOM     17  C   UNL     1     -13.115  -5.070  13.628  0.00  0.00    +0.245 A 
ATOM     18  C   UNL     1     -12.586  -6.514  15.012  0.00  0.00    +0.204 A 
ENDROOT
BRANCH  18  19
ATOM      6  N   UNL     1      -9.557  -8.045  16.529  0.00  0.00    -0.254 NA
ATOM     19  C   UNL     1     -11.767  -7.371  15.821  0.00  0.00    +0.041 A 
ATOM     20  C   UNL     1     -12.335  -8.326  16.655  0.00  0.00    +0.015 A 
ATOM     21  C   UNL     1     -10.385  -7.271  15.794  0.00  0.00    +0.123 A 
ATOM     22  C   UNL     1     -11.515  -9.142  17.428  0.00  0.00    +0.029 A 
ATOM     23  C   UNL     1     -10.145  -8.963  17.329  0.00  0.00    +0.071 A 
BRANCH  23  24
ATOM      7  N   UNL     1      -7.467 -11.343  19.596  0.00  0.00    -0.263 NA
ATOM     24  C   UNL     1      -9.233  -9.773  18.101  0.00  0.00    +0.003 A 
ATOM     25  C   UNL     1      -9.724 -10.689  19.027  0.00  0.00    +0.030 A 
ATOM     26  C   UNL     1      -7.860  -9.643  17.923  0.00  0.00    +0.030 A 
ATOM     27  C   UNL     1      -8.808 -11.443  19.741  0.00  0.00    +0.111 A 
ATOM     28  C   UNL     1      -7.028 -10.442  18.688  0.00  0.00    +0.111 A 
ENDBRANCH  23  24
ENDBRANCH  18  19
BRANCH  17   9
ATOM      3  N   UNL     1     -13.297  -4.519  11.208  0.00  0.00    -0.288 NA
ATOM      9  C   UNL     1     -13.233  -3.982  12.582  0.00  0.00    +0.146 C 
ATOM     10  C   UNL     1     -14.079  -3.562  10.426  0.00  0.00    +0.085 C 
ATOM     11  C   UNL     1     -14.518  -3.147  12.736  0.00  0.00    +0.030 C 
ATOM     12  C   UNL     1     -15.206  -3.224  11.380  0.00  0.00    +0.017 C 
BRANCH   3   8
ATOM      1  O   UNL     1     -10.373  -5.253   8.286  0.00  0.00    -0.380 OA
ATOM      8  C   UNL     1     -11.980  -4.762  10.623  0.00  0.00    +0.062 C 
ATOM     13  C   UNL     1     -11.599  -3.651   9.641  0.00  0.00    +0.047 C 
ATOM     14  C   UNL     1     -11.955  -6.120   9.915  0.00  0.00    +0.047 C 
ATOM     15  C   UNL     1     -10.287  -3.987   8.942  0.00  0.00    +0.161 C 
ATOM     16  C   UNL     1     -10.623  -6.320   9.200  0.00  0.00    +0.161 C 
ENDBRANCH   3   8
ENDBRANCH  17   9
TORSDOF 4
ENDMDL
MODEL 5
REMARK VINA RESULT:      -6.5     17.876     21.388
REMARK  Name = 51136963
REMARK  4 active torsions:
REMARK  status: ('A' for Active; 'I' for Inactive)
REMARK    1  A    between atoms: N_3  and  C_8
REMARK    2  A    between atoms: C_9  and  C_17
REMARK    3  A    between atoms: C_18  and  C_19
REMARK    4  A    between atoms: C_23  and  C_24
REMARK                            x       y       z     vdW  Elec       q    Type
REMARK                         _______ _______ _______ _____ _____    ______ ____
ROOT
ATOM      2  O   UNL     1      13.327   6.125  -0.113  0.00  0.00    -0.336 OA
ATOM      4  N   UNL     1      12.286   4.383   0.835  0.00  0.00    -0.190 NA
ATOM      5  N   UNL     1      12.901   6.565   1.146  0.00  0.00    -0.056 NA
ATOM     17  C   UNL     1      12.924   4.832  -0.216  0.00  0.00    +0.245 A 
ATOM     18  C   UNL     1      12.296   5.482   1.644  0.00  0.00    +0.204 A 
ENDROOT
BRANCH  18  19
ATOM      6  N   UNL     1      11.432   6.497   5.115  0.00  0.00    -0.254 NA
ATOM     19  C   UNL     1      11.691   5.464   2.945  0.00  0.00    +0.041 A 
ATOM     20  C   UNL     1      10.812   4.453   3.312  0.00  0.00    +0.015 A 
ATOM     21  C   UNL     1      11.966   6.455   3.875  0.00  0.00    +0.123 A 
ATOM     22  C   UNL     1      10.240   4.462   4.580  0.00  0.00    +0.029 A 
ATOM     23  C   UNL     1      10.580   5.497   5.437  0.00  0.00    +0.071 A 
BRANCH  23  24
ATOM      7  N   UNL     1       8.951   5.714   9.345  0.00  0.00    -0.263 NA
ATOM     24  C   UNL     1      10.026   5.572   6.767  0.00  0.00    +0.003 A 
ATOM     25  C   UNL     1       9.468   6.761   7.227  0.00  0.00    +0.030 A 
ATOM     26  C   UNL     1      10.045   4.455   7.595  0.00  0.00    +0.030 A 
ATOM     27  C   UNL     1       8.948   6.779   8.511  0.00  0.00    +0.111 A 
ATOM     28  C   UNL     1       9.501   4.577   8.863  0.00  0.00    +0.111 A 
ENDBRANCH  23  24
ENDBRANCH  18  19
BRANCH  17   9
ATOM      3  N   UNL     1      12.465   4.589  -2.650  0.00  0.00    -0.288 NA
ATOM      9  C   UNL     1      13.271   4.118  -1.506  0.00  0.00    +0.146 C 
ATOM     10  C   UNL     1      13.293   4.409  -3.842  0.00  0.00    +0.085 C 
ATOM     11  C   UNL     1      14.731   4.347  -1.938  0.00  0.00    +0.030 C 
ATOM     12  C   UNL     1      14.646   4.888  -3.357  0.00  0.00    +0.017 C 
BRANCH   3   8
ATOM      1  O   UNL     1       9.440   2.156  -4.253  0.00  0.00    -0.380 OA
ATOM      8  C   UNL     1      11.178   3.906  -2.767  0.00  0.00    +0.062 C 
ATOM     13  C   UNL     1      11.359   2.385  -2.779  0.00  0.00    +0.047 C 
ATOM     14  C   UNL     1      10.449   4.357  -4.036  0.00  0.00    +0.047 C 
ATOM     15  C   UNL     1      10.025   1.694  -3.035  0.00  0.00    +0.161 C 
ATOM     16  C   UNL     1       9.165   3.556  -4.222  0.00  0.00    +0.161 C 
ENDBRANCH   3   8
ENDBRANCH  17   9
TORSDOF 4
ENDMDL
MODEL 6
REMARK VINA RESULT:      -6.5     16.565     20.204
REMARK  Name = 51136963
REMARK  4 active torsions:
REMARK  status: ('A' for Active; 'I' for Inactive)
REMARK    1  A    between atoms: N_3  and  C_8
REMARK    2  A    between atoms: C_9  and  C_17
REMARK    3  A    between atoms: C_18  and  C_19
REMARK    4  A    between atoms: C_23  and  C_24
REMARK                            x       y       z     vdW  Elec       q    Type
REMARK                         _______ _______ _______ _____ _____    ______ ____
ROOT
ATOM      2  O   UNL     1      10.084   4.329   5.566  0.00  0.00    -0.336 OA
ATOM      4  N   UNL     1      10.989   5.802   4.143  0.00  0.00    -0.190 NA
ATOM      5  N   UNL     1      10.253   3.646   4.355  0.00  0.00    -0.056 NA
ATOM     17  C   UNL     1      10.541   5.590   5.354  0.00  0.00    +0.245 A 
ATOM     18  C   UNL     1      10.792   4.580   3.566  0.00  0.00    +0.204 A 
ENDROOT
BRANCH  18  19
ATOM      6  N   UNL     1      10.481   4.268  -0.126  0.00  0.00    -0.254 NA
ATOM     19  C   UNL     1      11.143   4.328   2.199  0.00  0.00    +0.041 A 
ATOM     20  C   UNL     1      12.424   3.914   1.853  0.00  0.00    +0.015 A 
ATOM     21  C   UNL     1      10.216   4.489   1.181  0.00  0.00    +0.123 A 
ATOM     22  C   UNL     1      12.736   3.677   0.518  0.00  0.00    +0.029 A 
ATOM     23  C   UNL     1      11.737   3.867  -0.424  0.00  0.00    +0.071 A 
BRANCH  23  24
ATOM      7  N   UNL     1      12.475   3.202  -4.546  0.00  0.00    -0.263 NA
ATOM     24  C   UNL     1      11.989   3.641  -1.827  0.00  0.00    +0.003 A 
ATOM     25  C   UNL     1      13.224   3.969  -2.378  0.00  0.00    +0.030 A 
ATOM     26  C   UNL     1      10.998   3.094  -2.635  0.00  0.00    +0.030 A 
ATOM     27  C   UNL     1      13.415   3.731  -3.729  0.00  0.00    +0.111 A 
ATOM     28  C   UNL     1      11.288   2.896  -3.974  0.00  0.00    +0.111 A 
ENDBRANCH  23  24
ENDBRANCH  18  19
BRANCH  17   9
ATOM      3  N   UNL     1       9.180   7.259   6.601  0.00  0.00    -0.288 NA
ATOM      9  C   UNL     1      10.468   6.542   6.530  0.00  0.00    +0.146 C 
ATOM     10  C   UNL     1       8.942   7.544   8.016  0.00  0.00    +0.085 C 
ATOM     11  C   UNL     1      10.588   5.820   7.886  0.00  0.00    +0.030 C 
ATOM     12  C   UNL     1       9.354   6.242   8.671  0.00  0.00    +0.017 C 
BRANCH   3   8
ATOM      1  O   UNL     1       7.759  10.849   4.950  0.00  0.00    -0.380 OA
ATOM      8  C   UNL     1       9.149   8.470   5.783  0.00  0.00    +0.062 C 
ATOM     13  C   UNL     1       9.072   9.724   6.658  0.00  0.00    +0.047 C 
ATOM     14  C   UNL     1       7.962   8.431   4.817  0.00  0.00    +0.047 C 
ATOM     15  C   UNL     1       8.908  10.967   5.791  0.00  0.00    +0.161 C 
ATOM     16  C   UNL     1       7.859   9.745   4.051  0.00  0.00    +0.161 C 
ENDBRANCH   3   8
ENDBRANCH  17   9
TORSDOF 4
ENDMDL
MODEL 7
REMARK VINA RESULT:      -6.4     27.708     32.027
REMARK  Name = 51136963
REMARK  4 active torsions:
REMARK  status: ('A' for Active; 'I' for Inactive)
REMARK    1  A    between atoms: N_3  and  C_8
REMARK    2  A    between atoms: C_9  and  C_17
REMARK    3  A    between atoms: C_18  and  C_19
REMARK    4  A    between atoms: C_23  and  C_24
REMARK                            x       y       z     vdW  Elec       q    Type
REMARK                         _______ _______ _______ _____ _____    ______ ____
ROOT
ATOM      2  O   UNL     1       4.581   4.925  -6.931  0.00  0.00    -0.336 OA
ATOM      4  N   UNL     1       2.810   4.777  -5.569  0.00  0.00    -0.190 NA
ATOM      5  N   UNL     1       3.824   3.841  -7.393  0.00  0.00    -0.056 NA
ATOM     17  C   UNL     1       3.915   5.418  -5.855  0.00  0.00    +0.245 A 
ATOM     18  C   UNL     1       2.796   3.818  -6.540  0.00  0.00    +0.204 A 
ENDROOT
BRANCH  18  19
ATOM      6  N   UNL     1      -0.131   1.944  -7.860  0.00  0.00    -0.254 NA
ATOM     19  C   UNL     1       1.740   2.851  -6.628  0.00  0.00    +0.041 A 
ATOM     20  C   UNL     1       1.546   1.909  -5.625  0.00  0.00    +0.015 A 
ATOM     21  C   UNL     1       0.882   2.827  -7.716  0.00  0.00    +0.123 A 
ATOM     22  C   UNL     1       0.515   0.983  -5.737  0.00  0.00    +0.029 A 
ATOM     23  C   UNL     1      -0.289   1.043  -6.865  0.00  0.00    +0.071 A 
BRANCH  23  24
ATOM      7  N   UNL     1      -3.490  -1.685  -7.407  0.00  0.00    -0.263 NA
ATOM     24  C   UNL     1      -1.378   0.114  -7.049  0.00  0.00    +0.003 A 
ATOM     25  C   UNL     1      -1.312  -1.161  -6.495  0.00  0.00    +0.030 A 
ATOM     26  C   UNL     1      -2.500   0.489  -7.781  0.00  0.00    +0.030 A 
ATOM     27  C   UNL     1      -2.384  -2.014  -6.701  0.00  0.00    +0.111 A 
ATOM     28  C   UNL     1      -3.518  -0.438  -7.930  0.00  0.00    +0.111 A 
ENDBRANCH  23  24
ENDBRANCH  18  19
BRANCH  17   9
ATOM      3  N   UNL     1       3.536   7.478  -4.511  0.00  0.00    -0.288 NA
ATOM      9  C   UNL     1       4.538   6.613  -5.165  0.00  0.00    +0.146 C 
ATOM     10  C   UNL     1       4.208   8.103  -3.373  0.00  0.00    +0.085 C 
ATOM     11  C   UNL     1       5.502   6.209  -4.034  0.00  0.00    +0.030 C 
ATOM     12  C   UNL     1       4.997   6.944  -2.800  0.00  0.00    +0.017 C 
BRANCH   3   8
ATOM      1  O   UNL     1       2.114  11.178  -5.896  0.00  0.00    -0.380 OA
ATOM      8  C   UNL     1       2.951   8.466  -5.415  0.00  0.00    +0.062 C 
ATOM     13  C   UNL     1       3.945   9.590  -5.722  0.00  0.00    +0.047 C 
ATOM     14  C   UNL     1       1.670   9.049  -4.811  0.00  0.00    +0.047 C 
ATOM     15  C   UNL     1       3.277  10.677  -6.556  0.00  0.00    +0.161 C 
ATOM     16  C   UNL     1       1.128  10.166  -5.695  0.00  0.00    +0.161 C 
ENDBRANCH   3   8
ENDBRANCH  17   9
TORSDOF 4
ENDMDL
MODEL 8
REMARK VINA RESULT:      -6.4     18.644     22.229
REMARK  Name = 51136963
REMARK  4 active torsions:
REMARK  status: ('A' for Active; 'I' for Inactive)
REMARK    1  A    between atoms: N_3  and  C_8
REMARK    2  A    between atoms: C_9  and  C_17
REMARK    3  A    between atoms: C_18  and  C_19
REMARK    4  A    between atoms: C_23  and  C_24
REMARK                            x       y       z     vdW  Elec       q    Type
REMARK                         _______ _______ _______ _____ _____    ______ ____
ROOT
ATOM      2  O   UNL     1      11.987   5.084  -1.064  0.00  0.00    -0.336 OA
ATOM      4  N   UNL     1      10.415   4.019   0.123  0.00  0.00    -0.190 NA
ATOM      5  N   UNL     1      11.978   5.687   0.199  0.00  0.00    -0.056 NA
ATOM     17  C   UNL     1      11.037   4.114  -1.025  0.00  0.00    +0.245 A 
ATOM     18  C   UNL     1      11.026   5.005   0.842  0.00  0.00    +0.204 A 
ENDROOT
BRANCH  18  19
ATOM      6  N   UNL     1      10.545   4.542   4.500  0.00  0.00    -0.254 NA
ATOM     19  C   UNL     1      10.661   5.282   2.201  0.00  0.00    +0.041 A 
ATOM     20  C   UNL     1      10.090   6.498   2.556  0.00  0.00    +0.015 A 
ATOM     21  C   UNL     1      10.866   4.345   3.202  0.00  0.00    +0.123 A 
ATOM     22  C   UNL     1       9.746   6.739   3.882  0.00  0.00    +0.029 A 
ATOM     23  C   UNL     1       9.991   5.737   4.807  0.00  0.00    +0.071 A 
BRANCH  23  24
ATOM      7  N   UNL     1       9.022   6.266   8.900  0.00  0.00    -0.263 NA
ATOM     24  C   UNL     1       9.661   5.916   6.200  0.00  0.00    +0.003 A 
ATOM     25  C   UNL     1       9.872   4.883   7.108  0.00  0.00    +0.030 A 
ATOM     26  C   UNL     1       9.131   7.124   6.642  0.00  0.00    +0.030 A 
ATOM     27  C   UNL     1       9.540   5.107   8.434  0.00  0.00    +0.111 A 
ATOM     28  C   UNL     1       8.831   7.247   7.988  0.00  0.00    +0.111 A 
ENDBRANCH  23  24
ENDBRANCH  18  19
BRANCH  17   9
ATOM      3  N   UNL     1      10.672   4.149  -3.486  0.00  0.00    -0.288 NA
ATOM      9  C   UNL     1      10.848   3.303  -2.290  0.00  0.00    +0.146 C 
ATOM     10  C   UNL     1      11.195   3.381  -4.616  0.00  0.00    +0.085 C 
ATOM     11  C   UNL     1      12.064   2.416  -2.614  0.00  0.00    +0.030 C 
ATOM     12  C   UNL     1      12.463   2.792  -4.034  0.00  0.00    +0.017 C 
BRANCH   3   8
ATOM      1  O   UNL     1       7.425   6.542  -4.654  0.00  0.00    -0.380 OA
ATOM      8  C   UNL     1       9.287   4.565  -3.699  0.00  0.00    +0.062 C 
ATOM     13  C   UNL     1       8.992   4.763  -5.188  0.00  0.00    +0.047 C 
ATOM     14  C   UNL     1       8.996   5.857  -2.930  0.00  0.00    +0.047 C 
ATOM     15  C   UNL     1       7.588   5.323  -5.382  0.00  0.00    +0.161 C 
ATOM     16  C   UNL     1       7.591   6.358  -3.249  0.00  0.00    +0.161 C 
ENDBRANCH   3   8
ENDBRANCH  17   9
TORSDOF 4
ENDMDL
MODEL 9
REMARK VINA RESULT:      -6.3     27.219     30.691
REMARK  Name = 51136963
REMARK  4 active torsions:
REMARK  status: ('A' for Active; 'I' for Inactive)
REMARK    1  A    between atoms: N_3  and  C_8
REMARK    2  A    between atoms: C_9  and  C_17
REMARK    3  A    between atoms: C_18  and  C_19
REMARK    4  A    between atoms: C_23  and  C_24
REMARK                            x       y       z     vdW  Elec       q    Type
REMARK                         _______ _______ _______ _____ _____    ______ ____
ROOT
ATOM      2  O   UNL     1      -5.752 -10.393   5.947  0.00  0.00    -0.336 OA
ATOM      4  N   UNL     1      -6.704  -9.633   7.827  0.00  0.00    -0.190 NA
ATOM      5  N   UNL     1      -4.844 -10.660   6.979  0.00  0.00    -0.056 NA
ATOM     17  C   UNL     1      -6.818  -9.787   6.532  0.00  0.00    +0.245 A 
ATOM     18  C   UNL     1      -5.476 -10.184   8.056  0.00  0.00    +0.204 A 
ENDROOT
BRANCH  18  19
ATOM      6  N   UNL     1      -5.071 -11.019  11.656  0.00  0.00    -0.254 NA
ATOM     19  C   UNL     1      -4.910 -10.242   9.373  0.00  0.00    +0.041 A 
ATOM     20  C   UNL     1      -3.706  -9.613   9.663  0.00  0.00    +0.015 A 
ATOM     21  C   UNL     1      -5.548 -10.926  10.395  0.00  0.00    +0.123 A 
ATOM     22  C   UNL     1      -3.181  -9.686  10.949  0.00  0.00    +0.029 A 
ATOM     23  C   UNL     1      -3.897 -10.395  11.901  0.00  0.00    +0.071 A 
BRANCH  23  24
ATOM      7  N   UNL     1      -2.475 -10.745  15.880  0.00  0.00    -0.263 NA
ATOM     24  C   UNL     1      -3.413 -10.514  13.256  0.00  0.00    +0.003 A 
ATOM     25  C   UNL     1      -4.310 -10.686  14.306  0.00  0.00    +0.030 A 
ATOM     26  C   UNL     1      -2.048 -10.458  13.517  0.00  0.00    +0.030 A 
ATOM     27  C   UNL     1      -3.795 -10.796  15.587  0.00  0.00    +0.111 A 
ATOM     28  C   UNL     1      -1.635 -10.577  14.834  0.00  0.00    +0.111 A 
ENDBRANCH  23  24
ENDBRANCH  18  19
BRANCH  17   9
ATOM      3  N   UNL     1      -8.229  -7.941   5.642  0.00  0.00    -0.288 NA
ATOM      9  C   UNL     1      -7.956  -9.391   5.615  0.00  0.00    +0.146 C 
ATOM     10  C   UNL     1      -8.763  -7.596   4.324  0.00  0.00    +0.085 C 
ATOM     11  C   UNL     1      -7.664  -9.706   4.136  0.00  0.00    +0.030 C 
ATOM     12  C   UNL     1      -7.858  -8.386   3.403  0.00  0.00    +0.017 C 
BRANCH   3   8
ATOM      1  O   UNL     1     -10.707  -5.498   7.993  0.00  0.00    -0.380 OA
ATOM      8  C   UNL     1      -9.131  -7.544   6.722  0.00  0.00    +0.062 C 
ATOM     13  C   UNL     1     -10.486  -7.090   6.171  0.00  0.00    +0.047 C 
ATOM     14  C   UNL     1      -8.503  -6.425   7.557  0.00  0.00    +0.047 C 
ATOM     15  C   UNL     1     -11.365  -6.557   7.296  0.00  0.00    +0.161 C 
ATOM     16  C   UNL     1      -9.491  -5.928   8.606  0.00  0.00    +0.161 C 
ENDBRANCH   3   8
ENDBRANCH  17   9
TORSDOF 4
ENDMDL
MODEL 10
REMARK VINA RESULT:      -6.3     26.491     30.536
REMARK  Name = 51136963
REMARK  4 active torsions:
REMARK  status: ('A' for Active; 'I' for Inactive)
REMARK    1  A    between atoms: N_3  and  C_8
REMARK    2  A    between atoms: C_9  and  C_17
REMARK    3  A    between atoms: C_18  and  C_19
REMARK    4  A    between atoms: C_23  and  C_24
REMARK                            x       y       z     vdW  Elec       q    Type
REMARK                         _______ _______ _______ _____ _____    ______ ____
ROOT
ATOM      2  O   UNL     1      -2.947 -12.280  12.846  0.00  0.00    -0.336 OA
ATOM      4  N   UNL     1      -3.767 -10.407  11.932  0.00  0.00    -0.190 NA
ATOM      5  N   UNL     1      -3.319 -12.615  11.538  0.00  0.00    -0.056 NA
ATOM     17  C   UNL     1      -3.245 -10.964  12.996  0.00  0.00    +0.245 A 
ATOM     18  C   UNL     1      -3.793 -11.460  11.064  0.00  0.00    +0.204 A 
ENDROOT
BRANCH  18  19
ATOM      6  N   UNL     1      -4.844 -12.353   7.611  0.00  0.00    -0.254 NA
ATOM     19  C   UNL     1      -4.301 -11.322   9.729  0.00  0.00    +0.041 A 
ATOM     20  C   UNL     1      -4.732 -10.091   9.250  0.00  0.00    +0.015 A 
ATOM     21  C   UNL     1      -4.377 -12.413   8.877  0.00  0.00    +0.123 A 
ATOM     22  C   UNL     1      -5.220  -9.988   7.952  0.00  0.00    +0.029 A 
ATOM     23  C   UNL     1      -5.254 -11.139   7.179  0.00  0.00    +0.071 A 
BRANCH  23  24
ATOM      7  N   UNL     1      -6.708 -11.047   3.198  0.00  0.00    -0.263 NA
ATOM     24  C   UNL     1      -5.748 -11.108   5.824  0.00  0.00    +0.003 A 
ATOM     25  C   UNL     1      -5.325 -12.061   4.903  0.00  0.00    +0.030 A 
ATOM     26  C   UNL     1      -6.651 -10.125   5.432  0.00  0.00    +0.030 A 
ATOM     27  C   UNL     1      -5.830 -11.988   3.615  0.00  0.00    +0.111 A 
ATOM     28  C   UNL     1      -7.096 -10.138   4.121  0.00  0.00    +0.111 A 
ENDBRANCH  23  24
ENDBRANCH  18  19
BRANCH  17   9
ATOM      3  N   UNL     1      -3.148 -11.291  15.461  0.00  0.00    -0.288 NA
ATOM      9  C   UNL     1      -2.932 -10.350  14.344  0.00  0.00    +0.146 C 
ATOM     10  C   UNL     1      -2.210 -10.904  16.515  0.00  0.00    +0.085 C 
ATOM     11  C   UNL     1      -1.458  -9.922  14.474  0.00  0.00    +0.030 C 
ATOM     12  C   UNL     1      -0.949 -10.624  15.725  0.00  0.00    +0.017 C 
BRANCH   3   8
ATOM      1  O   UNL     1      -6.504 -10.407  17.824  0.00  0.00    -0.380 OA
ATOM      8  C   UNL     1      -4.530 -11.314  15.935  0.00  0.00    +0.062 C 
ATOM     13  C   UNL     1      -5.164  -9.922  15.856  0.00  0.00    +0.047 C 
ATOM     14  C   UNL     1      -4.591 -11.837  17.373  0.00  0.00    +0.047 C 
ATOM     15  C   UNL     1      -6.556  -9.937  16.477  0.00  0.00    +0.161 C 
ATOM     16  C   UNL     1      -6.015 -11.745  17.911  0.00  0.00    +0.161 C 
ENDBRANCH   3   8
ENDBRANCH  17   9
TORSDOF 4
ENDMDL
