MODEL 1
REMARK VINA RESULT:      -7.0      0.000      0.000
REMARK  Name = 75536597
REMARK  7 active torsions:
REMARK  status: ('A' for Active; 'I' for Inactive)
REMARK    1  A    between atoms: O_3  and  C_9
REMARK    2  A    between atoms: N_5  and  C_8
REMARK    3  A    between atoms: N_5  and  C_13
REMARK    4  A    between atoms: N_6  and  C_12
REMARK    5  A    between atoms: C_10  and  C_12
REMARK    6  A    between atoms: C_13  and  C_14
REMARK    7  A    between atoms: C_15  and  C_17
REMARK                            x       y       z     vdW  Elec       q    Type
REMARK                         _______ _______ _______ _____ _____    ______ ____
ROOT
ATOM      2  O   UNL     1      10.958   8.789  20.275  0.00  0.00    -0.371 OA
ATOM      8  C   UNL     1      12.352   6.955  19.700  0.00  0.00    +0.111 C 
ATOM      9  C   UNL     1      12.064   6.910  21.189  0.00  0.00    +0.164 C 
ATOM     10  C   UNL     1      10.807   7.763  21.270  0.00  0.00    +0.165 C 
ATOM     11  C   UNL     1      12.005   8.397  19.370  0.00  0.00    +0.181 C 
ENDROOT
BRANCH   9   3
ATOM      3  O   UNL     1      11.840   5.595  21.661  0.00  0.00    -0.388 OA
ATOM     25  H   UNL     1      12.599   5.044  21.405  0.00  0.00    +0.210 HD
ENDBRANCH   9   3
BRANCH   8   5
ATOM      5  N   UNL     1      13.724   6.610  19.360  0.00  0.00    -0.303 NA
ATOM     24  H   UNL     1      13.863   6.742  18.359  0.00  0.00    +0.123 HD
BRANCH   5  13
ATOM     13  C   UNL     1      14.670   7.451  20.083  0.00  0.00    +0.137 C 
BRANCH  13  14
ATOM      7  N   UNL     1      16.370   6.079  19.012  0.00  0.00    -0.259 NA
ATOM     14  C   UNL     1      16.061   6.877  20.060  0.00  0.00    +0.055 A 
ATOM     16  C   UNL     1      16.941   7.185  21.085  0.00  0.00    +0.024 A 
ATOM     18  C   UNL     1      18.219   6.639  21.033  0.00  0.00    +0.003 A 
ATOM     19  C   UNL     1      17.621   5.567  18.995  0.00  0.00    +0.111 A 
ATOM     21  C   UNL     1      18.573   5.814  19.971  0.00  0.00    +0.020 A 
ENDBRANCH  13  14
ENDBRANCH   5  13
ENDBRANCH   8   5
BRANCH  10  12
ATOM     12  C   UNL     1      10.598   8.398  22.634  0.00  0.00    +0.138 C 
BRANCH  12   6
ATOM      4  O   UNL     1      12.575  10.424  23.110  0.00  0.00    -0.270 OA
ATOM      6  N   UNL     1      10.413   9.816  22.527  0.00  0.00    -0.308 N 
ATOM     15  C   UNL     1      11.433  10.730  22.778  0.00  0.00    +0.251 C 
ATOM     26  H   UNL     1       9.488  10.141  22.269  0.00  0.00    +0.149 HD
BRANCH  15  17
ATOM      1  S   UNL     1      10.589  13.031  24.044  0.00  0.00    -0.092 S 
ATOM     17  C   UNL     1      11.073  12.165  22.649  0.00  0.00    +0.074 A 
ATOM     20  C   UNL     1      11.067  12.957  21.521  0.00  0.00    +0.021 A 
ATOM     22  C   UNL     1      10.659  14.291  21.807  0.00  0.00    +0.008 A 
ATOM     23  C   UNL     1      10.369  14.469  23.141  0.00  0.00    +0.046 A 
ENDBRANCH  15  17
ENDBRANCH  12   6
ENDBRANCH  10  12
TORSDOF 7
ENDMDL
MODEL 2
REMARK VINA RESULT:      -6.7      3.748      7.114
REMARK  Name = 75536597
REMARK  7 active torsions:
REMARK  status: ('A' for Active; 'I' for Inactive)
REMARK    1  A    between atoms: O_3  and  C_9
REMARK    2  A    between atoms: N_5  and  C_8
REMARK    3  A    between atoms: N_5  and  C_13
REMARK    4  A    between atoms: N_6  and  C_12
REMARK    5  A    between atoms: C_10  and  C_12
REMARK    6  A    between atoms: C_13  and  C_14
REMARK    7  A    between atoms: C_15  and  C_17
REMARK                            x       y       z     vdW  Elec       q    Type
REMARK                         _______ _______ _______ _____ _____    ______ ____
ROOT
ATOM      2  O   UNL     1      13.026   9.244  21.935  0.00  0.00    -0.371 OA
ATOM      8  C   UNL     1      12.476   7.246  20.775  0.00  0.00    +0.111 C 
ATOM      9  C   UNL     1      13.986   7.346  20.901  0.00  0.00    +0.164 C 
ATOM     10  C   UNL     1      14.119   8.319  22.064  0.00  0.00    +0.165 C 
ATOM     11  C   UNL     1      12.058   8.684  21.031  0.00  0.00    +0.181 C 
ENDROOT
BRANCH   9   3
ATOM      3  O   UNL     1      14.593   6.099  21.184  0.00  0.00    -0.388 OA
ATOM     25  H   UNL     1      15.194   5.879  20.453  0.00  0.00    +0.210 HD
ENDBRANCH   9   3
BRANCH   8   5
ATOM      5  N   UNL     1      12.031   6.747  19.484  0.00  0.00    -0.303 NA
ATOM     24  H   UNL     1      11.134   7.172  19.253  0.00  0.00    +0.123 HD
BRANCH   5  13
ATOM     13  C   UNL     1      12.991   7.073  18.436  0.00  0.00    +0.137 C 
BRANCH  13  14
ATOM      7  N   UNL     1      11.047   7.837  17.187  0.00  0.00    -0.259 NA
ATOM     14  C   UNL     1      12.382   7.947  17.372  0.00  0.00    +0.055 A 
ATOM     16  C   UNL     1      13.196   8.804  16.649  0.00  0.00    +0.024 A 
ATOM     18  C   UNL     1      12.603   9.598  15.674  0.00  0.00    +0.003 A 
ATOM     19  C   UNL     1      10.505   8.625  16.231  0.00  0.00    +0.111 A 
ATOM     21  C   UNL     1      11.232   9.512  15.455  0.00  0.00    +0.020 A 
ENDBRANCH  13  14
ENDBRANCH   5  13
ENDBRANCH   8   5
BRANCH  10  12
ATOM     12  C   UNL     1      15.435   9.076  22.066  0.00  0.00    +0.138 C 
BRANCH  12   6
ATOM      4  O   UNL     1      18.006   9.667  20.934  0.00  0.00    -0.270 OA
ATOM      6  N   UNL     1      16.552   8.181  21.964  0.00  0.00    -0.308 N 
ATOM     15  C   UNL     1      17.767   8.555  21.397  0.00  0.00    +0.251 C 
ATOM     26  H   UNL     1      16.420   7.239  22.315  0.00  0.00    +0.149 HD
BRANCH  15  17
ATOM      1  S   UNL     1      20.083   7.533  22.493  0.00  0.00    -0.092 S 
ATOM     17  C   UNL     1      18.815   7.505  21.342  0.00  0.00    +0.074 A 
ATOM     20  C   UNL     1      18.938   6.451  20.463  0.00  0.00    +0.021 A 
ATOM     22  C   UNL     1      20.088   5.656  20.739  0.00  0.00    +0.008 A 
ATOM     23  C   UNL     1      20.800   6.132  21.817  0.00  0.00    +0.046 A 
ENDBRANCH  15  17
ENDBRANCH  12   6
ENDBRANCH  10  12
TORSDOF 7
ENDMDL
MODEL 3
REMARK VINA RESULT:      -6.7      1.760      2.278
REMARK  Name = 75536597
REMARK  7 active torsions:
REMARK  status: ('A' for Active; 'I' for Inactive)
REMARK    1  A    between atoms: O_3  and  C_9
REMARK    2  A    between atoms: N_5  and  C_8
REMARK    3  A    between atoms: N_5  and  C_13
REMARK    4  A    between atoms: N_6  and  C_12
REMARK    5  A    between atoms: C_10  and  C_12
REMARK    6  A    between atoms: C_13  and  C_14
REMARK    7  A    between atoms: C_15  and  C_17
REMARK                            x       y       z     vdW  Elec       q    Type
REMARK                         _______ _______ _______ _____ _____    ______ ____
ROOT
ATOM      2  O   UNL     1      11.129   8.809  20.029  0.00  0.00    -0.371 OA
ATOM      8  C   UNL     1      12.548   6.938  19.672  0.00  0.00    +0.111 C 
ATOM      9  C   UNL     1      12.133   6.974  21.132  0.00  0.00    +0.164 C 
ATOM     10  C   UNL     1      10.882   7.838  21.060  0.00  0.00    +0.165 C 
ATOM     11  C   UNL     1      12.245   8.363  19.239  0.00  0.00    +0.181 C 
ENDROOT
BRANCH   9   3
ATOM      3  O   UNL     1      11.857   5.687  21.651  0.00  0.00    -0.388 OA
ATOM     25  H   UNL     1      11.465   5.792  22.535  0.00  0.00    +0.210 HD
ENDBRANCH   9   3
BRANCH   8   5
ATOM      5  N   UNL     1      13.940   6.568  19.471  0.00  0.00    -0.303 NA
ATOM     24  H   UNL     1      14.043   6.145  18.549  0.00  0.00    +0.123 HD
BRANCH   5  13
ATOM     13  C   UNL     1      14.810   7.735  19.554  0.00  0.00    +0.137 C 
BRANCH  13  14
ATOM      7  N   UNL     1      16.794   8.131  20.906  0.00  0.00    -0.259 NA
ATOM     14  C   UNL     1      16.211   7.361  19.959  0.00  0.00    +0.055 A 
ATOM     16  C   UNL     1      16.823   6.271  19.362  0.00  0.00    +0.024 A 
ATOM     18  C   UNL     1      18.117   5.952  19.760  0.00  0.00    +0.003 A 
ATOM     19  C   UNL     1      18.051   7.790  21.268  0.00  0.00    +0.111 A 
ATOM     21  C   UNL     1      18.749   6.721  20.731  0.00  0.00    +0.020 A 
ENDBRANCH  13  14
ENDBRANCH   5  13
ENDBRANCH   8   5
BRANCH  10  12
ATOM     12  C   UNL     1      10.565   8.545  22.366  0.00  0.00    +0.138 C 
BRANCH  12   6
ATOM      4  O   UNL     1      10.974  11.386  22.330  0.00  0.00    -0.270 OA
ATOM      6  N   UNL     1      11.707   9.252  22.868  0.00  0.00    -0.308 N 
ATOM     15  C   UNL     1      11.821  10.638  22.809  0.00  0.00    +0.251 C 
ATOM     26  H   UNL     1      12.455   8.694  23.266  0.00  0.00    +0.149 HD
BRANCH  15  17
ATOM      1  S   UNL     1      12.988  12.472  24.508  0.00  0.00    -0.092 S 
ATOM     17  C   UNL     1      13.079  11.216  23.349  0.00  0.00    +0.074 A 
ATOM     20  C   UNL     1      14.382  10.882  23.049  0.00  0.00    +0.021 A 
ATOM     22  C   UNL     1      15.317  11.670  23.780  0.00  0.00    +0.008 A 
ATOM     23  C   UNL     1      14.694  12.574  24.612  0.00  0.00    +0.046 A 
ENDBRANCH  15  17
ENDBRANCH  12   6
ENDBRANCH  10  12
TORSDOF 7
ENDMDL
MODEL 4
REMARK VINA RESULT:      -6.7      2.867      7.499
REMARK  Name = 75536597
REMARK  7 active torsions:
REMARK  status: ('A' for Active; 'I' for Inactive)
REMARK    1  A    between atoms: O_3  and  C_9
REMARK    2  A    between atoms: N_5  and  C_8
REMARK    3  A    between atoms: N_5  and  C_13
REMARK    4  A    between atoms: N_6  and  C_12
REMARK    5  A    between atoms: C_10  and  C_12
REMARK    6  A    between atoms: C_13  and  C_14
REMARK    7  A    between atoms: C_15  and  C_17
REMARK                            x       y       z     vdW  Elec       q    Type
REMARK                         _______ _______ _______ _____ _____    ______ ____
ROOT
ATOM      2  O   UNL     1      12.762   6.655  21.020  0.00  0.00    -0.371 OA
ATOM      8  C   UNL     1      10.860   8.054  21.277  0.00  0.00    +0.111 C 
ATOM      9  C   UNL     1      11.513   8.347  19.939  0.00  0.00    +0.164 C 
ATOM     10  C   UNL     1      12.316   7.072  19.719  0.00  0.00    +0.165 C 
ATOM     11  C   UNL     1      11.988   7.349  22.014  0.00  0.00    +0.181 C 
ENDROOT
BRANCH   9   3
ATOM      3  O   UNL     1      10.568   8.560  18.907  0.00  0.00    -0.388 OA
ATOM     25  H   UNL     1      10.219   7.696  18.629  0.00  0.00    +0.210 HD
ENDBRANCH   9   3
BRANCH   8   5
ATOM      5  N   UNL     1      10.388   9.243  21.968  0.00  0.00    -0.303 NA
ATOM     24  H   UNL     1      10.152   8.999  22.930  0.00  0.00    +0.123 HD
BRANCH   5  13
ATOM     13  C   UNL     1      11.410  10.282  21.983  0.00  0.00    +0.137 C 
BRANCH  13  14
ATOM      7  N   UNL     1      10.773  12.578  22.475  0.00  0.00    -0.259 NA
ATOM     14  C   UNL     1      11.094  11.365  22.980  0.00  0.00    +0.055 A 
ATOM     16  C   UNL     1      11.143  11.077  24.334  0.00  0.00    +0.024 A 
ATOM     18  C   UNL     1      10.844  12.099  25.229  0.00  0.00    +0.003 A 
ATOM     19  C   UNL     1      10.488  13.547  23.375  0.00  0.00    +0.111 A 
ATOM     21  C   UNL     1      10.510  13.360  24.747  0.00  0.00    +0.020 A 
ENDBRANCH  13  14
ENDBRANCH   5  13
ENDBRANCH   8   5
BRANCH  10  12
ATOM     12  C   UNL     1      13.511   7.266  18.804  0.00  0.00    +0.138 C 
BRANCH  12   6
ATOM      4  O   UNL     1      16.057   5.951  18.623  0.00  0.00    -0.270 OA
ATOM      6  N   UNL     1      14.694   7.584  19.550  0.00  0.00    -0.308 N 
ATOM     15  C   UNL     1      15.891   6.890  19.397  0.00  0.00    +0.251 C 
ATOM     26  H   UNL     1      14.625   8.342  20.220  0.00  0.00    +0.149 HD
BRANCH  15  17
ATOM      1  S   UNL     1      18.401   6.327  20.393  0.00  0.00    -0.092 S 
ATOM     17  C   UNL     1      17.017   7.325  20.263  0.00  0.00    +0.074 A 
ATOM     20  C   UNL     1      17.131   8.470  21.021  0.00  0.00    +0.021 A 
ATOM     22  C   UNL     1      18.372   8.527  21.718  0.00  0.00    +0.008 A 
ATOM     23  C   UNL     1      19.159   7.425  21.466  0.00  0.00    +0.046 A 
ENDBRANCH  15  17
ENDBRANCH  12   6
ENDBRANCH  10  12
TORSDOF 7
ENDMDL
MODEL 5
REMARK VINA RESULT:      -6.4      1.698      2.223
REMARK  Name = 75536597
REMARK  7 active torsions:
REMARK  status: ('A' for Active; 'I' for Inactive)
REMARK    1  A    between atoms: O_3  and  C_9
REMARK    2  A    between atoms: N_5  and  C_8
REMARK    3  A    between atoms: N_5  and  C_13
REMARK    4  A    between atoms: N_6  and  C_12
REMARK    5  A    between atoms: C_10  and  C_12
REMARK    6  A    between atoms: C_13  and  C_14
REMARK    7  A    between atoms: C_15  and  C_17
REMARK                            x       y       z     vdW  Elec       q    Type
REMARK                         _______ _______ _______ _____ _____    ______ ____
ROOT
ATOM      2  O   UNL     1      10.543   8.086  20.856  0.00  0.00    -0.371 OA
ATOM      8  C   UNL     1      12.719   8.700  20.129  0.00  0.00    +0.111 C 
ATOM      9  C   UNL     1      12.516   9.190  21.551  0.00  0.00    +0.164 C 
ATOM     10  C   UNL     1      11.375   8.293  22.010  0.00  0.00    +0.165 C 
ATOM     11  C   UNL     1      11.285   8.466  19.683  0.00  0.00    +0.181 C 
ENDROOT
BRANCH   9   3
ATOM      3  O   UNL     1      13.669   9.029  22.353  0.00  0.00    -0.388 OA
ATOM     25  H   UNL     1      13.594   9.621  23.120  0.00  0.00    +0.210 HD
ENDBRANCH   9   3
BRANCH   8   5
ATOM      5  N   UNL     1      13.429   9.645  19.282  0.00  0.00    -0.303 NA
ATOM     24  H   UNL     1      13.882  10.345  19.869  0.00  0.00    +0.123 HD
BRANCH   5  13
ATOM     13  C   UNL     1      14.444   8.973  18.480  0.00  0.00    +0.137 C 
BRANCH  13  14
ATOM      7  N   UNL     1      16.041   8.920  20.316  0.00  0.00    -0.259 NA
ATOM     14  C   UNL     1      15.425   8.218  19.338  0.00  0.00    +0.055 A 
ATOM     16  C   UNL     1      15.645   6.872  19.094  0.00  0.00    +0.024 A 
ATOM     18  C   UNL     1      16.556   6.203  19.904  0.00  0.00    +0.003 A 
ATOM     19  C   UNL     1      16.919   8.237  21.084  0.00  0.00    +0.111 A 
ATOM     21  C   UNL     1      17.209   6.893  20.921  0.00  0.00    +0.020 A 
ENDBRANCH  13  14
ENDBRANCH   5  13
ENDBRANCH   8   5
BRANCH  10  12
ATOM     12  C   UNL     1      10.552   8.896  23.134  0.00  0.00    +0.138 C 
BRANCH  12   6
ATOM      4  O   UNL     1      11.148  10.718  25.271  0.00  0.00    -0.270 OA
ATOM      6  N   UNL     1      10.543  10.328  23.065  0.00  0.00    -0.308 N 
ATOM     15  C   UNL     1      10.846  11.137  24.157  0.00  0.00    +0.251 C 
ATOM     26  H   UNL     1      10.289  10.744  22.176  0.00  0.00    +0.149 HD
BRANCH  15  17
ATOM      1  S   UNL     1      10.948  13.209  22.338  0.00  0.00    -0.092 S 
ATOM     17  C   UNL     1      10.767  12.603  23.929  0.00  0.00    +0.074 A 
ATOM     20  C   UNL     1      10.558  13.610  24.846  0.00  0.00    +0.021 A 
ATOM     22  C   UNL     1      10.547  14.896  24.233  0.00  0.00    +0.008 A 
ATOM     23  C   UNL     1      10.747  14.824  22.873  0.00  0.00    +0.046 A 
ENDBRANCH  15  17
ENDBRANCH  12   6
ENDBRANCH  10  12
TORSDOF 7
ENDMDL
MODEL 6
REMARK VINA RESULT:      -6.3      2.987      5.991
REMARK  Name = 75536597
REMARK  7 active torsions:
REMARK  status: ('A' for Active; 'I' for Inactive)
REMARK    1  A    between atoms: O_3  and  C_9
REMARK    2  A    between atoms: N_5  and  C_8
REMARK    3  A    between atoms: N_5  and  C_13
REMARK    4  A    between atoms: N_6  and  C_12
REMARK    5  A    between atoms: C_10  and  C_12
REMARK    6  A    between atoms: C_13  and  C_14
REMARK    7  A    between atoms: C_15  and  C_17
REMARK                            x       y       z     vdW  Elec       q    Type
REMARK                         _______ _______ _______ _____ _____    ______ ____
ROOT
ATOM      2  O   UNL     1      13.055   6.828  20.622  0.00  0.00    -0.371 OA
ATOM      8  C   UNL     1      10.894   7.694  21.094  0.00  0.00    +0.111 C 
ATOM      9  C   UNL     1      11.421   8.341  19.826  0.00  0.00    +0.164 C 
ATOM     10  C   UNL     1      12.485   7.337  19.405  0.00  0.00    +0.165 C 
ATOM     11  C   UNL     1      12.175   7.157  21.711  0.00  0.00    +0.181 C 
ENDROOT
BRANCH   9   3
ATOM      3  O   UNL     1      10.421   8.496  18.837  0.00  0.00    -0.388 OA
ATOM     25  H   UNL     1       9.674   7.916  19.063  0.00  0.00    +0.210 HD
ENDBRANCH   9   3
BRANCH   8   5
ATOM      5  N   UNL     1      10.186   8.616  21.968  0.00  0.00    -0.303 NA
ATOM     24  H   UNL     1       9.453   8.110  22.464  0.00  0.00    +0.123 HD
BRANCH   5  13
ATOM     13  C   UNL     1      11.090   9.213  22.943  0.00  0.00    +0.137 C 
BRANCH  13  14
ATOM      7  N   UNL     1      10.572  11.300  24.082  0.00  0.00    -0.259 NA
ATOM     14  C   UNL     1      11.004  10.716  22.941  0.00  0.00    +0.055 A 
ATOM     16  C   UNL     1      11.363  11.415  21.800  0.00  0.00    +0.024 A 
ATOM     18  C   UNL     1      11.273  12.803  21.831  0.00  0.00    +0.003 A 
ATOM     19  C   UNL     1      10.498  12.650  24.075  0.00  0.00    +0.111 A 
ATOM     21  C   UNL     1      10.833  13.439  22.987  0.00  0.00    +0.020 A 
ENDBRANCH  13  14
ENDBRANCH   5  13
ENDBRANCH   8   5
BRANCH  10  12
ATOM     12  C   UNL     1      13.576   7.945  18.542  0.00  0.00    +0.138 C 
BRANCH  12   6
ATOM      4  O   UNL     1      15.313   9.615  20.101  0.00  0.00    -0.270 OA
ATOM      6  N   UNL     1      13.555   9.377  18.605  0.00  0.00    -0.308 N 
ATOM     15  C   UNL     1      14.440  10.109  19.393  0.00  0.00    +0.251 C 
ATOM     26  H   UNL     1      12.849   9.852  18.055  0.00  0.00    +0.149 HD
BRANCH  15  17
ATOM      1  S   UNL     1      14.986  12.524  20.610  0.00  0.00    -0.092 S 
ATOM     17  C   UNL     1      14.272  11.585  19.369  0.00  0.00    +0.074 A 
ATOM     20  C   UNL     1      13.594  12.363  18.456  0.00  0.00    +0.021 A 
ATOM     22  C   UNL     1      13.662  13.748  18.780  0.00  0.00    +0.008 A 
ATOM     23  C   UNL     1      14.389  13.977  19.927  0.00  0.00    +0.046 A 
ENDBRANCH  15  17
ENDBRANCH  12   6
ENDBRANCH  10  12
TORSDOF 7
ENDMDL
MODEL 7
REMARK VINA RESULT:      -6.3      2.177      2.455
REMARK  Name = 75536597
REMARK  7 active torsions:
REMARK  status: ('A' for Active; 'I' for Inactive)
REMARK    1  A    between atoms: O_3  and  C_9
REMARK    2  A    between atoms: N_5  and  C_8
REMARK    3  A    between atoms: N_5  and  C_13
REMARK    4  A    between atoms: N_6  and  C_12
REMARK    5  A    between atoms: C_10  and  C_12
REMARK    6  A    between atoms: C_13  and  C_14
REMARK    7  A    between atoms: C_15  and  C_17
REMARK                            x       y       z     vdW  Elec       q    Type
REMARK                         _______ _______ _______ _____ _____    ______ ____
ROOT
ATOM      2  O   UNL     1      12.347  10.476  21.117  0.00  0.00    -0.371 OA
ATOM      8  C   UNL     1      12.589   8.574  19.715  0.00  0.00    +0.111 C 
ATOM      9  C   UNL     1      11.716   8.207  20.901  0.00  0.00    +0.164 C 
ATOM     10  C   UNL     1      11.248   9.582  21.357  0.00  0.00    +0.165 C 
ATOM     11  C   UNL     1      13.273   9.833  20.223  0.00  0.00    +0.181 C 
ENDROOT
BRANCH   9   3
ATOM      3  O   UNL     1      10.632   7.373  20.542  0.00  0.00    -0.388 OA
ATOM     25  H   UNL     1      10.411   6.813  21.305  0.00  0.00    +0.210 HD
ENDBRANCH   9   3
BRANCH   8   5
ATOM      5  N   UNL     1      13.529   7.531  19.338  0.00  0.00    -0.303 NA
ATOM     24  H   UNL     1      14.267   7.938  18.765  0.00  0.00    +0.123 HD
BRANCH   5  13
ATOM     13  C   UNL     1      14.131   6.917  20.516  0.00  0.00    +0.137 C 
BRANCH  13  14
ATOM      7  N   UNL     1      15.935   6.108  19.096  0.00  0.00    -0.259 NA
ATOM     14  C   UNL     1      15.590   6.611  20.304  0.00  0.00    +0.055 A 
ATOM     16  C   UNL     1      16.491   6.854  21.328  0.00  0.00    +0.024 A 
ATOM     18  C   UNL     1      17.831   6.562  21.099  0.00  0.00    +0.003 A 
ATOM     19  C   UNL     1      17.246   5.837  18.910  0.00  0.00    +0.111 A 
ATOM     21  C   UNL     1      18.224   6.043  19.870  0.00  0.00    +0.020 A 
ENDBRANCH  13  14
ENDBRANCH   5  13
ENDBRANCH   8   5
BRANCH  10  12
ATOM     12  C   UNL     1      10.859   9.628  22.824  0.00  0.00    +0.138 C 
BRANCH  12   6
ATOM      4  O   UNL     1      10.246  11.886  24.488  0.00  0.00    -0.270 OA
ATOM      6  N   UNL     1      11.791  10.408  23.587  0.00  0.00    -0.308 N 
ATOM     15  C   UNL     1      11.402  11.491  24.370  0.00  0.00    +0.251 C 
ATOM     26  H   UNL     1      12.768  10.146  23.525  0.00  0.00    +0.149 HD
BRANCH  15  17
ATOM      1  S   UNL     1      12.181  13.767  25.720  0.00  0.00    -0.092 S 
ATOM     17  C   UNL     1      12.492  12.211  25.078  0.00  0.00    +0.074 A 
ATOM     20  C   UNL     1      13.787  11.803  25.315  0.00  0.00    +0.021 A 
ATOM     22  C   UNL     1      14.532  12.782  26.032  0.00  0.00    +0.008 A 
ATOM     23  C   UNL     1      13.781  13.900  26.318  0.00  0.00    +0.046 A 
ENDBRANCH  15  17
ENDBRANCH  12   6
ENDBRANCH  10  12
TORSDOF 7
ENDMDL
MODEL 8
REMARK VINA RESULT:      -6.3      5.491     10.211
REMARK  Name = 75536597
REMARK  7 active torsions:
REMARK  status: ('A' for Active; 'I' for Inactive)
REMARK    1  A    between atoms: O_3  and  C_9
REMARK    2  A    between atoms: N_5  and  C_8
REMARK    3  A    between atoms: N_5  and  C_13
REMARK    4  A    between atoms: N_6  and  C_12
REMARK    5  A    between atoms: C_10  and  C_12
REMARK    6  A    between atoms: C_13  and  C_14
REMARK    7  A    between atoms: C_15  and  C_17
REMARK                            x       y       z     vdW  Elec       q    Type
REMARK                         _______ _______ _______ _____ _____    ______ ____
ROOT
ATOM      2  O   UNL     1      17.930   6.573  21.642  0.00  0.00    -0.371 OA
ATOM      8  C   UNL     1      16.289   6.250  19.955  0.00  0.00    +0.111 C 
ATOM      9  C   UNL     1      17.666   6.221  19.318  0.00  0.00    +0.164 C 
ATOM     10  C   UNL     1      18.540   5.906  20.524  0.00  0.00    +0.165 C 
ATOM     11  C   UNL     1      16.585   6.933  21.280  0.00  0.00    +0.181 C 
ENDROOT
BRANCH   9   3
ATOM      3  O   UNL     1      17.780   5.233  18.312  0.00  0.00    -0.388 OA
ATOM     25  H   UNL     1      17.500   4.381  18.686  0.00  0.00    +0.210 HD
ENDBRANCH   9   3
BRANCH   8   5
ATOM      5  N   UNL     1      15.295   6.956  19.162  0.00  0.00    -0.303 NA
ATOM     24  H   UNL     1      14.470   6.366  19.058  0.00  0.00    +0.123 HD
BRANCH   5  13
ATOM     13  C   UNL     1      14.903   8.205  19.804  0.00  0.00    +0.137 C 
BRANCH  13  14
ATOM      7  N   UNL     1      13.129   7.882  21.438  0.00  0.00    -0.259 NA
ATOM     14  C   UNL     1      13.442   8.215  20.165  0.00  0.00    +0.055 A 
ATOM     16  C   UNL     1      12.506   8.558  19.203  0.00  0.00    +0.024 A 
ATOM     18  C   UNL     1      11.165   8.559  19.568  0.00  0.00    +0.003 A 
ATOM     19  C   UNL     1      11.816   7.894  21.758  0.00  0.00    +0.111 A 
ATOM     21  C   UNL     1      10.805   8.221  20.869  0.00  0.00    +0.020 A 
ENDBRANCH  13  14
ENDBRANCH   5  13
ENDBRANCH   8   5
BRANCH  10  12
ATOM     12  C   UNL     1      19.975   6.378  20.366  0.00  0.00    +0.138 C 
BRANCH  12   6
ATOM      4  O   UNL     1      22.749   6.469  21.096  0.00  0.00    -0.270 OA
ATOM      6  N   UNL     1      20.892   5.276  20.382  0.00  0.00    -0.308 N 
ATOM     15  C   UNL     1      22.227   5.413  20.752  0.00  0.00    +0.251 C 
ATOM     26  H   UNL     1      20.531   4.373  20.096  0.00  0.00    +0.149 HD
BRANCH  15  17
ATOM      1  S   UNL     1      24.589   4.242  19.937  0.00  0.00    -0.092 S 
ATOM     17  C   UNL     1      23.053   4.180  20.692  0.00  0.00    +0.074 A 
ATOM     20  C   UNL     1      22.765   2.921  21.174  0.00  0.00    +0.021 A 
ATOM     22  C   UNL     1      23.818   1.997  20.920  0.00  0.00    +0.008 A 
ATOM     23  C   UNL     1      24.872   2.583  20.254  0.00  0.00    +0.046 A 
ENDBRANCH  15  17
ENDBRANCH  12   6
ENDBRANCH  10  12
TORSDOF 7
ENDMDL
MODEL 9
REMARK VINA RESULT:      -6.1      3.032      3.851
REMARK  Name = 75536597
REMARK  7 active torsions:
REMARK  status: ('A' for Active; 'I' for Inactive)
REMARK    1  A    between atoms: O_3  and  C_9
REMARK    2  A    between atoms: N_5  and  C_8
REMARK    3  A    between atoms: N_5  and  C_13
REMARK    4  A    between atoms: N_6  and  C_12
REMARK    5  A    between atoms: C_10  and  C_12
REMARK    6  A    between atoms: C_13  and  C_14
REMARK    7  A    between atoms: C_15  and  C_17
REMARK                            x       y       z     vdW  Elec       q    Type
REMARK                         _______ _______ _______ _____ _____    ______ ____
ROOT
ATOM      2  O   UNL     1      10.503   8.403  19.908  0.00  0.00    -0.371 OA
ATOM      8  C   UNL     1      12.514   7.368  19.185  0.00  0.00    +0.111 C 
ATOM      9  C   UNL     1      12.499   7.416  20.702  0.00  0.00    +0.164 C 
ATOM     10  C   UNL     1      11.012   7.586  20.976  0.00  0.00    +0.165 C 
ATOM     11  C   UNL     1      11.467   8.415  18.842  0.00  0.00    +0.181 C 
ENDROOT
BRANCH   9   3
ATOM      3  O   UNL     1      13.012   6.235  21.290  0.00  0.00    -0.388 OA
ATOM     25  H   UNL     1      13.930   6.403  21.563  0.00  0.00    +0.210 HD
ENDBRANCH   9   3
BRANCH   8   5
ATOM      5  N   UNL     1      13.816   7.657  18.606  0.00  0.00    -0.303 NA
ATOM     24  H   UNL     1      13.731   7.685  17.590  0.00  0.00    +0.123 HD
BRANCH   5  13
ATOM     13  C   UNL     1      14.325   8.941  19.072  0.00  0.00    +0.137 C 
BRANCH  13  14
ATOM      7  N   UNL     1      14.294   9.436  16.690  0.00  0.00    -0.259 NA
ATOM     14  C   UNL     1      14.570   9.894  17.933  0.00  0.00    +0.055 A 
ATOM     16  C   UNL     1      15.053  11.164  18.201  0.00  0.00    +0.024 A 
ATOM     18  C   UNL     1      15.268  12.020  17.127  0.00  0.00    +0.003 A 
ATOM     19  C   UNL     1      14.514  10.296  15.670  0.00  0.00    +0.111 A 
ATOM     21  C   UNL     1      14.996  11.585  15.834  0.00  0.00    +0.020 A 
ENDBRANCH  13  14
ENDBRANCH   5  13
ENDBRANCH   8   5
BRANCH  10  12
ATOM     12  C   UNL     1      10.718   8.245  22.312  0.00  0.00    +0.138 C 
BRANCH  12   6
ATOM      4  O   UNL     1      11.012  11.092  22.099  0.00  0.00    -0.270 OA
ATOM      6  N   UNL     1      11.832   9.026  22.765  0.00  0.00    -0.308 N 
ATOM     15  C   UNL     1      11.890  10.410  22.620  0.00  0.00    +0.251 C 
ATOM     26  H   UNL     1      12.602   8.525  23.193  0.00  0.00    +0.149 HD
BRANCH  15  17
ATOM      1  S   UNL     1      14.646  10.517  22.562  0.00  0.00    -0.092 S 
ATOM     17  C   UNL     1      13.124  11.070  23.117  0.00  0.00    +0.074 A 
ATOM     20  C   UNL     1      13.246  12.116  24.006  0.00  0.00    +0.021 A 
ATOM     22  C   UNL     1      14.608  12.468  24.233  0.00  0.00    +0.008 A 
ATOM     23  C   UNL     1      15.474  11.678  23.510  0.00  0.00    +0.046 A 
ENDBRANCH  15  17
ENDBRANCH  12   6
ENDBRANCH  10  12
TORSDOF 7
ENDMDL
MODEL 10
REMARK VINA RESULT:      -6.0     25.671     27.810
REMARK  Name = 75536597
REMARK  7 active torsions:
REMARK  status: ('A' for Active; 'I' for Inactive)
REMARK    1  A    between atoms: O_3  and  C_9
REMARK    2  A    between atoms: N_5  and  C_8
REMARK    3  A    between atoms: N_5  and  C_13
REMARK    4  A    between atoms: N_6  and  C_12
REMARK    5  A    between atoms: C_10  and  C_12
REMARK    6  A    between atoms: C_13  and  C_14
REMARK    7  A    between atoms: C_15  and  C_17
REMARK                            x       y       z     vdW  Elec       q    Type
REMARK                         _______ _______ _______ _____ _____    ______ ____
ROOT
ATOM      2  O   UNL     1      -1.140 -11.411  15.137  0.00  0.00    -0.371 OA
ATOM      8  C   UNL     1      -3.227 -11.145  16.239  0.00  0.00    +0.111 C 
ATOM      9  C   UNL     1      -3.468 -11.721  14.855  0.00  0.00    +0.164 C 
ATOM     10  C   UNL     1      -2.097 -12.300  14.536  0.00  0.00    +0.165 C 
ATOM     11  C   UNL     1      -1.825 -10.578  16.088  0.00  0.00    +0.181 C 
ENDROOT
BRANCH   9   3
ATOM      3  O   UNL     1      -4.476 -12.714  14.846  0.00  0.00    -0.388 OA
ATOM     25  H   UNL     1      -5.158 -12.451  14.207  0.00  0.00    +0.210 HD
ENDBRANCH   9   3
BRANCH   8   5
ATOM      5  N   UNL     1      -4.205 -10.142  16.631  0.00  0.00    -0.303 NA
ATOM     24  H   UNL     1      -4.863 -10.000  15.866  0.00  0.00    +0.123 HD
BRANCH   5  13
ATOM     13  C   UNL     1      -4.942 -10.564  17.816  0.00  0.00    +0.137 C 
BRANCH  13  14
ATOM      7  N   UNL     1      -7.223 -10.848  18.614  0.00  0.00    -0.259 NA
ATOM     14  C   UNL     1      -6.416 -10.282  17.688  0.00  0.00    +0.055 A 
ATOM     16  C   UNL     1      -6.866  -9.474  16.657  0.00  0.00    +0.024 A 
ATOM     18  C   UNL     1      -8.232  -9.232  16.568  0.00  0.00    +0.003 A 
ATOM     19  C   UNL     1      -8.545 -10.590  18.496  0.00  0.00    +0.111 A 
ATOM     21  C   UNL     1      -9.094  -9.797  17.502  0.00  0.00    +0.020 A 
ENDBRANCH  13  14
ENDBRANCH   5  13
ENDBRANCH   8   5
BRANCH  10  12
ATOM     12  C   UNL     1      -1.826 -12.418  13.047  0.00  0.00    +0.138 C 
BRANCH  12   6
ATOM      4  O   UNL     1      -1.385  -9.883  11.775  0.00  0.00    -0.270 OA
ATOM      6  N   UNL     1      -2.779 -11.667  12.283  0.00  0.00    -0.308 N 
ATOM     15  C   UNL     1      -2.476 -10.440  11.698  0.00  0.00    +0.251 C 
ATOM     26  H   UNL     1      -3.708 -12.062  12.189  0.00  0.00    +0.149 HD
BRANCH  15  17
ATOM      1  S   UNL     1      -5.140  -9.723  11.665  0.00  0.00    -0.092 S 
ATOM     17  C   UNL     1      -3.581  -9.776  10.960  0.00  0.00    +0.074 A 
ATOM     20  C   UNL     1      -3.549  -9.159   9.728  0.00  0.00    +0.021 A 
ATOM     22  C   UNL     1      -4.823  -8.638   9.359  0.00  0.00    +0.008 A 
ATOM     23  C   UNL     1      -5.778  -8.874  10.321  0.00  0.00    +0.046 A 
ENDBRANCH  15  17
ENDBRANCH  12   6
ENDBRANCH  10  12
TORSDOF 7
ENDMDL
