MODEL 1
REMARK VINA RESULT:      -6.6      0.000      0.000
REMARK  Name = 45784022
REMARK  4 active torsions:
REMARK  status: ('A' for Active; 'I' for Inactive)
REMARK    1  A    between atoms: N_6  and  C_15
REMARK    2  A    between atoms: C_7  and  C_11
REMARK    3  A    between atoms: C_15  and  C_18
REMARK    4  A    between atoms: C_15  and  C_19
REMARK                            x       y       z     vdW  Elec       q    Type
REMARK                         _______ _______ _______ _____ _____    ______ ____
ROOT
ATOM      2  O   UNL     1      -2.900  -8.889  10.132  0.00  0.00    -0.253 OA
ATOM      3  N   UNL     1      -2.870 -10.883  11.289  0.00  0.00    -0.285 N 
ATOM      6  N   UNL     1      -4.243 -10.620   9.412  0.00  0.00    -0.297 N 
ATOM      7  C   UNL     1      -1.960 -11.489  13.402  0.00  0.00    +0.074 C 
ATOM      8  C   UNL     1      -2.341 -12.760  12.626  0.00  0.00    +0.032 C 
ATOM      9  C   UNL     1      -1.899 -10.441  12.285  0.00  0.00    +0.120 C 
ATOM     10  C   UNL     1      -3.285 -12.261  11.538  0.00  0.00    +0.110 C 
ATOM     12  C   UNL     1      -3.308 -10.046  10.266  0.00  0.00    +0.302 C 
ATOM     23  H   UNL     1      -4.620 -11.536   9.626  0.00  0.00    +0.150 HD
ENDROOT
BRANCH   7  11
ATOM      1  F   UNL     1      -5.516 -11.068  19.732  0.00  0.00    -0.205 F 
ATOM      4  N   UNL     1      -2.700 -11.688  15.800  0.00  0.00    -0.341 N 
ATOM      5  N   UNL     1      -4.055 -10.539  14.466  0.00  0.00    -0.232 NA
ATOM     11  C   UNL     1      -2.933 -11.218  14.537  0.00  0.00    +0.113 A 
ATOM     13  C   UNL     1      -3.741 -11.285  16.596  0.00  0.00    +0.069 A 
ATOM     14  C   UNL     1      -4.574 -10.570  15.740  0.00  0.00    +0.089 A 
ATOM     16  C   UNL     1      -4.018 -11.480  17.950  0.00  0.00    +0.066 A 
ATOM     17  C   UNL     1      -5.757 -10.008  16.248  0.00  0.00    +0.032 A 
ATOM     20  C   UNL     1      -5.199 -10.913  18.439  0.00  0.00    +0.125 A 
ATOM     21  C   UNL     1      -6.055 -10.190  17.605  0.00  0.00    +0.040 A 
ATOM     22  H   UNL     1      -1.902 -12.236  16.096  0.00  0.00    +0.167 HD
ENDBRANCH   7  11
BRANCH   6  15
ATOM     15  C   UNL     1      -4.814  -9.904   8.295  0.00  0.00    +0.068 C 
ATOM     18  C   UNL     1      -5.038 -10.842   7.116  0.00  0.00    +0.027 C 
ATOM     19  C   UNL     1      -6.111  -9.220   8.711  0.00  0.00    +0.027 C 
ENDBRANCH   6  15
TORSDOF 2
ENDMDL
MODEL 2
REMARK VINA RESULT:      -6.2      4.480      7.626
REMARK  Name = 45784022
REMARK  4 active torsions:
REMARK  status: ('A' for Active; 'I' for Inactive)
REMARK    1  A    between atoms: N_6  and  C_15
REMARK    2  A    between atoms: C_7  and  C_11
REMARK    3  A    between atoms: C_15  and  C_18
REMARK    4  A    between atoms: C_15  and  C_19
REMARK                            x       y       z     vdW  Elec       q    Type
REMARK                         _______ _______ _______ _____ _____    ______ ____
ROOT
ATOM      2  O   UNL     1      -9.451 -11.927  17.278  0.00  0.00    -0.253 OA
ATOM      3  N   UNL     1      -7.545 -11.409  18.469  0.00  0.00    -0.285 N 
ATOM      6  N   UNL     1      -9.330  -9.898  18.367  0.00  0.00    -0.297 N 
ATOM      7  C   UNL     1      -5.393 -12.418  18.554  0.00  0.00    +0.074 C 
ATOM      8  C   UNL     1      -5.536 -11.421  19.714  0.00  0.00    +0.032 C 
ATOM      9  C   UNL     1      -6.855 -12.656  18.157  0.00  0.00    +0.120 C 
ATOM     10  C   UNL     1      -6.718 -10.548  19.309  0.00  0.00    +0.110 C 
ATOM     12  C   UNL     1      -8.823 -11.135  17.987  0.00  0.00    +0.302 C 
ATOM     23  H   UNL     1      -8.734  -9.244  18.863  0.00  0.00    +0.150 HD
ENDROOT
BRANCH   7  11
ATOM      1  F   UNL     1      -2.244 -10.276  12.358  0.00  0.00    -0.205 F 
ATOM      4  N   UNL     1      -4.847 -11.883  16.156  0.00  0.00    -0.341 N 
ATOM      5  N   UNL     1      -3.270 -11.379  17.638  0.00  0.00    -0.232 NA
ATOM     11  C   UNL     1      -4.472 -11.883  17.470  0.00  0.00    +0.113 A 
ATOM     13  C   UNL     1      -3.819 -11.343  15.426  0.00  0.00    +0.069 A 
ATOM     14  C   UNL     1      -2.846 -11.037  16.374  0.00  0.00    +0.089 A 
ATOM     16  C   UNL     1      -3.661 -11.105  14.060  0.00  0.00    +0.066 A 
ATOM     17  C   UNL     1      -1.638 -10.458  15.952  0.00  0.00    +0.032 A 
ATOM     20  C   UNL     1      -2.452 -10.527  13.658  0.00  0.00    +0.125 A 
ATOM     21  C   UNL     1      -1.457 -10.209  14.586  0.00  0.00    +0.040 A 
ATOM     22  H   UNL     1      -5.726 -12.221  15.784  0.00  0.00    +0.167 HD
ENDBRANCH   7  11
BRANCH   6  15
ATOM     15  C   UNL     1     -10.638  -9.438  17.961  0.00  0.00    +0.068 C 
ATOM     18  C   UNL     1     -11.631  -9.571  19.108  0.00  0.00    +0.027 C 
ATOM     19  C   UNL     1     -10.563  -8.001  17.460  0.00  0.00    +0.027 C 
ENDBRANCH   6  15
TORSDOF 2
ENDMDL
MODEL 3
REMARK VINA RESULT:      -6.1      4.129      7.625
REMARK  Name = 45784022
REMARK  4 active torsions:
REMARK  status: ('A' for Active; 'I' for Inactive)
REMARK    1  A    between atoms: N_6  and  C_15
REMARK    2  A    between atoms: C_7  and  C_11
REMARK    3  A    between atoms: C_15  and  C_18
REMARK    4  A    between atoms: C_15  and  C_19
REMARK                            x       y       z     vdW  Elec       q    Type
REMARK                         _______ _______ _______ _____ _____    ______ ____
ROOT
ATOM      2  O   UNL     1      -9.027 -12.536  17.857  0.00  0.00    -0.253 OA
ATOM      3  N   UNL     1      -6.944 -11.696  18.380  0.00  0.00    -0.285 N 
ATOM      6  N   UNL     1      -8.864 -10.395  18.698  0.00  0.00    -0.297 N 
ATOM      7  C   UNL     1      -4.746 -12.465  17.897  0.00  0.00    +0.074 C 
ATOM      8  C   UNL     1      -4.679 -11.363  18.966  0.00  0.00    +0.032 C 
ATOM      9  C   UNL     1      -6.216 -12.893  17.975  0.00  0.00    +0.120 C 
ATOM     10  C   UNL     1      -6.030 -10.665  18.865  0.00  0.00    +0.110 C 
ATOM     12  C   UNL     1      -8.331 -11.610  18.282  0.00  0.00    +0.302 C 
ATOM     23  H   UNL     1      -8.243  -9.633  18.940  0.00  0.00    +0.150 HD
ENDROOT
BRANCH   7  11
ATOM      1  F   UNL     1      -1.035  -9.630  12.322  0.00  0.00    -0.205 F 
ATOM      4  N   UNL     1      -3.027 -11.374  16.417  0.00  0.00    -0.341 N 
ATOM      5  N   UNL     1      -4.894 -12.029  15.405  0.00  0.00    -0.232 NA
ATOM     11  C   UNL     1      -4.253 -11.964  16.550  0.00  0.00    +0.113 A 
ATOM     13  C   UNL     1      -2.866 -11.034  15.099  0.00  0.00    +0.069 A 
ATOM     14  C   UNL     1      -4.045 -11.453  14.487  0.00  0.00    +0.089 A 
ATOM     16  C   UNL     1      -1.823 -10.414  14.409  0.00  0.00    +0.066 A 
ATOM     17  C   UNL     1      -4.210 -11.250  13.107  0.00  0.00    +0.032 A 
ATOM     20  C   UNL     1      -2.004 -10.221  13.035  0.00  0.00    +0.125 A 
ATOM     21  C   UNL     1      -3.176 -10.630  12.394  0.00  0.00    +0.040 A 
ATOM     22  H   UNL     1      -2.357 -11.214  17.158  0.00  0.00    +0.167 HD
ENDBRANCH   7  11
BRANCH   6  15
ATOM     15  C   UNL     1     -10.282 -10.120  18.666  0.00  0.00    +0.068 C 
ATOM     18  C   UNL     1     -10.851 -10.079  20.078  0.00  0.00    +0.027 C 
ATOM     19  C   UNL     1     -10.553  -8.817  17.923  0.00  0.00    +0.027 C 
ENDBRANCH   6  15
TORSDOF 2
ENDMDL
MODEL 4
REMARK VINA RESULT:      -6.0      3.504      7.248
REMARK  Name = 45784022
REMARK  4 active torsions:
REMARK  status: ('A' for Active; 'I' for Inactive)
REMARK    1  A    between atoms: N_6  and  C_15
REMARK    2  A    between atoms: C_7  and  C_11
REMARK    3  A    between atoms: C_15  and  C_18
REMARK    4  A    between atoms: C_15  and  C_19
REMARK                            x       y       z     vdW  Elec       q    Type
REMARK                         _______ _______ _______ _____ _____    ______ ____
ROOT
ATOM      2  O   UNL     1      -5.550 -13.040  16.596  0.00  0.00    -0.253 OA
ATOM      3  N   UNL     1      -3.690 -11.837  15.954  0.00  0.00    -0.285 N 
ATOM      6  N   UNL     1      -5.202 -10.949  17.505  0.00  0.00    -0.297 N 
ATOM      7  C   UNL     1      -2.122 -12.141  14.192  0.00  0.00    +0.074 C 
ATOM      8  C   UNL     1      -1.582 -11.098  15.182  0.00  0.00    +0.032 C 
ATOM      9  C   UNL     1      -3.193 -12.849  15.030  0.00  0.00    +0.120 C 
ATOM     10  C   UNL     1      -2.810 -10.672  15.979  0.00  0.00    +0.110 C 
ATOM     12  C   UNL     1      -4.865 -12.017  16.681  0.00  0.00    +0.302 C 
ATOM     23  H   UNL     1      -4.663 -10.093  17.461  0.00  0.00    +0.150 HD
ENDROOT
BRANCH   7  11
ATOM      1  F   UNL     1      -5.183 -10.473   7.809  0.00  0.00    -0.205 F 
ATOM      4  N   UNL     1      -3.431 -12.144  12.042  0.00  0.00    -0.341 N 
ATOM      5  N   UNL     1      -2.269 -10.297  12.459  0.00  0.00    -0.232 NA
ATOM     11  C   UNL     1      -2.589 -11.493  12.899  0.00  0.00    +0.113 A 
ATOM     13  C   UNL     1      -3.670 -11.314  10.978  0.00  0.00    +0.069 A 
ATOM     14  C   UNL     1      -2.933 -10.167  11.262  0.00  0.00    +0.089 A 
ATOM     16  C   UNL     1      -4.443 -11.463   9.825  0.00  0.00    +0.066 A 
ATOM     17  C   UNL     1      -2.959  -9.095  10.353  0.00  0.00    +0.032 A 
ATOM     20  C   UNL     1      -4.457 -10.386   8.933  0.00  0.00    +0.125 A 
ATOM     21  C   UNL     1      -3.729  -9.222   9.190  0.00  0.00    +0.040 A 
ATOM     22  H   UNL     1      -3.810 -13.074  12.167  0.00  0.00    +0.167 HD
ENDBRANCH   7  11
BRANCH   6  15
ATOM     15  C   UNL     1      -6.387 -10.953  18.331  0.00  0.00    +0.068 C 
ATOM     18  C   UNL     1      -6.023 -10.710  19.790  0.00  0.00    +0.027 C 
ATOM     19  C   UNL     1      -7.386  -9.917  17.831  0.00  0.00    +0.027 C 
ENDBRANCH   6  15
TORSDOF 2
ENDMDL
MODEL 5
REMARK VINA RESULT:      -5.9      4.152      7.180
REMARK  Name = 45784022
REMARK  4 active torsions:
REMARK  status: ('A' for Active; 'I' for Inactive)
REMARK    1  A    between atoms: N_6  and  C_15
REMARK    2  A    between atoms: C_7  and  C_11
REMARK    3  A    between atoms: C_15  and  C_18
REMARK    4  A    between atoms: C_15  and  C_19
REMARK                            x       y       z     vdW  Elec       q    Type
REMARK                         _______ _______ _______ _____ _____    ______ ____
ROOT
ATOM      2  O   UNL     1      -9.498 -10.686  15.229  0.00  0.00    -0.253 OA
ATOM      3  N   UNL     1      -7.354 -10.250  15.957  0.00  0.00    -0.285 N 
ATOM      6  N   UNL     1      -9.042  -8.649  16.209  0.00  0.00    -0.297 N 
ATOM      7  C   UNL     1      -5.286 -11.369  15.595  0.00  0.00    +0.074 C 
ATOM      8  C   UNL     1      -5.122 -10.348  16.731  0.00  0.00    +0.032 C 
ATOM      9  C   UNL     1      -6.809 -11.536  15.536  0.00  0.00    +0.120 C 
ATOM     10  C   UNL     1      -6.321  -9.420  16.572  0.00  0.00    +0.110 C 
ATOM     12  C   UNL     1      -8.691  -9.918  15.761  0.00  0.00    +0.302 C 
ATOM     23  H   UNL     1      -8.322  -8.020  16.544  0.00  0.00    +0.150 HD
ENDROOT
BRANCH   7  11
ATOM      1  F   UNL     1      -3.570  -8.754   9.030  0.00  0.00    -0.205 F 
ATOM      4  N   UNL     1      -5.320 -10.379  13.281  0.00  0.00    -0.341 N 
ATOM      5  N   UNL     1      -3.315 -10.929  14.065  0.00  0.00    -0.232 NA
ATOM     11  C   UNL     1      -4.603 -10.901  14.322  0.00  0.00    +0.113 A 
ATOM     13  C   UNL     1      -4.436 -10.049  12.286  0.00  0.00    +0.069 A 
ATOM     14  C   UNL     1      -3.191 -10.402  12.800  0.00  0.00    +0.089 A 
ATOM     16  C   UNL     1      -4.613  -9.490  11.020  0.00  0.00    +0.066 A 
ATOM     17  C   UNL     1      -2.043 -10.192  12.016  0.00  0.00    +0.032 A 
ATOM     20  C   UNL     1      -3.460  -9.287  10.255  0.00  0.00    +0.125 A 
ATOM     21  C   UNL     1      -2.197  -9.631  10.742  0.00  0.00    +0.040 A 
ATOM     22  H   UNL     1      -6.324 -10.258  13.249  0.00  0.00    +0.167 HD
ENDBRANCH   7  11
BRANCH   6  15
ATOM     15  C   UNL     1     -10.384  -8.128  16.088  0.00  0.00    +0.068 C 
ATOM     18  C   UNL     1     -11.178  -8.392  17.361  0.00  0.00    +0.027 C 
ATOM     19  C   UNL     1     -10.348  -6.641  15.759  0.00  0.00    +0.027 C 
ENDBRANCH   6  15
TORSDOF 2
ENDMDL
MODEL 6
REMARK VINA RESULT:      -5.8     24.368     27.002
REMARK  Name = 45784022
REMARK  4 active torsions:
REMARK  status: ('A' for Active; 'I' for Inactive)
REMARK    1  A    between atoms: N_6  and  C_15
REMARK    2  A    between atoms: C_7  and  C_11
REMARK    3  A    between atoms: C_15  and  C_18
REMARK    4  A    between atoms: C_15  and  C_19
REMARK                            x       y       z     vdW  Elec       q    Type
REMARK                         _______ _______ _______ _____ _____    ______ ____
ROOT
ATOM      2  O   UNL     1     -14.468  10.206  30.127  0.00  0.00    -0.253 OA
ATOM      3  N   UNL     1     -13.713   8.728  31.728  0.00  0.00    -0.285 N 
ATOM      6  N   UNL     1     -12.203  10.062  30.536  0.00  0.00    -0.297 N 
ATOM      7  C   UNL     1     -14.784   6.953  32.894  0.00  0.00    +0.074 C 
ATOM      8  C   UNL     1     -13.443   7.273  33.571  0.00  0.00    +0.032 C 
ATOM      9  C   UNL     1     -15.037   8.223  32.075  0.00  0.00    +0.120 C 
ATOM     10  C   UNL     1     -12.678   8.070  32.521  0.00  0.00    +0.110 C 
ATOM     12  C   UNL     1     -13.530   9.704  30.752  0.00  0.00    +0.302 C 
ATOM     23  H   UNL     1     -11.464   9.547  31.000  0.00  0.00    +0.150 HD
ENDROOT
BRANCH   7  11
ATOM      1  F   UNL     1     -13.338   0.297  30.344  0.00  0.00    -0.205 F 
ATOM      4  N   UNL     1     -13.879   4.637  32.500  0.00  0.00    -0.341 N 
ATOM      5  N   UNL     1     -15.419   5.328  31.054  0.00  0.00    -0.232 NA
ATOM     11  C   UNL     1     -14.720   5.646  32.121  0.00  0.00    +0.113 A 
ATOM     13  C   UNL     1     -14.046   3.599  31.620  0.00  0.00    +0.069 A 
ATOM     14  C   UNL     1     -15.012   4.055  30.727  0.00  0.00    +0.089 A 
ATOM     16  C   UNL     1     -13.453   2.339  31.530  0.00  0.00    +0.066 A 
ATOM     17  C   UNL     1     -15.423   3.217  29.676  0.00  0.00    +0.032 A 
ATOM     20  C   UNL     1     -13.874   1.518  30.479  0.00  0.00    +0.125 A 
ATOM     21  C   UNL     1     -14.841   1.948  29.567  0.00  0.00    +0.040 A 
ATOM     22  H   UNL     1     -13.245   4.652  33.289  0.00  0.00    +0.167 HD
ENDBRANCH   7  11
BRANCH   6  15
ATOM     15  C   UNL     1     -11.818  11.054  29.560  0.00  0.00    +0.068 C 
ATOM     18  C   UNL     1     -10.789  12.011  30.148  0.00  0.00    +0.027 C 
ATOM     19  C   UNL     1     -11.289  10.381  28.299  0.00  0.00    +0.027 C 
ENDBRANCH   6  15
TORSDOF 2
ENDMDL
MODEL 7
REMARK VINA RESULT:      -5.7      3.773      7.281
REMARK  Name = 45784022
REMARK  4 active torsions:
REMARK  status: ('A' for Active; 'I' for Inactive)
REMARK    1  A    between atoms: N_6  and  C_15
REMARK    2  A    between atoms: C_7  and  C_11
REMARK    3  A    between atoms: C_15  and  C_18
REMARK    4  A    between atoms: C_15  and  C_19
REMARK                            x       y       z     vdW  Elec       q    Type
REMARK                         _______ _______ _______ _____ _____    ______ ____
ROOT
ATOM      2  O   UNL     1      -7.746 -12.633  16.580  0.00  0.00    -0.253 OA
ATOM      3  N   UNL     1      -5.754 -11.471  16.610  0.00  0.00    -0.285 N 
ATOM      6  N   UNL     1      -7.671 -10.568  17.604  0.00  0.00    -0.297 N 
ATOM      7  C   UNL     1      -3.703 -11.790  15.448  0.00  0.00    +0.074 C 
ATOM      8  C   UNL     1      -3.494 -10.778  16.586  0.00  0.00    +0.032 C 
ATOM      9  C   UNL     1      -5.003 -12.482  15.874  0.00  0.00    +0.120 C 
ATOM     10  C   UNL     1      -4.906 -10.332  16.949  0.00  0.00    +0.110 C 
ATOM     12  C   UNL     1      -7.105 -11.631  16.909  0.00  0.00    +0.302 C 
ATOM     23  H   UNL     1      -7.129  -9.726  17.759  0.00  0.00    +0.150 HD
ENDROOT
BRANCH   7  11
ATOM      1  F   UNL     1      -5.339  -8.284   9.290  0.00  0.00    -0.205 F 
ATOM      4  N   UNL     1      -4.849 -10.560  13.575  0.00  0.00    -0.341 N 
ATOM      5  N   UNL     1      -2.683 -10.961  13.281  0.00  0.00    -0.232 NA
ATOM     11  C   UNL     1      -3.707 -11.108  14.091  0.00  0.00    +0.113 A 
ATOM     13  C   UNL     1      -4.540 -10.023  12.352  0.00  0.00    +0.069 A 
ATOM     14  C   UNL     1      -3.182 -10.286  12.191  0.00  0.00    +0.089 A 
ATOM     16  C   UNL     1      -5.309  -9.351  11.400  0.00  0.00    +0.066 A 
ATOM     17  C   UNL     1      -2.537  -9.861  11.018  0.00  0.00    +0.032 A 
ATOM     20  C   UNL     1      -4.650  -8.934  10.239  0.00  0.00    +0.125 A 
ATOM     21  C   UNL     1      -3.289  -9.184  10.049  0.00  0.00    +0.040 A 
ATOM     22  H   UNL     1      -5.760 -10.552  14.015  0.00  0.00    +0.167 HD
ENDBRANCH   7  11
BRANCH   6  15
ATOM     15  C   UNL     1      -9.061 -10.553  17.998  0.00  0.00    +0.068 C 
ATOM     18  C   UNL     1      -9.201 -10.889  19.477  0.00  0.00    +0.027 C 
ATOM     19  C   UNL     1      -9.688  -9.201  17.677  0.00  0.00    +0.027 C 
ENDBRANCH   6  15
TORSDOF 2
ENDMDL
MODEL 8
REMARK VINA RESULT:      -5.5     24.621     26.838
REMARK  Name = 45784022
REMARK  4 active torsions:
REMARK  status: ('A' for Active; 'I' for Inactive)
REMARK    1  A    between atoms: N_6  and  C_15
REMARK    2  A    between atoms: C_7  and  C_11
REMARK    3  A    between atoms: C_15  and  C_18
REMARK    4  A    between atoms: C_15  and  C_19
REMARK                            x       y       z     vdW  Elec       q    Type
REMARK                         _______ _______ _______ _____ _____    ______ ____
ROOT
ATOM      2  O   UNL     1      15.966  -6.684  30.524  0.00  0.00    -0.253 OA
ATOM      3  N   UNL     1      16.579  -4.496  30.129  0.00  0.00    -0.285 N 
ATOM      6  N   UNL     1      14.544  -4.989  31.175  0.00  0.00    -0.297 N 
ATOM      7  C   UNL     1      18.307  -3.537  28.806  0.00  0.00    +0.074 C 
ATOM      8  C   UNL     1      17.713  -2.461  29.727  0.00  0.00    +0.032 C 
ATOM      9  C   UNL     1      17.846  -4.830  29.488  0.00  0.00    +0.120 C 
ATOM     10  C   UNL     1      16.379  -3.050  30.173  0.00  0.00    +0.110 C 
ATOM     12  C   UNL     1      15.714  -5.478  30.605  0.00  0.00    +0.302 C 
ATOM     23  H   UNL     1      14.339  -3.998  31.124  0.00  0.00    +0.150 HD
ENDROOT
BRANCH   7  11
ATOM      1  F   UNL     1      16.282  -0.963  22.312  0.00  0.00    -0.205 F 
ATOM      4  N   UNL     1      17.667  -2.086  26.851  0.00  0.00    -0.341 N 
ATOM      5  N   UNL     1      17.654  -4.276  26.471  0.00  0.00    -0.232 NA
ATOM     11  C   UNL     1      17.873  -3.337  27.364  0.00  0.00    +0.113 A 
ATOM     13  C   UNL     1      17.288  -2.227  25.541  0.00  0.00    +0.069 A 
ATOM     14  C   UNL     1      17.287  -3.603  25.327  0.00  0.00    +0.089 A 
ATOM     16  C   UNL     1      16.956  -1.298  24.554  0.00  0.00    +0.066 A 
ATOM     17  C   UNL     1      16.937  -4.099  24.060  0.00  0.00    +0.032 A 
ATOM     20  C   UNL     1      16.611  -1.809  23.299  0.00  0.00    +0.125 A 
ATOM     21  C   UNL     1      16.601  -3.184  23.054  0.00  0.00    +0.040 A 
ATOM     22  H   UNL     1      17.773  -1.211  27.349  0.00  0.00    +0.167 HD
ENDBRANCH   7  11
BRANCH   6  15
ATOM     15  C   UNL     1      13.526  -5.857  31.720  0.00  0.00    +0.068 C 
ATOM     18  C   UNL     1      12.771  -5.157  32.843  0.00  0.00    +0.027 C 
ATOM     19  C   UNL     1      12.577  -6.317  30.620  0.00  0.00    +0.027 C 
ENDBRANCH   6  15
TORSDOF 2
ENDMDL
MODEL 9
REMARK VINA RESULT:      -5.5      4.193      6.839
REMARK  Name = 45784022
REMARK  4 active torsions:
REMARK  status: ('A' for Active; 'I' for Inactive)
REMARK    1  A    between atoms: N_6  and  C_15
REMARK    2  A    between atoms: C_7  and  C_11
REMARK    3  A    between atoms: C_15  and  C_18
REMARK    4  A    between atoms: C_15  and  C_19
REMARK                            x       y       z     vdW  Elec       q    Type
REMARK                         _______ _______ _______ _____ _____    ______ ____
ROOT
ATOM      2  O   UNL     1     -10.205 -10.415  14.864  0.00  0.00    -0.253 OA
ATOM      3  N   UNL     1      -8.743 -10.579  16.640  0.00  0.00    -0.285 N 
ATOM      6  N   UNL     1     -10.058  -8.664  16.357  0.00  0.00    -0.297 N 
ATOM      7  C   UNL     1      -6.985 -12.107  17.124  0.00  0.00    +0.074 C 
ATOM      8  C   UNL     1      -7.309 -11.285  18.382  0.00  0.00    +0.032 C 
ATOM      9  C   UNL     1      -8.247 -11.903  16.278  0.00  0.00    +0.120 C 
ATOM     10  C   UNL     1      -8.092 -10.089  17.852  0.00  0.00    +0.110 C 
ATOM     12  C   UNL     1      -9.707  -9.922  15.880  0.00  0.00    +0.302 C 
ATOM     23  H   UNL     1      -9.547  -8.263  17.135  0.00  0.00    +0.150 HD
ENDROOT
BRANCH   7  11
ATOM      1  F   UNL     1      -0.139 -10.102  15.709  0.00  0.00    -0.205 F 
ATOM      4  N   UNL     1      -4.552 -11.478  17.263  0.00  0.00    -0.341 N 
ATOM      5  N   UNL     1      -5.441 -11.446  15.226  0.00  0.00    -0.232 NA
ATOM     11  C   UNL     1      -5.670 -11.674  16.500  0.00  0.00    +0.113 A 
ATOM     13  C   UNL     1      -3.534 -11.098  16.426  0.00  0.00    +0.069 A 
ATOM     14  C   UNL     1      -4.115 -11.085  15.160  0.00  0.00    +0.089 A 
ATOM     16  C   UNL     1      -2.198 -10.774  16.660  0.00  0.00    +0.066 A 
ATOM     17  C   UNL     1      -3.329 -10.730  14.051  0.00  0.00    +0.032 A 
ATOM     20  C   UNL     1      -1.430 -10.424  15.544  0.00  0.00    +0.125 A 
ATOM     21  C   UNL     1      -1.984 -10.401  14.262  0.00  0.00    +0.040 A 
ATOM     22  H   UNL     1      -4.485 -11.592  18.266  0.00  0.00    +0.167 HD
ENDBRANCH   7  11
BRANCH   6  15
ATOM     15  C   UNL     1     -11.038  -7.832  15.699  0.00  0.00    +0.068 C 
ATOM     18  C   UNL     1     -12.389  -7.945  16.393  0.00  0.00    +0.027 C 
ATOM     19  C   UNL     1     -10.561  -6.385  15.653  0.00  0.00    +0.027 C 
ENDBRANCH   6  15
TORSDOF 2
ENDMDL
MODEL 10
REMARK VINA RESULT:      -5.4     25.805     28.065
REMARK  Name = 45784022
REMARK  4 active torsions:
REMARK  status: ('A' for Active; 'I' for Inactive)
REMARK    1  A    between atoms: N_6  and  C_15
REMARK    2  A    between atoms: C_7  and  C_11
REMARK    3  A    between atoms: C_15  and  C_18
REMARK    4  A    between atoms: C_15  and  C_19
REMARK                            x       y       z     vdW  Elec       q    Type
REMARK                         _______ _______ _______ _____ _____    ______ ____
ROOT
ATOM      2  O   UNL     1      18.066  -5.046  30.476  0.00  0.00    -0.253 OA
ATOM      3  N   UNL     1      18.966  -3.152  29.517  0.00  0.00    -0.285 N 
ATOM      6  N   UNL     1      17.538  -2.984  31.364  0.00  0.00    -0.297 N 
ATOM      7  C   UNL     1      20.123  -2.795  27.470  0.00  0.00    +0.074 C 
ATOM      8  C   UNL     1      20.276  -1.556  28.365  0.00  0.00    +0.032 C 
ATOM      9  C   UNL     1      19.702  -3.868  28.481  0.00  0.00    +0.120 C 
ATOM     10  C   UNL     1      19.169  -1.710  29.403  0.00  0.00    +0.110 C 
ATOM     12  C   UNL     1      18.182  -3.817  30.456  0.00  0.00    +0.302 C 
ATOM     23  H   UNL     1      17.583  -1.980  31.240  0.00  0.00    +0.150 HD
ENDROOT
BRANCH   7  11
ATOM      1  F   UNL     1      14.851  -2.969  22.464  0.00  0.00    -0.205 F 
ATOM      4  N   UNL     1      18.142  -3.392  26.037  0.00  0.00    -0.341 N 
ATOM      5  N   UNL     1      19.199  -1.517  25.486  0.00  0.00    -0.232 NA
ATOM     11  C   UNL     1      19.169  -2.535  26.316  0.00  0.00    +0.113 A 
ATOM     13  C   UNL     1      17.463  -2.895  24.954  0.00  0.00    +0.069 A 
ATOM     14  C   UNL     1      18.143  -1.724  24.629  0.00  0.00    +0.089 A 
ATOM     16  C   UNL     1      16.348  -3.355  24.253  0.00  0.00    +0.066 A 
ATOM     17  C   UNL     1      17.696  -0.954  23.541  0.00  0.00    +0.032 A 
ATOM     20  C   UNL     1      15.917  -2.576  23.174  0.00  0.00    +0.125 A 
ATOM     21  C   UNL     1      16.578  -1.396  22.823  0.00  0.00    +0.040 A 
ATOM     22  H   UNL     1      17.920  -4.244  26.538  0.00  0.00    +0.167 HD
ENDBRANCH   7  11
BRANCH   6  15
ATOM     15  C   UNL     1      16.679  -3.494  32.408  0.00  0.00    +0.068 C 
ATOM     18  C   UNL     1      16.824  -2.660  33.674  0.00  0.00    +0.027 C 
ATOM     19  C   UNL     1      15.231  -3.529  31.934  0.00  0.00    +0.027 C 
ENDBRANCH   6  15
TORSDOF 2
ENDMDL
