MODEL 1
REMARK VINA RESULT:      -5.6      0.000      0.000
REMARK  Name = 7127925
REMARK  11 active torsions:
REMARK  status: ('A' for Active; 'I' for Inactive)
REMARK    1  A    between atoms: S_1  and  C_18
REMARK    2  A    between atoms: S_1  and  C_24
REMARK    3  A    between atoms: S_2  and  C_27
REMARK    4  A    between atoms: S_2  and  C_30
REMARK    5  A    between atoms: N_8  and  C_12
REMARK    6  A    between atoms: N_9  and  C_20
REMARK    7  A    between atoms: N_9  and  C_21
REMARK    8  A    between atoms: N_10  and  C_23
REMARK    9  A    between atoms: C_13  and  C_16
REMARK   10  A    between atoms: C_17  and  C_18
REMARK   11  A    between atoms: C_20  and  C_22
REMARK                            x       y       z     vdW  Elec       q    Type
REMARK                         _______ _______ _______ _____ _____    ______ ____
ROOT
ATOM      4  O   UNL     1      15.317   5.210  -2.961  0.00  0.00    -0.275 OA
ATOM      7  N   UNL     1      14.659   4.290  -0.942  0.00  0.00    -0.287 N 
ATOM     12  C   UNL     1      13.585   3.460   1.008  0.00  0.00    +0.094 C 
ATOM     13  C   UNL     1      13.258   4.114  -1.295  0.00  0.00    +0.164 C 
ATOM     14  C   UNL     1      12.683   3.213  -0.204  0.00  0.00    +0.056 C 
ATOM     15  C   UNL     1      14.947   3.745   0.385  0.00  0.00    +0.131 C 
ATOM     17  C   UNL     1      15.598   4.757  -1.850  0.00  0.00    +0.226 C 
ENDROOT
BRANCH  12   8
ATOM      5  O   UNL     1      11.311   3.478   2.752  0.00  0.00    -0.253 OA
ATOM      8  N   UNL     1      13.119   4.568   1.805  0.00  0.00    -0.295 N 
ATOM     10  N   UNL     1      11.784   5.716   3.283  0.00  0.00    -0.269 N 
ATOM     19  C   UNL     1      11.993   4.494   2.637  0.00  0.00    +0.304 C 
ATOM     31  H   UNL     1      13.593   5.461   1.718  0.00  0.00    +0.151 HD
ATOM     32  H   UNL     1      12.445   6.460   3.076  0.00  0.00    +0.156 HD
BRANCH  10  23
ATOM     23  C   UNL     1      10.759   6.048   4.200  0.00  0.00    +0.036 A 
ATOM     25  C   UNL     1      10.975   5.901   5.570  0.00  0.00    +0.038 A 
ATOM     26  C   UNL     1       9.534   6.524   3.733  0.00  0.00    +0.023 A 
ATOM     27  C   UNL     1       9.964   6.229   6.473  0.00  0.00    +0.009 A 
ATOM     28  C   UNL     1       8.524   6.853   4.637  0.00  0.00    +0.003 A 
ATOM     29  C   UNL     1       8.738   6.705   6.007  0.00  0.00    +0.015 A 
BRANCH  27   2
ATOM      2  S   UNL     1      10.238   6.043   8.225  0.00  0.00    -0.129 S 
ATOM     30  C   UNL     1       9.731   4.322   8.498  0.00  0.00    +0.090 C 
ENDBRANCH  27   2
ENDBRANCH  10  23
ENDBRANCH  12   8
BRANCH  13  16
ATOM      3  O   UNL     1      12.822   6.251  -0.391  0.00  0.00    -0.274 OA
ATOM      9  N   UNL     1      11.736   5.722  -2.377  0.00  0.00    -0.294 N 
ATOM     16  C   UNL     1      12.592   5.456  -1.306  0.00  0.00    +0.236 C 
ATOM     21  C   UNL     1      11.024   6.986  -2.511  0.00  0.00    +0.132 C 
BRANCH   9  20
ATOM     20  C   UNL     1      11.490   4.750  -3.440  0.00  0.00    +0.202 C 
BRANCH  20  22
ATOM      6  O   UNL     1       9.996   3.147  -2.408  0.00  0.00    -0.274 OA
ATOM     11  N   UNL     1       9.170   4.551  -4.031  0.00  0.00    -0.328 N 
ATOM     22  C   UNL     1      10.163   4.065  -3.206  0.00  0.00    +0.228 C 
ATOM     33  H   UNL     1       8.230   4.173  -3.993  0.00  0.00    +0.145 HD
ATOM     34  H   UNL     1       9.336   5.301  -4.694  0.00  0.00    +0.145 HD
ENDBRANCH  20  22
ENDBRANCH   9  20
ENDBRANCH  13  16
BRANCH  17  18
ATOM     18  C   UNL     1      17.032   4.695  -1.392  0.00  0.00    +0.164 C 
BRANCH  18   1
ATOM      1  S   UNL     1      17.673   6.375  -1.372  0.00  0.00    -0.155 S 
ATOM     24  C   UNL     1      16.955   6.929   0.195  0.00  0.00    +0.085 C 
ENDBRANCH  18   1
ENDBRANCH  17  18
TORSDOF 8
ENDMDL
MODEL 2
REMARK VINA RESULT:      -5.5     34.904     39.554
REMARK  Name = 7127925
REMARK  11 active torsions:
REMARK  status: ('A' for Active; 'I' for Inactive)
REMARK    1  A    between atoms: S_1  and  C_18
REMARK    2  A    between atoms: S_1  and  C_24
REMARK    3  A    between atoms: S_2  and  C_27
REMARK    4  A    between atoms: S_2  and  C_30
REMARK    5  A    between atoms: N_8  and  C_12
REMARK    6  A    between atoms: N_9  and  C_20
REMARK    7  A    between atoms: N_9  and  C_21
REMARK    8  A    between atoms: N_10  and  C_23
REMARK    9  A    between atoms: C_13  and  C_16
REMARK   10  A    between atoms: C_17  and  C_18
REMARK   11  A    between atoms: C_20  and  C_22
REMARK                            x       y       z     vdW  Elec       q    Type
REMARK                         _______ _______ _______ _____ _____    ______ ____
ROOT
ATOM      4  O   UNL     1     -17.688   3.959  31.694  0.00  0.00    -0.275 OA
ATOM      7  N   UNL     1     -17.726   3.228  29.498  0.00  0.00    -0.287 N 
ATOM     12  C   UNL     1     -17.380   2.306  27.336  0.00  0.00    +0.094 C 
ATOM     13  C   UNL     1     -16.724   2.185  29.659  0.00  0.00    +0.164 C 
ATOM     14  C   UNL     1     -16.818   1.345  28.387  0.00  0.00    +0.056 C 
ATOM     15  C   UNL     1     -18.286   3.227  28.147  0.00  0.00    +0.131 C 
ATOM     17  C   UNL     1     -18.186   3.984  30.567  0.00  0.00    +0.226 C 
ENDROOT
BRANCH  12   8
ATOM      5  O   UNL     1     -17.427   3.278  24.641  0.00  0.00    -0.253 OA
ATOM      8  N   UNL     1     -16.334   3.038  26.666  0.00  0.00    -0.295 N 
ATOM     10  N   UNL     1     -15.274   4.158  24.962  0.00  0.00    -0.269 N 
ATOM     19  C   UNL     1     -16.436   3.480  25.340  0.00  0.00    +0.304 C 
ATOM     31  H   UNL     1     -15.458   3.191  27.157  0.00  0.00    +0.151 HD
ATOM     32  H   UNL     1     -14.543   4.238  25.664  0.00  0.00    +0.156 HD
BRANCH  10  23
ATOM     23  C   UNL     1     -14.985   4.754  23.711  0.00  0.00    +0.036 A 
ATOM     25  C   UNL     1     -16.024   5.208  22.899  0.00  0.00    +0.038 A 
ATOM     26  C   UNL     1     -13.662   4.889  23.293  0.00  0.00    +0.023 A 
ATOM     27  C   UNL     1     -15.739   5.795  21.666  0.00  0.00    +0.009 A 
ATOM     28  C   UNL     1     -13.377   5.477  22.060  0.00  0.00    +0.003 A 
ATOM     29  C   UNL     1     -14.416   5.930  21.247  0.00  0.00    +0.015 A 
BRANCH  27   2
ATOM      2  S   UNL     1     -17.065   6.377  20.627  0.00  0.00    -0.129 S 
ATOM     30  C   UNL     1     -17.576   4.850  19.789  0.00  0.00    +0.090 C 
ENDBRANCH  27   2
ENDBRANCH  10  23
ENDBRANCH  12   8
BRANCH  13  16
ATOM      3  O   UNL     1     -15.109   3.817  29.107  0.00  0.00    -0.274 OA
ATOM      9  N   UNL     1     -14.498   2.250  30.712  0.00  0.00    -0.294 N 
ATOM     16  C   UNL     1     -15.377   2.828  29.795  0.00  0.00    +0.236 C 
ATOM     21  C   UNL     1     -13.158   2.774  30.943  0.00  0.00    +0.132 C 
BRANCH   9  20
ATOM     20  C   UNL     1     -14.856   1.077  31.506  0.00  0.00    +0.202 C 
BRANCH  20  22
ATOM      6  O   UNL     1     -13.580  -0.286  29.963  0.00  0.00    -0.274 OA
ATOM     11  N   UNL     1     -15.458  -1.180  30.944  0.00  0.00    -0.328 N 
ATOM     22  C   UNL     1     -14.532  -0.180  30.731  0.00  0.00    +0.228 C 
ATOM     33  H   UNL     1     -15.374  -2.075  30.477  0.00  0.00    +0.145 HD
ATOM     34  H   UNL     1     -16.246  -1.064  31.573  0.00  0.00    +0.145 HD
ENDBRANCH  20  22
ENDBRANCH   9  20
ENDBRANCH  13  16
BRANCH  17  18
ATOM     18  C   UNL     1     -19.360   4.882  30.271  0.00  0.00    +0.164 C 
BRANCH  18   1
ATOM      1  S   UNL     1     -18.872   6.567  30.669  0.00  0.00    -0.155 S 
ATOM     24  C   UNL     1     -17.687   6.839  29.329  0.00  0.00    +0.085 C 
ENDBRANCH  18   1
ENDBRANCH  17  18
TORSDOF 8
ENDMDL
MODEL 3
REMARK VINA RESULT:      -5.4     25.285     29.928
REMARK  Name = 7127925
REMARK  11 active torsions:
REMARK  status: ('A' for Active; 'I' for Inactive)
REMARK    1  A    between atoms: S_1  and  C_18
REMARK    2  A    between atoms: S_1  and  C_24
REMARK    3  A    between atoms: S_2  and  C_27
REMARK    4  A    between atoms: S_2  and  C_30
REMARK    5  A    between atoms: N_8  and  C_12
REMARK    6  A    between atoms: N_9  and  C_20
REMARK    7  A    between atoms: N_9  and  C_21
REMARK    8  A    between atoms: N_10  and  C_23
REMARK    9  A    between atoms: C_13  and  C_16
REMARK   10  A    between atoms: C_17  and  C_18
REMARK   11  A    between atoms: C_20  and  C_22
REMARK                            x       y       z     vdW  Elec       q    Type
REMARK                         _______ _______ _______ _____ _____    ______ ____
ROOT
ATOM      4  O   UNL     1     -11.353  -8.853  18.019  0.00  0.00    -0.275 OA
ATOM      7  N   UNL     1     -10.813  -9.412  15.839  0.00  0.00    -0.287 N 
ATOM     12  C   UNL     1      -9.924 -10.193  13.779  0.00  0.00    +0.094 C 
ATOM     13  C   UNL     1      -9.950 -10.536  16.171  0.00  0.00    +0.164 C 
ATOM     14  C   UNL     1      -9.727 -11.270  14.849  0.00  0.00    +0.056 C 
ATOM     15  C   UNL     1     -10.972  -9.270  14.392  0.00  0.00    +0.131 C 
ATOM     17  C   UNL     1     -11.513  -8.707  16.806  0.00  0.00    +0.226 C 
ENDROOT
BRANCH  12   8
ATOM      5  O   UNL     1      -7.768 -11.120  12.135  0.00  0.00    -0.253 OA
ATOM      8  N   UNL     1      -8.697  -9.493  13.491  0.00  0.00    -0.295 N 
ATOM     10  N   UNL     1      -6.622  -9.119  12.577  0.00  0.00    -0.269 N 
ATOM     19  C   UNL     1      -7.688 -10.018  12.672  0.00  0.00    +0.304 C 
ATOM     31  H   UNL     1      -8.529  -8.602  13.949  0.00  0.00    +0.151 HD
ATOM     32  H   UNL     1      -6.714  -8.245  13.087  0.00  0.00    +0.156 HD
BRANCH  10  23
ATOM     23  C   UNL     1      -5.418  -9.275  11.849  0.00  0.00    +0.036 A 
ATOM     25  C   UNL     1      -4.393 -10.073  12.359  0.00  0.00    +0.038 A 
ATOM     26  C   UNL     1      -5.259  -8.635  10.621  0.00  0.00    +0.023 A 
ATOM     27  C   UNL     1      -3.208 -10.226  11.641  0.00  0.00    +0.009 A 
ATOM     28  C   UNL     1      -4.073  -8.790   9.903  0.00  0.00    +0.003 A 
ATOM     29  C   UNL     1      -3.047  -9.586  10.413  0.00  0.00    +0.015 A 
BRANCH  27   2
ATOM      2  S   UNL     1      -1.897 -11.245  12.291  0.00  0.00    -0.129 S 
ATOM     30  C   UNL     1      -2.737 -12.841  12.496  0.00  0.00    +0.090 C 
ENDBRANCH  27   2
ENDBRANCH  10  23
ENDBRANCH  12   8
BRANCH  13  16
ATOM      3  O   UNL     1      -8.257  -8.902  16.363  0.00  0.00    -0.274 OA
ATOM      9  N   UNL     1      -7.998 -10.822  17.647  0.00  0.00    -0.294 N 
ATOM     16  C   UNL     1      -8.664 -10.008  16.729  0.00  0.00    +0.236 C 
ATOM     21  C   UNL     1      -6.739 -10.431  18.267  0.00  0.00    +0.132 C 
BRANCH   9  20
ATOM     20  C   UNL     1      -8.516 -12.127  18.053  0.00  0.00    +0.202 C 
BRANCH  20  22
ATOM      6  O   UNL     1      -9.367 -11.289  20.160  0.00  0.00    -0.274 OA
ATOM     11  N   UNL     1      -8.096 -13.205  20.158  0.00  0.00    -0.328 N 
ATOM     22  C   UNL     1      -8.734 -12.146  19.549  0.00  0.00    +0.228 C 
ATOM     33  H   UNL     1      -8.144 -13.335  21.162  0.00  0.00    +0.145 HD
ATOM     34  H   UNL     1      -7.565 -13.892  19.633  0.00  0.00    +0.145 HD
ENDBRANCH  20  22
ENDBRANCH   9  20
ENDBRANCH  13  16
BRANCH  17  18
ATOM     18  C   UNL     1     -12.511  -7.704  16.285  0.00  0.00    +0.164 C 
BRANCH  18   1
ATOM      1  S   UNL     1     -11.665  -6.125  16.123  0.00  0.00    -0.155 S 
ATOM     24  C   UNL     1     -12.269  -5.652  14.483  0.00  0.00    +0.085 C 
ENDBRANCH  18   1
ENDBRANCH  17  18
TORSDOF 8
ENDMDL
MODEL 4
REMARK VINA RESULT:      -5.4     24.809     28.079
REMARK  Name = 7127925
REMARK  11 active torsions:
REMARK  status: ('A' for Active; 'I' for Inactive)
REMARK    1  A    between atoms: S_1  and  C_18
REMARK    2  A    between atoms: S_1  and  C_24
REMARK    3  A    between atoms: S_2  and  C_27
REMARK    4  A    between atoms: S_2  and  C_30
REMARK    5  A    between atoms: N_8  and  C_12
REMARK    6  A    between atoms: N_9  and  C_20
REMARK    7  A    between atoms: N_9  and  C_21
REMARK    8  A    between atoms: N_10  and  C_23
REMARK    9  A    between atoms: C_13  and  C_16
REMARK   10  A    between atoms: C_17  and  C_18
REMARK   11  A    between atoms: C_20  and  C_22
REMARK                            x       y       z     vdW  Elec       q    Type
REMARK                         _______ _______ _______ _____ _____    ______ ____
ROOT
ATOM      4  O   UNL     1      -5.300 -14.121  16.528  0.00  0.00    -0.275 OA
ATOM      7  N   UNL     1      -3.917 -12.829  15.196  0.00  0.00    -0.287 N 
ATOM     12  C   UNL     1      -2.649 -11.172  14.060  0.00  0.00    +0.094 C 
ATOM     13  C   UNL     1      -3.871 -11.676  16.083  0.00  0.00    +0.164 C 
ATOM     14  C   UNL     1      -2.737 -10.805  15.544  0.00  0.00    +0.056 C 
ATOM     15  C   UNL     1      -3.049 -12.644  14.034  0.00  0.00    +0.131 C 
ATOM     17  C   UNL     1      -4.575 -14.001  15.539  0.00  0.00    +0.226 C 
ENDROOT
BRANCH  12   8
ATOM      5  O   UNL     1      -3.314 -11.586  11.304  0.00  0.00    -0.253 OA
ATOM      8  N   UNL     1      -3.531 -10.363  13.255  0.00  0.00    -0.295 N 
ATOM     10  N   UNL     1      -4.689  -9.685  11.390  0.00  0.00    -0.269 N 
ATOM     19  C   UNL     1      -3.805 -10.635  11.908  0.00  0.00    +0.304 C 
ATOM     31  H   UNL     1      -3.928  -9.523  13.666  0.00  0.00    +0.151 HD
ATOM     32  H   UNL     1      -5.003  -8.958  12.027  0.00  0.00    +0.156 HD
BRANCH  10  23
ATOM     23  C   UNL     1      -5.208  -9.610  10.076  0.00  0.00    +0.036 A 
ATOM     25  C   UNL     1      -6.446  -9.007   9.849  0.00  0.00    +0.038 A 
ATOM     26  C   UNL     1      -4.482 -10.135   9.008  0.00  0.00    +0.023 A 
ATOM     27  C   UNL     1      -6.958  -8.933   8.553  0.00  0.00    +0.009 A 
ATOM     28  C   UNL     1      -4.993 -10.059   7.712  0.00  0.00    +0.003 A 
ATOM     29  C   UNL     1      -6.231  -9.458   7.485  0.00  0.00    +0.015 A 
BRANCH  27   2
ATOM      2  S   UNL     1      -8.538  -8.162   8.261  0.00  0.00    -0.129 S 
ATOM     30  C   UNL     1      -8.062  -6.431   7.998  0.00  0.00    +0.090 C 
ENDBRANCH  27   2
ENDBRANCH  10  23
ENDBRANCH  12   8
BRANCH  13  16
ATOM      3  O   UNL     1      -5.733 -10.804  14.924  0.00  0.00    -0.274 OA
ATOM      9  N   UNL     1      -5.721 -10.525  17.232  0.00  0.00    -0.294 N 
ATOM     16  C   UNL     1      -5.188 -10.965  16.019  0.00  0.00    +0.236 C 
ATOM     21  C   UNL     1      -6.994  -9.820  17.314  0.00  0.00    +0.132 C 
BRANCH   9  20
ATOM     20  C   UNL     1      -5.041 -10.737  18.507  0.00  0.00    +0.202 C 
BRANCH  20  22
ATOM      6  O   UNL     1      -6.331 -11.132  20.519  0.00  0.00    -0.274 OA
ATOM     11  N   UNL     1      -6.195 -12.799  18.941  0.00  0.00    -0.328 N 
ATOM     22  C   UNL     1      -5.930 -11.538  19.432  0.00  0.00    +0.228 C 
ATOM     33  H   UNL     1      -6.768 -13.451  19.464  0.00  0.00    +0.145 HD
ATOM     34  H   UNL     1      -5.839 -13.118  18.046  0.00  0.00    +0.145 HD
ENDBRANCH  20  22
ENDBRANCH   9  20
ENDBRANCH  13  16
BRANCH  17  18
ATOM     18  C   UNL     1      -4.365 -15.164  14.603  0.00  0.00    +0.164 C 
BRANCH  18   1
ATOM      1  S   UNL     1      -3.367 -16.386  15.466  0.00  0.00    -0.155 S 
ATOM     24  C   UNL     1      -1.801 -16.134  14.594  0.00  0.00    +0.085 C 
ENDBRANCH  18   1
ENDBRANCH  17  18
TORSDOF 8
ENDMDL
MODEL 5
REMARK VINA RESULT:      -5.4      3.248      8.897
REMARK  Name = 7127925
REMARK  11 active torsions:
REMARK  status: ('A' for Active; 'I' for Inactive)
REMARK    1  A    between atoms: S_1  and  C_18
REMARK    2  A    between atoms: S_1  and  C_24
REMARK    3  A    between atoms: S_2  and  C_27
REMARK    4  A    between atoms: S_2  and  C_30
REMARK    5  A    between atoms: N_8  and  C_12
REMARK    6  A    between atoms: N_9  and  C_20
REMARK    7  A    between atoms: N_9  and  C_21
REMARK    8  A    between atoms: N_10  and  C_23
REMARK    9  A    between atoms: C_13  and  C_16
REMARK   10  A    between atoms: C_17  and  C_18
REMARK   11  A    between atoms: C_20  and  C_22
REMARK                            x       y       z     vdW  Elec       q    Type
REMARK                         _______ _______ _______ _____ _____    ______ ____
ROOT
ATOM      4  O   UNL     1       8.863   8.526   4.886  0.00  0.00    -0.275 OA
ATOM      7  N   UNL     1       9.635   6.684   3.717  0.00  0.00    -0.287 N 
ATOM     12  C   UNL     1      10.611   4.682   2.891  0.00  0.00    +0.094 C 
ATOM     13  C   UNL     1       9.922   5.862   4.883  0.00  0.00    +0.164 C 
ATOM     14  C   UNL     1      10.149   4.455   4.332  0.00  0.00    +0.056 C 
ATOM     15  C   UNL     1       9.870   5.948   2.475  0.00  0.00    +0.131 C 
ATOM     17  C   UNL     1       9.046   7.935   3.820  0.00  0.00    +0.226 C 
ENDROOT
BRANCH  12   8
ATOM      5  O   UNL     1      12.182   4.811   0.498  0.00  0.00    -0.253 OA
ATOM      8  N   UNL     1      12.042   4.847   2.806  0.00  0.00    -0.295 N 
ATOM     10  N   UNL     1      14.106   5.066   1.820  0.00  0.00    -0.269 N 
ATOM     19  C   UNL     1      12.737   4.901   1.590  0.00  0.00    +0.304 C 
ATOM     31  H   UNL     1      12.579   4.867   3.668  0.00  0.00    +0.151 HD
ATOM     32  H   UNL     1      14.403   5.122   2.791  0.00  0.00    +0.156 HD
BRANCH  10  23
ATOM     23  C   UNL     1      15.140   5.165   0.860  0.00  0.00    +0.036 A 
ATOM     25  C   UNL     1      15.749   6.397   0.616  0.00  0.00    +0.038 A 
ATOM     26  C   UNL     1      15.553   4.032   0.159  0.00  0.00    +0.023 A 
ATOM     27  C   UNL     1      16.768   6.495  -0.331  0.00  0.00    +0.009 A 
ATOM     28  C   UNL     1      16.573   4.130  -0.786  0.00  0.00    +0.003 A 
ATOM     29  C   UNL     1      17.181   5.362  -1.032  0.00  0.00    +0.015 A 
BRANCH  27   2
ATOM      2  S   UNL     1      17.548   8.067  -0.643  0.00  0.00    -0.129 S 
ATOM     30  C   UNL     1      19.304   7.609  -0.678  0.00  0.00    +0.090 C 
ENDBRANCH  27   2
ENDBRANCH  10  23
ENDBRANCH  12   8
BRANCH  13  16
ATOM      3  O   UNL     1      12.137   6.678   4.872  0.00  0.00    -0.274 OA
ATOM      9  N   UNL     1      11.093   6.534   6.944  0.00  0.00    -0.294 N 
ATOM     16  C   UNL     1      11.151   6.394   5.557  0.00  0.00    +0.236 C 
ATOM     21  C   UNL     1      12.216   7.039   7.724  0.00  0.00    +0.132 C 
BRANCH   9  20
ATOM     20  C   UNL     1       9.903   6.183   7.716  0.00  0.00    +0.202 C 
BRANCH  20  22
ATOM      6  O   UNL     1      10.401   5.150   9.850  0.00  0.00    -0.274 OA
ATOM     11  N   UNL     1      10.331   3.833   7.966  0.00  0.00    -0.328 N 
ATOM     22  C   UNL     1      10.218   5.030   8.641  0.00  0.00    +0.228 C 
ATOM     33  H   UNL     1      10.554   2.976   8.460  0.00  0.00    +0.145 HD
ATOM     34  H   UNL     1      10.190   3.760   6.964  0.00  0.00    +0.145 HD
ENDBRANCH  20  22
ENDBRANCH   9  20
ENDBRANCH  13  16
BRANCH  17  18
ATOM     18  C   UNL     1       8.635   8.571   2.517  0.00  0.00    +0.164 C 
BRANCH  18   1
ATOM      1  S   UNL     1       8.070  10.240   2.876  0.00  0.00    -0.155 S 
ATOM     24  C   UNL     1       6.301   9.903   3.059  0.00  0.00    +0.085 C 
ENDBRANCH  18   1
ENDBRANCH  17  18
TORSDOF 8
ENDMDL
MODEL 6
REMARK VINA RESULT:      -5.3     24.694     27.034
REMARK  Name = 7127925
REMARK  11 active torsions:
REMARK  status: ('A' for Active; 'I' for Inactive)
REMARK    1  A    between atoms: S_1  and  C_18
REMARK    2  A    between atoms: S_1  and  C_24
REMARK    3  A    between atoms: S_2  and  C_27
REMARK    4  A    between atoms: S_2  and  C_30
REMARK    5  A    between atoms: N_8  and  C_12
REMARK    6  A    between atoms: N_9  and  C_20
REMARK    7  A    between atoms: N_9  and  C_21
REMARK    8  A    between atoms: N_10  and  C_23
REMARK    9  A    between atoms: C_13  and  C_16
REMARK   10  A    between atoms: C_17  and  C_18
REMARK   11  A    between atoms: C_20  and  C_22
REMARK                            x       y       z     vdW  Elec       q    Type
REMARK                         _______ _______ _______ _____ _____    ______ ____
ROOT
ATOM      4  O   UNL     1      -3.822 -13.841  15.122  0.00  0.00    -0.275 OA
ATOM      7  N   UNL     1      -3.407 -12.688  13.159  0.00  0.00    -0.287 N 
ATOM     12  C   UNL     1      -3.183 -11.178  11.339  0.00  0.00    +0.094 C 
ATOM     13  C   UNL     1      -3.580 -11.355  13.716  0.00  0.00    +0.164 C 
ATOM     14  C   UNL     1      -3.033 -10.405  12.652  0.00  0.00    +0.056 C 
ATOM     15  C   UNL     1      -2.990 -12.632  11.758  0.00  0.00    +0.131 C 
ATOM     17  C   UNL     1      -3.466 -13.831  13.943  0.00  0.00    +0.226 C 
ENDROOT
BRANCH  12   8
ATOM      5  O   UNL     1      -3.810  -9.315   9.254  0.00  0.00    -0.253 OA
ATOM      8  N   UNL     1      -4.475 -10.962  10.736  0.00  0.00    -0.295 N 
ATOM     10  N   UNL     1      -6.042 -10.039   9.330  0.00  0.00    -0.269 N 
ATOM     19  C   UNL     1      -4.698 -10.027   9.715  0.00  0.00    +0.304 C 
ATOM     31  H   UNL     1      -5.274 -11.469  11.105  0.00  0.00    +0.151 HD
ATOM     32  H   UNL     1      -6.651 -10.693   9.816  0.00  0.00    +0.156 HD
BRANCH  10  23
ATOM     23  C   UNL     1      -6.666  -9.247   8.337  0.00  0.00    +0.036 A 
ATOM     25  C   UNL     1      -7.441  -8.147   8.708  0.00  0.00    +0.038 A 
ATOM     26  C   UNL     1      -6.505  -9.565   6.989  0.00  0.00    +0.023 A 
ATOM     27  C   UNL     1      -8.056  -7.368   7.729  0.00  0.00    +0.009 A 
ATOM     28  C   UNL     1      -7.120  -8.784   6.010  0.00  0.00    +0.003 A 
ATOM     29  C   UNL     1      -7.895  -7.685   6.380  0.00  0.00    +0.015 A 
BRANCH  27   2
ATOM      2  S   UNL     1      -9.045  -5.961   8.199  0.00  0.00    -0.129 S 
ATOM     30  C   UNL     1     -10.659  -6.389   7.488  0.00  0.00    +0.090 C 
ENDBRANCH  27   2
ENDBRANCH  10  23
ENDBRANCH  12   8
BRANCH  13  16
ATOM      3  O   UNL     1      -5.859 -11.482  13.112  0.00  0.00    -0.274 OA
ATOM      9  N   UNL     1      -5.381 -10.498  15.163  0.00  0.00    -0.294 N 
ATOM     16  C   UNL     1      -5.040 -11.122  13.961  0.00  0.00    +0.236 C 
ATOM     21  C   UNL     1      -6.762 -10.211  15.528  0.00  0.00    +0.132 C 
BRANCH   9  20
ATOM     20  C   UNL     1      -4.377 -10.087  16.141  0.00  0.00    +0.202 C 
BRANCH  20  22
ATOM      6  O   UNL     1      -5.209 -10.543  18.370  0.00  0.00    -0.274 OA
ATOM     11  N   UNL     1      -3.797 -12.063  17.377  0.00  0.00    -0.328 N 
ATOM     22  C   UNL     1      -4.536 -10.900  17.406  0.00  0.00    +0.228 C 
ATOM     33  H   UNL     1      -3.797 -12.700  18.166  0.00  0.00    +0.145 HD
ATOM     34  H   UNL     1      -3.236 -12.329  16.575  0.00  0.00    +0.145 HD
ENDBRANCH  20  22
ENDBRANCH   9  20
ENDBRANCH  13  16
BRANCH  17  18
ATOM     18  C   UNL     1      -3.071 -15.113  13.255  0.00  0.00    +0.164 C 
BRANCH  18   1
ATOM      1  S   UNL     1      -1.893 -15.963  14.317  0.00  0.00    -0.155 S 
ATOM     24  C   UNL     1      -0.383 -15.643  13.372  0.00  0.00    +0.085 C 
ENDBRANCH  18   1
ENDBRANCH  17  18
TORSDOF 8
ENDMDL
MODEL 7
REMARK VINA RESULT:      -5.3     25.674     30.473
REMARK  Name = 7127925
REMARK  11 active torsions:
REMARK  status: ('A' for Active; 'I' for Inactive)
REMARK    1  A    between atoms: S_1  and  C_18
REMARK    2  A    between atoms: S_1  and  C_24
REMARK    3  A    between atoms: S_2  and  C_27
REMARK    4  A    between atoms: S_2  and  C_30
REMARK    5  A    between atoms: N_8  and  C_12
REMARK    6  A    between atoms: N_9  and  C_20
REMARK    7  A    between atoms: N_9  and  C_21
REMARK    8  A    between atoms: N_10  and  C_23
REMARK    9  A    between atoms: C_13  and  C_16
REMARK   10  A    between atoms: C_17  and  C_18
REMARK   11  A    between atoms: C_20  and  C_22
REMARK                            x       y       z     vdW  Elec       q    Type
REMARK                         _______ _______ _______ _____ _____    ______ ____
ROOT
ATOM      4  O   UNL     1     -10.367 -12.011  19.117  0.00  0.00    -0.275 OA
ATOM      7  N   UNL     1      -8.059 -11.878  19.019  0.00  0.00    -0.287 N 
ATOM     12  C   UNL     1      -5.760 -11.434  18.621  0.00  0.00    +0.094 C 
ATOM     13  C   UNL     1      -8.001 -10.556  18.413  0.00  0.00    +0.164 C 
ATOM     14  C   UNL     1      -6.542 -10.121  18.548  0.00  0.00    +0.056 C 
ATOM     15  C   UNL     1      -6.722 -12.383  19.329  0.00  0.00    +0.131 C 
ATOM     17  C   UNL     1      -9.257 -12.466  19.397  0.00  0.00    +0.226 C 
ENDROOT
BRANCH  12   8
ATOM      5  O   UNL     1      -4.480  -9.939  16.538  0.00  0.00    -0.253 OA
ATOM      8  N   UNL     1      -5.399 -11.916  17.311  0.00  0.00    -0.295 N 
ATOM     10  N   UNL     1      -4.546 -11.852  15.178  0.00  0.00    -0.269 N 
ATOM     19  C   UNL     1      -4.771 -11.117  16.345  0.00  0.00    +0.304 C 
ATOM     31  H   UNL     1      -5.662 -12.863  17.053  0.00  0.00    +0.151 HD
ATOM     32  H   UNL     1      -4.850 -12.822  15.183  0.00  0.00    +0.156 HD
BRANCH  10  23
ATOM     23  C   UNL     1      -3.939 -11.409  13.979  0.00  0.00    +0.036 A 
ATOM     25  C   UNL     1      -4.637 -10.565  13.114  0.00  0.00    +0.038 A 
ATOM     26  C   UNL     1      -2.642 -11.814  13.663  0.00  0.00    +0.023 A 
ATOM     27  C   UNL     1      -4.038 -10.129  11.933  0.00  0.00    +0.009 A 
ATOM     28  C   UNL     1      -2.044 -11.377  12.482  0.00  0.00    +0.003 A 
ATOM     29  C   UNL     1      -2.741 -10.534  11.616  0.00  0.00    +0.015 A 
BRANCH  27   2
ATOM      2  S   UNL     1      -4.927  -9.050  10.828  0.00  0.00    -0.129 S 
ATOM     30  C   UNL     1      -3.826  -9.007   9.386  0.00  0.00    +0.090 C 
ENDBRANCH  27   2
ENDBRANCH  10  23
ENDBRANCH  12   8
BRANCH  13  16
ATOM      3  O   UNL     1      -8.291 -11.747  16.396  0.00  0.00    -0.274 OA
ATOM      9  N   UNL     1      -8.911  -9.507  16.378  0.00  0.00    -0.294 N 
ATOM     16  C   UNL     1      -8.411 -10.665  16.976  0.00  0.00    +0.236 C 
ATOM     21  C   UNL     1      -9.346  -9.473  14.988  0.00  0.00    +0.132 C 
BRANCH   9  20
ATOM     20  C   UNL     1      -9.035  -8.244  17.103  0.00  0.00    +0.202 C 
BRANCH  20  22
ATOM      6  O   UNL     1     -11.337  -8.693  17.706  0.00  0.00    -0.274 OA
ATOM     11  N   UNL     1     -10.789  -6.619  16.877  0.00  0.00    -0.328 N 
ATOM     22  C   UNL     1     -10.496  -7.903  17.286  0.00  0.00    +0.228 C 
ATOM     33  H   UNL     1     -11.736  -6.260  16.929  0.00  0.00    +0.145 HD
ATOM     34  H   UNL     1     -10.079  -5.989  16.518  0.00  0.00    +0.145 HD
ENDBRANCH  20  22
ENDBRANCH   9  20
ENDBRANCH  13  16
BRANCH  17  18
ATOM     18  C   UNL     1      -9.134 -13.745  20.185  0.00  0.00    +0.164 C 
BRANCH  18   1
ATOM      1  S   UNL     1     -10.768 -14.491  20.276  0.00  0.00    -0.155 S 
ATOM     24  C   UNL     1     -11.166 -14.082  21.994  0.00  0.00    +0.085 C 
ENDBRANCH  18   1
ENDBRANCH  17  18
TORSDOF 8
ENDMDL
MODEL 8
REMARK VINA RESULT:      -5.1     24.830     29.248
REMARK  Name = 7127925
REMARK  11 active torsions:
REMARK  status: ('A' for Active; 'I' for Inactive)
REMARK    1  A    between atoms: S_1  and  C_18
REMARK    2  A    between atoms: S_1  and  C_24
REMARK    3  A    between atoms: S_2  and  C_27
REMARK    4  A    between atoms: S_2  and  C_30
REMARK    5  A    between atoms: N_8  and  C_12
REMARK    6  A    between atoms: N_9  and  C_20
REMARK    7  A    between atoms: N_9  and  C_21
REMARK    8  A    between atoms: N_10  and  C_23
REMARK    9  A    between atoms: C_13  and  C_16
REMARK   10  A    between atoms: C_17  and  C_18
REMARK   11  A    between atoms: C_20  and  C_22
REMARK                            x       y       z     vdW  Elec       q    Type
REMARK                         _______ _______ _______ _____ _____    ______ ____
ROOT
ATOM      4  O   UNL     1      -6.711 -14.346  17.281  0.00  0.00    -0.275 OA
ATOM      7  N   UNL     1      -5.148 -12.857  16.448  0.00  0.00    -0.287 N 
ATOM     12  C   UNL     1      -3.811 -11.025  15.742  0.00  0.00    +0.094 C 
ATOM     13  C   UNL     1      -5.574 -11.715  17.243  0.00  0.00    +0.164 C 
ATOM     14  C   UNL     1      -4.458 -10.683  17.087  0.00  0.00    +0.056 C 
ATOM     15  C   UNL     1      -3.966 -12.539  15.647  0.00  0.00    +0.131 C 
ATOM     17  C   UNL     1      -5.713 -14.115  16.597  0.00  0.00    +0.226 C 
ENDROOT
BRANCH  12   8
ATOM      5  O   UNL     1      -3.327 -11.432  12.947  0.00  0.00    -0.253 OA
ATOM      8  N   UNL     1      -4.463 -10.350  14.647  0.00  0.00    -0.295 N 
ATOM     10  N   UNL     1      -4.953  -9.807  12.469  0.00  0.00    -0.269 N 
ATOM     19  C   UNL     1      -4.167 -10.609  13.302  0.00  0.00    +0.304 C 
ATOM     31  H   UNL     1      -5.126  -9.611  14.860  0.00  0.00    +0.151 HD
ATOM     32  H   UNL     1      -5.605  -9.174  12.925  0.00  0.00    +0.156 HD
BRANCH  10  23
ATOM     23  C   UNL     1      -4.956  -9.769  11.054  0.00  0.00    +0.036 A 
ATOM     25  C   UNL     1      -5.823 -10.594  10.336  0.00  0.00    +0.038 A 
ATOM     26  C   UNL     1      -4.095  -8.905  10.379  0.00  0.00    +0.023 A 
ATOM     27  C   UNL     1      -5.825 -10.555   8.942  0.00  0.00    +0.009 A 
ATOM     28  C   UNL     1      -4.099  -8.866   8.984  0.00  0.00    +0.003 A 
ATOM     29  C   UNL     1      -4.964  -9.691   8.266  0.00  0.00    +0.015 A 
BRANCH  27   2
ATOM      2  S   UNL     1      -6.932 -11.607   8.023  0.00  0.00    -0.129 S 
ATOM     30  C   UNL     1      -5.824 -12.301   6.764  0.00  0.00    +0.090 C 
ENDBRANCH  27   2
ENDBRANCH  10  23
ENDBRANCH  12   8
BRANCH  13  16
ATOM      3  O   UNL     1      -7.041 -11.168  15.477  0.00  0.00    -0.274 OA
ATOM      9  N   UNL     1      -7.828 -10.799  17.633  0.00  0.00    -0.294 N 
ATOM     16  C   UNL     1      -6.873 -11.205  16.699  0.00  0.00    +0.236 C 
ATOM     21  C   UNL     1      -9.133 -10.284  17.241  0.00  0.00    +0.132 C 
BRANCH   9  20
ATOM     20  C   UNL     1      -7.586 -10.860  19.073  0.00  0.00    +0.202 C 
BRANCH  20  22
ATOM      6  O   UNL     1      -9.538 -11.680  20.249  0.00  0.00    -0.274 OA
ATOM     11  N   UNL     1      -7.916 -13.178  19.610  0.00  0.00    -0.328 N 
ATOM     22  C   UNL     1      -8.470 -11.919  19.693  0.00  0.00    +0.228 C 
ATOM     33  H   UNL     1      -8.394 -13.984  19.998  0.00  0.00    +0.145 HD
ATOM     34  H   UNL     1      -7.024 -13.349  19.158  0.00  0.00    +0.145 HD
ENDBRANCH  20  22
ENDBRANCH   9  20
ENDBRANCH  13  16
BRANCH  17  18
ATOM     18  C   UNL     1      -5.030 -15.228  15.845  0.00  0.00    +0.164 C 
BRANCH  18   1
ATOM      1  S   UNL     1      -4.153 -16.241  17.044  0.00  0.00    -0.155 S 
ATOM     24  C   UNL     1      -3.095 -17.169  15.906  0.00  0.00    +0.085 C 
ENDBRANCH  18   1
ENDBRANCH  17  18
TORSDOF 8
ENDMDL
MODEL 9
REMARK VINA RESULT:      -5.0     26.588     31.383
REMARK  Name = 7127925
REMARK  11 active torsions:
REMARK  status: ('A' for Active; 'I' for Inactive)
REMARK    1  A    between atoms: S_1  and  C_18
REMARK    2  A    between atoms: S_1  and  C_24
REMARK    3  A    between atoms: S_2  and  C_27
REMARK    4  A    between atoms: S_2  and  C_30
REMARK    5  A    between atoms: N_8  and  C_12
REMARK    6  A    between atoms: N_9  and  C_20
REMARK    7  A    between atoms: N_9  and  C_21
REMARK    8  A    between atoms: N_10  and  C_23
REMARK    9  A    between atoms: C_13  and  C_16
REMARK   10  A    between atoms: C_17  and  C_18
REMARK   11  A    between atoms: C_20  and  C_22
REMARK                            x       y       z     vdW  Elec       q    Type
REMARK                         _______ _______ _______ _____ _____    ______ ____
ROOT
ATOM      4  O   UNL     1     -11.869 -12.970  18.659  0.00  0.00    -0.275 OA
ATOM      7  N   UNL     1      -9.647 -12.601  19.190  0.00  0.00    -0.287 N 
ATOM     12  C   UNL     1      -7.398 -11.888  19.465  0.00  0.00    +0.094 C 
ATOM     13  C   UNL     1      -9.608 -11.211  18.761  0.00  0.00    +0.164 C 
ATOM     14  C   UNL     1      -8.298 -10.659  19.322  0.00  0.00    +0.056 C 
ATOM     15  C   UNL     1      -8.377 -13.011  19.790  0.00  0.00    +0.131 C 
ATOM     17  C   UNL     1     -10.816 -13.348  19.175  0.00  0.00    +0.226 C 
ENDROOT
BRANCH  12   8
ATOM      5  O   UNL     1      -5.158 -10.408  18.462  0.00  0.00    -0.253 OA
ATOM      8  N   UNL     1      -6.660 -12.155  18.255  0.00  0.00    -0.295 N 
ATOM     10  N   UNL     1      -5.058 -11.875  16.631  0.00  0.00    -0.269 N 
ATOM     19  C   UNL     1      -5.571 -11.380  17.834  0.00  0.00    +0.304 C 
ATOM     31  H   UNL     1      -6.979 -12.905  17.649  0.00  0.00    +0.151 HD
ATOM     32  H   UNL     1      -5.518 -12.693  16.240  0.00  0.00    +0.156 HD
BRANCH  10  23
ATOM     23  C   UNL     1      -3.965 -11.375  15.884  0.00  0.00    +0.036 A 
ATOM     25  C   UNL     1      -4.069 -11.245  14.499  0.00  0.00    +0.038 A 
ATOM     26  C   UNL     1      -2.786 -11.011  16.533  0.00  0.00    +0.023 A 
ATOM     27  C   UNL     1      -2.992 -10.753  13.763  0.00  0.00    +0.009 A 
ATOM     28  C   UNL     1      -1.709 -10.517  15.796  0.00  0.00    +0.003 A 
ATOM     29  C   UNL     1      -1.811 -10.388  14.411  0.00  0.00    +0.015 A 
BRANCH  27   2
ATOM      2  S   UNL     1      -3.123 -10.584  11.993  0.00  0.00    -0.129 S 
ATOM     30  C   UNL     1      -1.536  -9.808  11.577  0.00  0.00    +0.090 C 
ENDBRANCH  27   2
ENDBRANCH  10  23
ENDBRANCH  12   8
BRANCH  13  16
ATOM      3  O   UNL     1      -8.954 -11.987  16.629  0.00  0.00    -0.274 OA
ATOM      9  N   UNL     1     -10.419 -10.183  16.674  0.00  0.00    -0.294 N 
ATOM     16  C   UNL     1      -9.625 -11.169  17.263  0.00  0.00    +0.236 C 
ATOM     21  C   UNL     1     -10.527 -10.029  15.229  0.00  0.00    +0.132 C 
BRANCH   9  20
ATOM     20  C   UNL     1     -11.198  -9.232  17.464  0.00  0.00    +0.202 C 
BRANCH  20  22
ATOM      6  O   UNL     1     -11.332  -6.949  16.665  0.00  0.00    -0.274 OA
ATOM     11  N   UNL     1      -9.386  -7.667  17.657  0.00  0.00    -0.328 N 
ATOM     22  C   UNL     1     -10.684  -7.830  17.225  0.00  0.00    +0.228 C 
ATOM     33  H   UNL     1      -8.908  -6.780  17.547  0.00  0.00    +0.145 HD
ATOM     34  H   UNL     1      -8.865  -8.415  18.103  0.00  0.00    +0.145 HD
ENDBRANCH  20  22
ENDBRANCH   9  20
ENDBRANCH  13  16
BRANCH  17  18
ATOM     18  C   UNL     1     -10.732 -14.702  19.832  0.00  0.00    +0.164 C 
BRANCH  18   1
ATOM      1  S   UNL     1     -10.603 -15.935  18.530  0.00  0.00    -0.155 S 
ATOM     24  C   UNL     1     -12.245 -16.680  18.686  0.00  0.00    +0.085 C 
ENDBRANCH  18   1
ENDBRANCH  17  18
TORSDOF 8
ENDMDL
MODEL 10
REMARK VINA RESULT:      -5.0     43.281     45.545
REMARK  Name = 7127925
REMARK  11 active torsions:
REMARK  status: ('A' for Active; 'I' for Inactive)
REMARK    1  A    between atoms: S_1  and  C_18
REMARK    2  A    between atoms: S_1  and  C_24
REMARK    3  A    between atoms: S_2  and  C_27
REMARK    4  A    between atoms: S_2  and  C_30
REMARK    5  A    between atoms: N_8  and  C_12
REMARK    6  A    between atoms: N_9  and  C_20
REMARK    7  A    between atoms: N_9  and  C_21
REMARK    8  A    between atoms: N_10  and  C_23
REMARK    9  A    between atoms: C_13  and  C_16
REMARK   10  A    between atoms: C_17  and  C_18
REMARK   11  A    between atoms: C_20  and  C_22
REMARK                            x       y       z     vdW  Elec       q    Type
REMARK                         _______ _______ _______ _____ _____    ______ ____
ROOT
ATOM      4  O   UNL     1      -8.278  -4.054  40.619  0.00  0.00    -0.275 OA
ATOM      7  N   UNL     1      -9.048  -6.183  40.137  0.00  0.00    -0.287 N 
ATOM     12  C   UNL     1      -9.436  -8.493  39.739  0.00  0.00    +0.094 C 
ATOM     13  C   UNL     1      -7.998  -6.898  40.847  0.00  0.00    +0.164 C 
ATOM     14  C   UNL     1      -8.489  -8.342  40.932  0.00  0.00    +0.056 C 
ATOM     15  C   UNL     1     -10.047  -7.103  39.593  0.00  0.00    +0.131 C 
ATOM     17  C   UNL     1      -9.141  -4.799  40.152  0.00  0.00    +0.226 C 
ENDROOT
BRANCH  12   8
ATOM      5  O   UNL     1      -8.484 -11.124  39.121  0.00  0.00    -0.253 OA
ATOM      8  N   UNL     1      -8.735  -8.897  38.546  0.00  0.00    -0.295 N 
ATOM     10  N   UNL     1      -7.655 -10.303  37.084  0.00  0.00    -0.269 N 
ATOM     19  C   UNL     1      -8.302 -10.211  38.319  0.00  0.00    +0.304 C 
ATOM     31  H   UNL     1      -8.492  -8.187  37.862  0.00  0.00    +0.151 HD
ATOM     32  H   UNL     1      -7.588  -9.448  36.538  0.00  0.00    +0.156 HD
BRANCH  10  23
ATOM     23  C   UNL     1      -7.077 -11.451  36.491  0.00  0.00    +0.036 A 
ATOM     25  C   UNL     1      -5.739 -11.762  36.732  0.00  0.00    +0.038 A 
ATOM     26  C   UNL     1      -7.847 -12.273  35.668  0.00  0.00    +0.023 A 
ATOM     27  C   UNL     1      -5.170 -12.893  36.148  0.00  0.00    +0.009 A 
ATOM     28  C   UNL     1      -7.278 -13.405  35.085  0.00  0.00    +0.003 A 
ATOM     29  C   UNL     1      -5.939 -13.715  35.325  0.00  0.00    +0.015 A 
BRANCH  27   2
ATOM      2  S   UNL     1      -3.460 -13.292  36.456  0.00  0.00    -0.129 S 
ATOM     30  C   UNL     1      -3.189 -14.670  35.305  0.00  0.00    +0.090 C 
ENDBRANCH  27   2
ENDBRANCH  10  23
ENDBRANCH  12   8
BRANCH  13  16
ATOM      3  O   UNL     1      -6.780  -6.778  38.829  0.00  0.00    -0.274 OA
ATOM      9  N   UNL     1      -5.541  -6.722  40.795  0.00  0.00    -0.294 N 
ATOM     16  C   UNL     1      -6.727  -6.795  40.061  0.00  0.00    +0.236 C 
ATOM     21  C   UNL     1      -4.235  -6.619  40.157  0.00  0.00    +0.132 C 
BRANCH   9  20
ATOM     20  C   UNL     1      -5.524  -6.746  42.255  0.00  0.00    +0.202 C 
BRANCH  20  22
ATOM      6  O   UNL     1      -4.232  -4.838  43.001  0.00  0.00    -0.274 OA
ATOM     11  N   UNL     1      -6.528  -4.714  43.051  0.00  0.00    -0.328 N 
ATOM     22  C   UNL     1      -5.331  -5.344  42.785  0.00  0.00    +0.228 C 
ATOM     33  H   UNL     1      -6.549  -3.772  43.425  0.00  0.00    +0.145 HD
ATOM     34  H   UNL     1      -7.424  -5.158  42.878  0.00  0.00    +0.145 HD
ENDBRANCH  20  22
ENDBRANCH   9  20
ENDBRANCH  13  16
BRANCH  17  18
ATOM     18  C   UNL     1     -10.391  -4.224  39.535  0.00  0.00    +0.164 C 
BRANCH  18   1
ATOM      1  S   UNL     1     -10.588  -2.549  40.158  0.00  0.00    -0.155 S 
ATOM     24  C   UNL     1     -10.034  -1.639  38.695  0.00  0.00    +0.085 C 
ENDBRANCH  18   1
ENDBRANCH  17  18
TORSDOF 8
ENDMDL
