REMARK  Name = 25391126
REMARK  6 active torsions:
REMARK  status: ('A' for Active; 'I' for Inactive)
REMARK    1  A    between atoms: N_7  and  C_21
REMARK    2  A    between atoms: C_10  and  C_14
REMARK    3  A    between atoms: C_11  and  C_20
REMARK    4  A    between atoms: C_21  and  C_22
REMARK    5  A    between atoms: C_21  and  C_24
REMARK    6  A    between atoms: C_22  and  C_23
REMARK                            x       y       z     vdW  Elec       q    Type
REMARK                         _______ _______ _______ _____ _____    ______ ____
ROOT
ATOM      2  O   UNL     1      -2.522  -1.706  -1.066  0.00  0.00    -0.274 OA
ATOM      7  N   UNL     1      -2.122   0.110   0.336  0.00  0.00    -0.302 N 
ATOM     20  C   UNL     1      -2.013  -1.212  -0.063  0.00  0.00    +0.235 C 
ATOM     34  H   UNL     1      -1.715   0.399   1.220  0.00  0.00    +0.150 HD
ENDROOT
BRANCH  20  11
ATOM      1  O   UNL     1       1.306  -0.652   0.800  0.00  0.00    -0.275 OA
ATOM      4  N   UNL     1       0.011  -2.453   0.101  0.00  0.00    -0.287 N 
ATOM      6  N   UNL     1      -2.177  -4.269   0.543  0.00  0.00    -0.312 NA
ATOM     11  C   UNL     1      -1.159  -2.019   0.872  0.00  0.00    +0.176 C 
ATOM     14  C   UNL     1       1.153  -1.646   0.086  0.00  0.00    +0.219 C 
ATOM     15  C   UNL     1      -0.177  -3.639  -0.747  0.00  0.00    +0.123 C 
ATOM     16  C   UNL     1      -1.933  -3.182   1.494  0.00  0.00    +0.113 C 
ATOM     19  C   UNL     1      -0.916  -4.753  -0.014  0.00  0.00    +0.100 C 
ATOM     33  H   UNL     1      -2.765  -3.922  -0.215  0.00  0.00    +0.122 HD
BRANCH  14  10
ATOM      5  N   UNL     1       4.864  -1.250   0.188  0.00  0.00    -0.316 NA
ATOM     10  C   UNL     1       2.245  -2.042  -0.868  0.00  0.00    +0.078 C 
ATOM     12  C   UNL     1       3.204  -3.039  -0.214  0.00  0.00    +0.028 C 
ATOM     13  C   UNL     1       2.998  -0.811  -1.376  0.00  0.00    +0.028 C 
ATOM     17  C   UNL     1       4.141  -2.368   0.792  0.00  0.00    +0.081 C 
ATOM     18  C   UNL     1       3.943  -0.234  -0.321  0.00  0.00    +0.081 C 
ATOM     32  H   UNL     1       5.478  -0.830   0.884  0.00  0.00    +0.122 HD
ENDBRANCH  14  10
ENDBRANCH  20  11
BRANCH   7  21
ATOM     21  C   UNL     1      -2.870   1.100  -0.404  0.00  0.00    +0.163 C 
BRANCH  21  24
ATOM      3  O   UNL     1      -4.637   0.767   1.231  0.00  0.00    -0.274 OA
ATOM      9  N   UNL     1      -5.222   1.312  -0.922  0.00  0.00    -0.328 N 
ATOM     24  C   UNL     1      -4.313   1.020   0.073  0.00  0.00    +0.231 C 
ATOM     36  H   UNL     1      -4.938   1.542  -1.869  0.00  0.00    +0.145 HD
ATOM     37  H   UNL     1      -6.219   1.308  -0.734  0.00  0.00    +0.145 HD
ENDBRANCH  21  24
BRANCH  21  22
ATOM     22  C   UNL     1      -2.318   2.515  -0.201  0.00  0.00    +0.069 C 
BRANCH  22  23
ATOM      8  N   UNL     1       0.963   2.609  -1.871  0.00  0.00    -0.360 N 
ATOM     23  C   UNL     1      -0.878   2.648  -0.632  0.00  0.00    -0.020 A 
ATOM     25  C   UNL     1       0.210   3.090   0.173  0.00  0.00    +0.003 A 
ATOM     26  C   UNL     1      -0.383   2.360  -1.883  0.00  0.00    +0.087 A 
ATOM     27  C   UNL     1       1.353   3.056  -0.628  0.00  0.00    +0.047 A 
ATOM     28  C   UNL     1       0.331   3.516   1.510  0.00  0.00    +0.010 A 
ATOM     29  C   UNL     1       2.617   3.429  -0.157  0.00  0.00    +0.026 A 
ATOM     30  C   UNL     1       1.589   3.893   1.995  0.00  0.00    +0.001 A 
ATOM     31  C   UNL     1       2.713   3.849   1.172  0.00  0.00    +0.002 A 
ATOM     35  H   UNL     1       1.583   2.482  -2.659  0.00  0.00    +0.165 HD
ENDBRANCH  22  23
ENDBRANCH  21  22
ENDBRANCH   7  21
TORSDOF 6
