REMARK  Name = 7674728
REMARK  4 active torsions:
REMARK  status: ('A' for Active; 'I' for Inactive)
REMARK    1  A    between atoms: O_7  and  C_31
REMARK    2  A    between atoms: O_7  and  C_35
REMARK    3  A    between atoms: N_10  and  C_24
REMARK    4  A    between atoms: C_21  and  C_23
REMARK                            x       y       z     vdW  Elec       q    Type
REMARK                         _______ _______ _______ _____ _____    ______ ____
ROOT
ATOM      5  O   UNL     1      -0.449  -1.278   1.823  0.00  0.00    -0.267 OA
ATOM      6  O   UNL     1       3.512   0.776  -1.871  0.00  0.00    -0.252 OA
ATOM      8  N   UNL     1       4.107  -0.719  -0.208  0.00  0.00    -0.284 N 
ATOM      9  N   UNL     1       1.376  -2.134   0.650  0.00  0.00    -0.311 N 
ATOM     10  N   UNL     1       3.789   1.565   0.292  0.00  0.00    -0.269 N 
ATOM     11  C   UNL     1       3.712  -2.317   1.681  0.00  0.00    +0.027 C 
ATOM     12  C   UNL     1       3.340  -3.048  -0.635  0.00  0.00    +0.054 C 
ATOM     13  C   UNL     1       3.900  -3.482   0.717  0.00  0.00    +0.018 C 
ATOM     14  C   UNL     1       2.209  -2.064   1.859  0.00  0.00    +0.130 C 
ATOM     15  C   UNL     1       4.451  -1.060   1.182  0.00  0.00    +0.114 C 
ATOM     16  C   UNL     1       4.146  -1.843  -1.151  0.00  0.00    +0.119 C 
ATOM     17  C   UNL     1       1.872  -2.680  -0.536  0.00  0.00    +0.027 A 
ATOM     18  C   UNL     1       1.059  -2.847  -1.591  0.00  0.00    +0.022 A 
ATOM     19  C   UNL     1       0.034  -1.729   0.782  0.00  0.00    +0.259 A 
ATOM     20  C   UNL     1       3.773   0.569  -0.684  0.00  0.00    +0.306 C 
ATOM     21  C   UNL     1      -0.842  -1.889  -0.431  0.00  0.00    +0.047 A 
ATOM     22  C   UNL     1      -0.316  -2.438  -1.536  0.00  0.00    +0.015 A 
ATOM     36  H   UNL     1       4.405   1.446   1.089  0.00  0.00    +0.156 HD
ENDROOT
BRANCH  10  24
ATOM      1  F   UNL     1       0.562   4.489  -1.723  0.00  0.00    -0.205 F 
ATOM     24  C   UNL     1       3.064   2.782   0.285  0.00  0.00    +0.037 A 
ATOM     29  C   UNL     1       2.154   3.039  -0.736  0.00  0.00    +0.061 A 
ATOM     30  C   UNL     1       3.267   3.714   1.299  0.00  0.00    +0.023 A 
ATOM     32  C   UNL     1       1.440   4.237  -0.743  0.00  0.00    +0.125 A 
ATOM     33  C   UNL     1       2.554   4.912   1.292  0.00  0.00    +0.005 A 
ATOM     34  C   UNL     1       1.640   5.174   0.271  0.00  0.00    +0.038 A 
ENDBRANCH  10  24
BRANCH  21  23
ATOM     23  C   UNL     1      -2.247  -1.447  -0.422  0.00  0.00    -0.012 A 
ATOM     25  C   UNL     1      -3.256  -2.331  -0.036  0.00  0.00    +0.012 A 
ATOM     26  C   UNL     1      -2.571  -0.143  -0.799  0.00  0.00    +0.012 A 
ATOM     27  C   UNL     1      -4.586  -1.912  -0.028  0.00  0.00    +0.046 A 
ATOM     28  C   UNL     1      -3.902   0.276  -0.791  0.00  0.00    +0.046 A 
ATOM     31  C   UNL     1      -4.909  -0.608  -0.405  0.00  0.00    +0.130 A 
BRANCH  31   7
ATOM      7  O   UNL     1      -6.207  -0.200  -0.398  0.00  0.00    -0.406 OA
BRANCH   7  35
ATOM      2  F   UNL     1      -5.775   0.949   1.532  0.00  0.00    -0.133 F 
ATOM      3  F   UNL     1      -7.841   0.728   0.854  0.00  0.00    -0.133 F 
ATOM      4  F   UNL     1      -6.496   2.063  -0.235  0.00  0.00    -0.133 F 
ATOM     35  C   UNL     1      -6.564   0.895   0.439  0.00  0.00    +0.575 C 
ENDBRANCH   7  35
ENDBRANCH  31   7
ENDBRANCH  21  23
TORSDOF 4
