MODEL 1
REMARK VINA RESULT:      -5.9      0.000      0.000
REMARK  Name = 75367061
REMARK  10 active torsions:
REMARK  status: ('A' for Active; 'I' for Inactive)
REMARK    1  A    between atoms: O_2  and  C_8
REMARK    2  A    between atoms: N_4  and  C_6
REMARK    3  A    between atoms: N_4  and  C_7
REMARK    4  A    between atoms: N_5  and  C_16
REMARK    5  A    between atoms: C_9  and  C_16
REMARK    6  A    between atoms: C_17  and  C_18
REMARK    7  A    between atoms: C_17  and  C_20
REMARK    8  A    between atoms: C_17  and  C_21
REMARK    9  A    between atoms: C_17  and  C_22
REMARK   10  A    between atoms: C_18  and  C_19
REMARK                            x       y       z     vdW  Elec       q    Type
REMARK                         _______ _______ _______ _____ _____    ______ ____
ROOT
ATOM      1  O   UNL     1      13.295   8.508  22.043  0.00  0.00    -0.371 OA
ATOM      6  C   UNL     1      11.594  10.139  22.339  0.00  0.00    +0.111 C 
ATOM      8  C   UNL     1      10.969   8.866  21.799  0.00  0.00    +0.164 C 
ATOM      9  C   UNL     1      12.029   7.838  22.172  0.00  0.00    +0.165 C 
ATOM     12  C   UNL     1      13.058   9.926  21.993  0.00  0.00    +0.181 C 
ENDROOT
BRANCH   8   2
ATOM      2  O   UNL     1       9.721   8.574  22.396  0.00  0.00    -0.388 OA
ATOM     24  H   UNL     1       9.763   7.680  22.775  0.00  0.00    +0.210 HD
ENDBRANCH   8   2
BRANCH   6   4
ATOM      4  N   UNL     1      11.044  11.351  21.755  0.00  0.00    -0.306 NA
ATOM     23  H   UNL     1      10.059  11.217  21.526  0.00  0.00    +0.123 HD
BRANCH   4   7
ATOM      7  C   UNL     1      11.193  12.487  22.663  0.00  0.00    +0.054 C 
ATOM     10  C   UNL     1      10.494  13.718  22.075  0.00  0.00    +0.019 C 
ATOM     11  C   UNL     1      10.621  12.132  24.040  0.00  0.00    +0.019 C 
ATOM     13  C   UNL     1      10.562  14.906  23.033  0.00  0.00    +0.002 C 
ATOM     14  C   UNL     1      10.690  13.322  24.994  0.00  0.00    +0.002 C 
ATOM     15  C   UNL     1      10.005  14.554  24.409  0.00  0.00    +0.000 C 
ENDBRANCH   4   7
ENDBRANCH   6   4
BRANCH   9  16
ATOM     16  C   UNL     1      12.009   6.605  21.287  0.00  0.00    +0.138 C 
BRANCH  16   5
ATOM      3  O   UNL     1      14.006   6.954  19.218  0.00  0.00    -0.276 OA
ATOM      5  N   UNL     1      11.785   6.952  19.902  0.00  0.00    -0.313 N 
ATOM     19  C   UNL     1      12.808   7.097  18.981  0.00  0.00    +0.214 C 
ATOM     25  H   UNL     1      10.823   7.082  19.602  0.00  0.00    +0.149 HD
BRANCH  19  18
ATOM     18  C   UNL     1      12.312   7.473  17.595  0.00  0.00    +0.102 C 
BRANCH  18  17
ATOM     17  C   UNL     1      12.770   8.865  17.098  0.00  0.00    -0.029 C 
ATOM     20  C   UNL     1      12.829   9.882  18.251  0.00  0.00    +0.011 C 
ATOM     21  C   UNL     1      14.148   8.786  16.422  0.00  0.00    +0.011 C 
ATOM     22  C   UNL     1      11.745   9.363  16.061  0.00  0.00    +0.011 C 
ENDBRANCH  18  17
ENDBRANCH  19  18
ENDBRANCH  16   5
ENDBRANCH   9  16
TORSDOF 7
ENDMDL
MODEL 2
REMARK VINA RESULT:      -5.7     27.403     29.096
REMARK  Name = 75367061
REMARK  10 active torsions:
REMARK  status: ('A' for Active; 'I' for Inactive)
REMARK    1  A    between atoms: O_2  and  C_8
REMARK    2  A    between atoms: N_4  and  C_6
REMARK    3  A    between atoms: N_4  and  C_7
REMARK    4  A    between atoms: N_5  and  C_16
REMARK    5  A    between atoms: C_9  and  C_16
REMARK    6  A    between atoms: C_17  and  C_18
REMARK    7  A    between atoms: C_17  and  C_20
REMARK    8  A    between atoms: C_17  and  C_21
REMARK    9  A    between atoms: C_17  and  C_22
REMARK   10  A    between atoms: C_18  and  C_19
REMARK                            x       y       z     vdW  Elec       q    Type
REMARK                         _______ _______ _______ _____ _____    ______ ____
ROOT
ATOM      1  O   UNL     1     -17.174   5.228  25.492  0.00  0.00    -0.371 OA
ATOM      6  C   UNL     1     -16.296   3.987  23.667  0.00  0.00    +0.111 C 
ATOM      8  C   UNL     1     -15.911   3.299  24.964  0.00  0.00    +0.164 C 
ATOM      9  C   UNL     1     -16.948   3.874  25.919  0.00  0.00    +0.165 C 
ATOM     12  C   UNL     1     -16.652   5.379  24.160  0.00  0.00    +0.181 C 
ENDROOT
BRANCH   8   2
ATOM      2  O   UNL     1     -15.997   1.890  24.881  0.00  0.00    -0.388 OA
ATOM     24  H   UNL     1     -15.772   1.622  23.974  0.00  0.00    +0.210 HD
ENDBRANCH   8   2
BRANCH   6   4
ATOM      4  N   UNL     1     -15.235   3.992  22.673  0.00  0.00    -0.306 NA
ATOM     23  H   UNL     1     -15.484   3.391  21.888  0.00  0.00    +0.123 HD
BRANCH   4   7
ATOM      7  C   UNL     1     -14.969   5.348  22.196  0.00  0.00    +0.054 C 
ATOM     10  C   UNL     1     -13.463   5.540  21.986  0.00  0.00    +0.019 C 
ATOM     11  C   UNL     1     -15.744   5.605  20.898  0.00  0.00    +0.019 C 
ATOM     13  C   UNL     1     -13.153   6.921  21.413  0.00  0.00    +0.002 C 
ATOM     14  C   UNL     1     -15.430   6.986  20.328  0.00  0.00    +0.002 C 
ATOM     15  C   UNL     1     -13.931   7.187  20.128  0.00  0.00    +0.000 C 
ENDBRANCH   4   7
ENDBRANCH   6   4
BRANCH   9  16
ATOM     16  C   UNL     1     -16.499   3.863  27.370  0.00  0.00    +0.138 C 
BRANCH  16   5
ATOM      3  O   UNL     1     -16.918   2.575  29.930  0.00  0.00    -0.276 OA
ATOM      5  N   UNL     1     -16.049   2.551  27.775  0.00  0.00    -0.313 N 
ATOM     19  C   UNL     1     -16.298   2.016  29.027  0.00  0.00    +0.214 C 
ATOM     25  H   UNL     1     -15.535   2.002  27.093  0.00  0.00    +0.149 HD
BRANCH  19  18
ATOM     18  C   UNL     1     -15.713   0.626  29.207  0.00  0.00    +0.102 C 
BRANCH  18  17
ATOM     17  C   UNL     1     -14.502   0.553  30.169  0.00  0.00    -0.029 C 
ATOM     20  C   UNL     1     -13.722   1.878  30.192  0.00  0.00    +0.011 C 
ATOM     21  C   UNL     1     -14.949   0.203  31.598  0.00  0.00    +0.011 C 
ATOM     22  C   UNL     1     -13.560  -0.559  29.667  0.00  0.00    +0.011 C 
ENDBRANCH  18  17
ENDBRANCH  19  18
ENDBRANCH  16   5
ENDBRANCH   9  16
TORSDOF 7
ENDMDL
MODEL 3
REMARK VINA RESULT:      -5.7     26.032     27.527
REMARK  Name = 75367061
REMARK  10 active torsions:
REMARK  status: ('A' for Active; 'I' for Inactive)
REMARK    1  A    between atoms: O_2  and  C_8
REMARK    2  A    between atoms: N_4  and  C_6
REMARK    3  A    between atoms: N_4  and  C_7
REMARK    4  A    between atoms: N_5  and  C_16
REMARK    5  A    between atoms: C_9  and  C_16
REMARK    6  A    between atoms: C_17  and  C_18
REMARK    7  A    between atoms: C_17  and  C_20
REMARK    8  A    between atoms: C_17  and  C_21
REMARK    9  A    between atoms: C_17  and  C_22
REMARK   10  A    between atoms: C_18  and  C_19
REMARK                            x       y       z     vdW  Elec       q    Type
REMARK                         _______ _______ _______ _____ _____    ______ ____
ROOT
ATOM      1  O   UNL     1      -4.568 -11.810  17.763  0.00  0.00    -0.371 OA
ATOM      6  C   UNL     1      -6.520 -10.505  17.409  0.00  0.00    +0.111 C 
ATOM      8  C   UNL     1      -5.365  -9.884  16.645  0.00  0.00    +0.164 C 
ATOM      9  C   UNL     1      -4.413 -11.068  16.541  0.00  0.00    +0.165 C 
ATOM     12  C   UNL     1      -5.784 -11.386  18.403  0.00  0.00    +0.181 C 
ENDROOT
BRANCH   8   2
ATOM      2  O   UNL     1      -5.748  -9.404  15.371  0.00  0.00    -0.388 OA
ATOM     24  H   UNL     1      -4.977  -8.977  14.960  0.00  0.00    +0.210 HD
ENDBRANCH   8   2
BRANCH   6   4
ATOM      4  N   UNL     1      -7.386  -9.529  18.050  0.00  0.00    -0.306 NA
ATOM     23  H   UNL     1      -7.049  -8.584  17.865  0.00  0.00    +0.123 HD
BRANCH   4   7
ATOM      7  C   UNL     1      -8.765  -9.664  17.585  0.00  0.00    +0.054 C 
ATOM     10  C   UNL     1      -9.601 -10.397  18.640  0.00  0.00    +0.019 C 
ATOM     11  C   UNL     1      -9.351  -8.280  17.281  0.00  0.00    +0.019 C 
ATOM     13  C   UNL     1     -11.067 -10.490  18.223  0.00  0.00    +0.002 C 
ATOM     14  C   UNL     1     -10.817  -8.377  16.865  0.00  0.00    +0.002 C 
ATOM     15  C   UNL     1     -11.651  -9.116  17.907  0.00  0.00    +0.000 C 
ENDBRANCH   4   7
ENDBRANCH   6   4
BRANCH   9  16
ATOM     16  C   UNL     1      -2.961 -10.658  16.372  0.00  0.00    +0.138 C 
BRANCH  16   5
ATOM      3  O   UNL     1      -1.997 -12.282  14.176  0.00  0.00    -0.276 OA
ATOM      5  N   UNL     1      -2.686 -10.229  15.020  0.00  0.00    -0.313 N 
ATOM     19  C   UNL     1      -2.225 -11.082  14.032  0.00  0.00    +0.214 C 
ATOM     25  H   UNL     1      -2.854  -9.253  14.795  0.00  0.00    +0.149 HD
BRANCH  19  18
ATOM     18  C   UNL     1      -2.007 -10.386  12.699  0.00  0.00    +0.102 C 
BRANCH  18  17
ATOM     17  C   UNL     1      -3.158 -10.563  11.680  0.00  0.00    -0.029 C 
ATOM     20  C   UNL     1      -3.211 -12.000  11.135  0.00  0.00    +0.011 C 
ATOM     21  C   UNL     1      -4.515 -10.211  12.311  0.00  0.00    +0.011 C 
ATOM     22  C   UNL     1      -2.904  -9.603  10.502  0.00  0.00    +0.011 C 
ENDBRANCH  18  17
ENDBRANCH  19  18
ENDBRANCH  16   5
ENDBRANCH   9  16
TORSDOF 7
ENDMDL
MODEL 4
REMARK VINA RESULT:      -5.6     33.345     35.091
REMARK  Name = 75367061
REMARK  10 active torsions:
REMARK  status: ('A' for Active; 'I' for Inactive)
REMARK    1  A    between atoms: O_2  and  C_8
REMARK    2  A    between atoms: N_4  and  C_6
REMARK    3  A    between atoms: N_4  and  C_7
REMARK    4  A    between atoms: N_5  and  C_16
REMARK    5  A    between atoms: C_9  and  C_16
REMARK    6  A    between atoms: C_17  and  C_18
REMARK    7  A    between atoms: C_17  and  C_20
REMARK    8  A    between atoms: C_17  and  C_21
REMARK    9  A    between atoms: C_17  and  C_22
REMARK   10  A    between atoms: C_18  and  C_19
REMARK                            x       y       z     vdW  Elec       q    Type
REMARK                         _______ _______ _______ _____ _____    ______ ____
ROOT
ATOM      1  O   UNL     1      -0.786 -15.678  -2.309  0.00  0.00    -0.371 OA
ATOM      6  C   UNL     1       0.059 -14.473  -0.445  0.00  0.00    +0.111 C 
ATOM      8  C   UNL     1      -0.929 -13.598  -1.193  0.00  0.00    +0.164 C 
ATOM      9  C   UNL     1      -1.723 -14.644  -1.963  0.00  0.00    +0.165 C 
ATOM     12  C   UNL     1       0.390 -15.519  -1.496  0.00  0.00    +0.181 C 
ENDROOT
BRANCH   8   2
ATOM      2  O   UNL     1      -1.755 -12.843  -0.327  0.00  0.00    -0.388 OA
ATOM     24  H   UNL     1      -1.205 -12.174   0.115  0.00  0.00    +0.210 HD
ENDBRANCH   8   2
BRANCH   6   4
ATOM      4  N   UNL     1       1.231 -13.756   0.029  0.00  0.00    -0.306 NA
ATOM     23  H   UNL     1       1.107 -13.482   1.003  0.00  0.00    +0.123 HD
BRANCH   4   7
ATOM      7  C   UNL     1       2.437 -14.570  -0.108  0.00  0.00    +0.054 C 
ATOM     10  C   UNL     1       3.587 -13.712  -0.646  0.00  0.00    +0.019 C 
ATOM     11  C   UNL     1       2.800 -15.194   1.244  0.00  0.00    +0.019 C 
ATOM     13  C   UNL     1       4.886 -14.511  -0.730  0.00  0.00    +0.002 C 
ATOM     14  C   UNL     1       4.100 -15.992   1.157  0.00  0.00    +0.002 C 
ATOM     15  C   UNL     1       5.245 -15.145   0.611  0.00  0.00    +0.000 C 
ENDBRANCH   4   7
ENDBRANCH   6   4
BRANCH   9  16
ATOM     16  C   UNL     1      -2.372 -14.098  -3.223  0.00  0.00    +0.138 C 
BRANCH  16   5
ATOM      3  O   UNL     1      -0.520 -14.176  -5.448  0.00  0.00    -0.276 OA
ATOM      5  N   UNL     1      -1.617 -12.996  -3.773  0.00  0.00    -0.313 N 
ATOM     19  C   UNL     1      -0.750 -13.130  -4.844  0.00  0.00    +0.214 C 
ATOM     25  H   UNL     1      -1.745 -12.082  -3.349  0.00  0.00    +0.149 HD
BRANCH  19  18
ATOM     18  C   UNL     1      -0.070 -11.826  -5.226  0.00  0.00    +0.102 C 
BRANCH  18  17
ATOM     17  C   UNL     1       1.398 -11.699  -4.756  0.00  0.00    -0.029 C 
ATOM     20  C   UNL     1       1.782 -10.232  -4.498  0.00  0.00    +0.011 C 
ATOM     21  C   UNL     1       1.644 -12.518  -3.478  0.00  0.00    +0.011 C 
ATOM     22  C   UNL     1       2.306 -12.252  -5.871  0.00  0.00    +0.011 C 
ENDBRANCH  18  17
ENDBRANCH  19  18
ENDBRANCH  16   5
ENDBRANCH   9  16
TORSDOF 7
ENDMDL
MODEL 5
REMARK VINA RESULT:      -5.5     26.598     28.233
REMARK  Name = 75367061
REMARK  10 active torsions:
REMARK  status: ('A' for Active; 'I' for Inactive)
REMARK    1  A    between atoms: O_2  and  C_8
REMARK    2  A    between atoms: N_4  and  C_6
REMARK    3  A    between atoms: N_4  and  C_7
REMARK    4  A    between atoms: N_5  and  C_16
REMARK    5  A    between atoms: C_9  and  C_16
REMARK    6  A    between atoms: C_17  and  C_18
REMARK    7  A    between atoms: C_17  and  C_20
REMARK    8  A    between atoms: C_17  and  C_21
REMARK    9  A    between atoms: C_17  and  C_22
REMARK   10  A    between atoms: C_18  and  C_19
REMARK                            x       y       z     vdW  Elec       q    Type
REMARK                         _______ _______ _______ _____ _____    ______ ____
ROOT
ATOM      1  O   UNL     1     -16.739   4.196  22.044  0.00  0.00    -0.371 OA
ATOM      6  C   UNL     1     -14.803   5.548  22.299  0.00  0.00    +0.111 C 
ATOM      8  C   UNL     1     -15.073   4.821  23.603  0.00  0.00    +0.164 C 
ATOM      9  C   UNL     1     -15.946   3.670  23.121  0.00  0.00    +0.165 C 
ATOM     12  C   UNL     1     -16.150   5.433  21.606  0.00  0.00    +0.181 C 
ENDROOT
BRANCH   8   2
ATOM      2  O   UNL     1     -13.891   4.359  24.227  0.00  0.00    -0.388 OA
ATOM     24  H   UNL     1     -14.136   3.706  24.903  0.00  0.00    +0.210 HD
ENDBRANCH   8   2
BRANCH   6   4
ATOM      4  N   UNL     1     -14.374   6.925  22.478  0.00  0.00    -0.306 NA
ATOM     23  H   UNL     1     -13.802   7.010  23.319  0.00  0.00    +0.123 HD
BRANCH   4   7
ATOM      7  C   UNL     1     -13.621   7.396  21.317  0.00  0.00    +0.054 C 
ATOM     10  C   UNL     1     -13.177   8.847  21.538  0.00  0.00    +0.019 C 
ATOM     11  C   UNL     1     -12.417   6.482  21.070  0.00  0.00    +0.019 C 
ATOM     13  C   UNL     1     -12.321   9.349  20.377  0.00  0.00    +0.002 C 
ATOM     14  C   UNL     1     -11.563   6.988  19.909  0.00  0.00    +0.002 C 
ATOM     15  C   UNL     1     -11.127   8.435  20.119  0.00  0.00    +0.000 C 
ENDBRANCH   4   7
ENDBRANCH   6   4
BRANCH   9  16
ATOM     16  C   UNL     1     -16.854   3.111  24.202  0.00  0.00    +0.138 C 
BRANCH  16   5
ATOM      3  O   UNL     1     -17.730   4.082  26.786  0.00  0.00    -0.276 OA
ATOM      5  N   UNL     1     -16.162   2.989  25.464  0.00  0.00    -0.313 N 
ATOM     19  C   UNL     1     -16.661   3.488  26.655  0.00  0.00    +0.214 C 
ATOM     25  H   UNL     1     -15.271   2.502  25.464  0.00  0.00    +0.149 HD
BRANCH  19  18
ATOM     18  C   UNL     1     -15.741   3.238  27.838  0.00  0.00    +0.102 C 
BRANCH  18  17
ATOM     17  C   UNL     1     -16.297   2.254  28.895  0.00  0.00    -0.029 C 
ATOM     20  C   UNL     1     -17.191   2.975  29.918  0.00  0.00    +0.011 C 
ATOM     21  C   UNL     1     -17.098   1.123  28.231  0.00  0.00    +0.011 C 
ATOM     22  C   UNL     1     -15.103   1.632  29.643  0.00  0.00    +0.011 C 
ENDBRANCH  18  17
ENDBRANCH  19  18
ENDBRANCH  16   5
ENDBRANCH   9  16
TORSDOF 7
ENDMDL
MODEL 6
REMARK VINA RESULT:      -5.4     27.787     29.143
REMARK  Name = 75367061
REMARK  10 active torsions:
REMARK  status: ('A' for Active; 'I' for Inactive)
REMARK    1  A    between atoms: O_2  and  C_8
REMARK    2  A    between atoms: N_4  and  C_6
REMARK    3  A    between atoms: N_4  and  C_7
REMARK    4  A    between atoms: N_5  and  C_16
REMARK    5  A    between atoms: C_9  and  C_16
REMARK    6  A    between atoms: C_17  and  C_18
REMARK    7  A    between atoms: C_17  and  C_20
REMARK    8  A    between atoms: C_17  and  C_21
REMARK    9  A    between atoms: C_17  and  C_22
REMARK   10  A    between atoms: C_18  and  C_19
REMARK                            x       y       z     vdW  Elec       q    Type
REMARK                         _______ _______ _______ _____ _____    ______ ____
ROOT
ATOM      1  O   UNL     1     -16.430   0.581  28.268  0.00  0.00    -0.371 OA
ATOM      6  C   UNL     1     -15.063   1.986  29.608  0.00  0.00    +0.111 C 
ATOM      8  C   UNL     1     -15.444   2.730  28.342  0.00  0.00    +0.164 C 
ATOM      9  C   UNL     1     -16.676   1.949  27.904  0.00  0.00    +0.165 C 
ATOM     12  C   UNL     1     -15.342   0.548  29.209  0.00  0.00    +0.181 C 
ENDROOT
BRANCH   8   2
ATOM      2  O   UNL     1     -15.740   4.093  28.576  0.00  0.00    -0.388 OA
ATOM     24  H   UNL     1     -15.447   4.607  27.805  0.00  0.00    +0.210 HD
ENDBRANCH   8   2
BRANCH   6   4
ATOM      4  N   UNL     1     -13.686   2.203  30.019  0.00  0.00    -0.306 NA
ATOM     23  H   UNL     1     -13.271   2.960  29.476  0.00  0.00    +0.123 HD
BRANCH   4   7
ATOM      7  C   UNL     1     -13.605   2.513  31.445  0.00  0.00    +0.054 C 
ATOM     10  C   UNL     1     -13.971   3.983  31.680  0.00  0.00    +0.019 C 
ATOM     11  C   UNL     1     -14.531   1.581  32.235  0.00  0.00    +0.019 C 
ATOM     13  C   UNL     1     -13.972   4.325  33.169  0.00  0.00    +0.002 C 
ATOM     14  C   UNL     1     -14.531   1.927  33.723  0.00  0.00    +0.002 C 
ATOM     15  C   UNL     1     -14.883   3.392  33.961  0.00  0.00    +0.000 C 
ENDBRANCH   4   7
ENDBRANCH   6   4
BRANCH   9  16
ATOM     16  C   UNL     1     -16.947   2.042  26.412  0.00  0.00    +0.138 C 
BRANCH  16   5
ATOM      3  O   UNL     1     -16.470   2.425  23.582  0.00  0.00    -0.276 OA
ATOM      5  N   UNL     1     -16.142   3.068  25.791  0.00  0.00    -0.313 N 
ATOM     19  C   UNL     1     -15.971   3.172  24.421  0.00  0.00    +0.214 C 
ATOM     25  H   UNL     1     -15.693   3.744  26.401  0.00  0.00    +0.149 HD
BRANCH  19  18
ATOM     18  C   UNL     1     -15.072   4.330  24.020  0.00  0.00    +0.102 C 
BRANCH  18  17
ATOM     17  C   UNL     1     -15.795   5.490  23.296  0.00  0.00    -0.029 C 
ATOM     20  C   UNL     1     -14.850   6.680  23.057  0.00  0.00    +0.011 C 
ATOM     21  C   UNL     1     -16.377   5.027  21.951  0.00  0.00    +0.011 C 
ATOM     22  C   UNL     1     -16.956   5.963  24.193  0.00  0.00    +0.011 C 
ENDBRANCH  18  17
ENDBRANCH  19  18
ENDBRANCH  16   5
ENDBRANCH   9  16
TORSDOF 7
ENDMDL
MODEL 7
REMARK VINA RESULT:      -5.4     27.975     29.704
REMARK  Name = 75367061
REMARK  10 active torsions:
REMARK  status: ('A' for Active; 'I' for Inactive)
REMARK    1  A    between atoms: O_2  and  C_8
REMARK    2  A    between atoms: N_4  and  C_6
REMARK    3  A    between atoms: N_4  and  C_7
REMARK    4  A    between atoms: N_5  and  C_16
REMARK    5  A    between atoms: C_9  and  C_16
REMARK    6  A    between atoms: C_17  and  C_18
REMARK    7  A    between atoms: C_17  and  C_20
REMARK    8  A    between atoms: C_17  and  C_21
REMARK    9  A    between atoms: C_17  and  C_22
REMARK   10  A    between atoms: C_18  and  C_19
REMARK                            x       y       z     vdW  Elec       q    Type
REMARK                         _______ _______ _______ _____ _____    ______ ____
ROOT
ATOM      1  O   UNL     1     -17.294   3.250  27.261  0.00  0.00    -0.371 OA
ATOM      6  C   UNL     1     -16.448   2.944  25.063  0.00  0.00    +0.111 C 
ATOM      8  C   UNL     1     -16.408   1.617  25.797  0.00  0.00    +0.164 C 
ATOM      9  C   UNL     1     -17.424   1.863  26.903  0.00  0.00    +0.165 C 
ATOM     12  C   UNL     1     -16.567   3.923  26.218  0.00  0.00    +0.181 C 
ENDROOT
BRANCH   8   2
ATOM      2  O   UNL     1     -16.778   0.527  24.975  0.00  0.00    -0.388 OA
ATOM     24  H   UNL     1     -17.604   0.756  24.516  0.00  0.00    +0.210 HD
ENDBRANCH   8   2
BRANCH   6   4
ATOM      4  N   UNL     1     -15.279   3.187  24.234  0.00  0.00    -0.306 NA
ATOM     23  H   UNL     1     -15.176   2.443  23.543  0.00  0.00    +0.123 HD
BRANCH   4   7
ATOM      7  C   UNL     1     -15.371   4.480  23.560  0.00  0.00    +0.054 C 
ATOM     10  C   UNL     1     -14.030   4.821  22.900  0.00  0.00    +0.019 C 
ATOM     11  C   UNL     1     -16.503   4.451  22.527  0.00  0.00    +0.019 C 
ATOM     13  C   UNL     1     -14.111   6.132  22.120  0.00  0.00    +0.002 C 
ATOM     14  C   UNL     1     -16.580   5.763  21.748  0.00  0.00    +0.002 C 
ATOM     15  C   UNL     1     -15.244   6.112  21.099  0.00  0.00    +0.000 C 
ENDBRANCH   4   7
ENDBRANCH   6   4
BRANCH   9  16
ATOM     16  C   UNL     1     -17.201   0.995  28.129  0.00  0.00    +0.138 C 
BRANCH  16   5
ATOM      3  O   UNL     1     -15.977  -0.356  30.380  0.00  0.00    -0.276 OA
ATOM      5  N   UNL     1     -16.018   1.397  28.854  0.00  0.00    -0.313 N 
ATOM     19  C   UNL     1     -15.504   0.684  29.923  0.00  0.00    +0.214 C 
ATOM     25  H   UNL     1     -15.545   2.241  28.547  0.00  0.00    +0.149 HD
BRANCH  19  18
ATOM     18  C   UNL     1     -14.259   1.319  30.520  0.00  0.00    +0.102 C 
BRANCH  18  17
ATOM     17  C   UNL     1     -14.515   2.192  31.772  0.00  0.00    -0.029 C 
ATOM     20  C   UNL     1     -15.729   3.115  31.575  0.00  0.00    +0.011 C 
ATOM     21  C   UNL     1     -14.737   1.321  33.019  0.00  0.00    +0.011 C 
ATOM     22  C   UNL     1     -13.269   3.068  32.005  0.00  0.00    +0.011 C 
ENDBRANCH  18  17
ENDBRANCH  19  18
ENDBRANCH  16   5
ENDBRANCH   9  16
TORSDOF 7
ENDMDL
MODEL 8
REMARK VINA RESULT:      -5.3     27.408     29.670
REMARK  Name = 75367061
REMARK  10 active torsions:
REMARK  status: ('A' for Active; 'I' for Inactive)
REMARK    1  A    between atoms: O_2  and  C_8
REMARK    2  A    between atoms: N_4  and  C_6
REMARK    3  A    between atoms: N_4  and  C_7
REMARK    4  A    between atoms: N_5  and  C_16
REMARK    5  A    between atoms: C_9  and  C_16
REMARK    6  A    between atoms: C_17  and  C_18
REMARK    7  A    between atoms: C_17  and  C_20
REMARK    8  A    between atoms: C_17  and  C_21
REMARK    9  A    between atoms: C_17  and  C_22
REMARK   10  A    between atoms: C_18  and  C_19
REMARK                            x       y       z     vdW  Elec       q    Type
REMARK                         _______ _______ _______ _____ _____    ______ ____
ROOT
ATOM      1  O   UNL     1     -10.168 -12.655  18.351  0.00  0.00    -0.371 OA
ATOM      6  C   UNL     1      -8.686 -11.391  19.710  0.00  0.00    +0.111 C 
ATOM      8  C   UNL     1     -10.004 -10.647  19.591  0.00  0.00    +0.164 C 
ATOM      9  C   UNL     1     -10.942 -11.777  19.186  0.00  0.00    +0.165 C 
ATOM     12  C   UNL     1      -8.775 -12.350  18.535  0.00  0.00    +0.181 C 
ENDROOT
BRANCH   8   2
ATOM      2  O   UNL     1     -10.402 -10.043  20.806  0.00  0.00    -0.388 OA
ATOM     24  H   UNL     1      -9.623  -9.624  21.210  0.00  0.00    +0.210 HD
ENDBRANCH   8   2
BRANCH   6   4
ATOM      4  N   UNL     1      -7.521 -10.524  19.647  0.00  0.00    -0.306 NA
ATOM     23  H   UNL     1      -6.960 -10.627  20.493  0.00  0.00    +0.123 HD
BRANCH   4   7
ATOM      7  C   UNL     1      -6.705 -10.824  18.472  0.00  0.00    +0.054 C 
ATOM     10  C   UNL     1      -6.791  -9.667  17.470  0.00  0.00    +0.019 C 
ATOM     11  C   UNL     1      -5.254 -11.080  18.895  0.00  0.00    +0.019 C 
ATOM     13  C   UNL     1      -5.890  -9.910  16.261  0.00  0.00    +0.002 C 
ATOM     14  C   UNL     1      -4.356 -11.322  17.684  0.00  0.00    +0.002 C 
ATOM     15  C   UNL     1      -4.447 -10.178  16.678  0.00  0.00    +0.000 C 
ENDBRANCH   4   7
ENDBRANCH   6   4
BRANCH   9  16
ATOM     16  C   UNL     1     -12.167 -11.297  18.429  0.00  0.00    +0.138 C 
BRANCH  16   5
ATOM      3  O   UNL     1     -13.143 -10.079  15.989  0.00  0.00    -0.276 OA
ATOM      5  N   UNL     1     -12.033  -9.917  18.024  0.00  0.00    -0.313 N 
ATOM     19  C   UNL     1     -12.535  -9.423  16.832  0.00  0.00    +0.214 C 
ATOM     25  H   UNL     1     -11.552  -9.287  18.660  0.00  0.00    +0.149 HD
BRANCH  19  18
ATOM     18  C   UNL     1     -12.255  -7.942  16.637  0.00  0.00    +0.102 C 
BRANCH  18  17
ATOM     17  C   UNL     1     -10.833  -7.614  16.124  0.00  0.00    -0.029 C 
ATOM     20  C   UNL     1     -10.398  -8.586  15.014  0.00  0.00    +0.011 C 
ATOM     21  C   UNL     1     -10.753  -6.173  15.594  0.00  0.00    +0.011 C 
ATOM     22  C   UNL     1      -9.855  -7.753  17.306  0.00  0.00    +0.011 C 
ENDBRANCH  18  17
ENDBRANCH  19  18
ENDBRANCH  16   5
ENDBRANCH   9  16
TORSDOF 7
ENDMDL
MODEL 9
REMARK VINA RESULT:      -5.3     26.192     27.500
REMARK  Name = 75367061
REMARK  10 active torsions:
REMARK  status: ('A' for Active; 'I' for Inactive)
REMARK    1  A    between atoms: O_2  and  C_8
REMARK    2  A    between atoms: N_4  and  C_6
REMARK    3  A    between atoms: N_4  and  C_7
REMARK    4  A    between atoms: N_5  and  C_16
REMARK    5  A    between atoms: C_9  and  C_16
REMARK    6  A    between atoms: C_17  and  C_18
REMARK    7  A    between atoms: C_17  and  C_20
REMARK    8  A    between atoms: C_17  and  C_21
REMARK    9  A    between atoms: C_17  and  C_22
REMARK   10  A    between atoms: C_18  and  C_19
REMARK                            x       y       z     vdW  Elec       q    Type
REMARK                         _______ _______ _______ _____ _____    ______ ____
ROOT
ATOM      1  O   UNL     1     -16.569   6.188  23.614  0.00  0.00    -0.371 OA
ATOM      6  C   UNL     1     -15.490   4.248  24.460  0.00  0.00    +0.111 C 
ATOM      8  C   UNL     1     -14.821   4.660  23.162  0.00  0.00    +0.164 C 
ATOM      9  C   UNL     1     -15.242   6.120  23.065  0.00  0.00    +0.165 C 
ATOM     12  C   UNL     1     -16.816   4.983  24.361  0.00  0.00    +0.181 C 
ENDROOT
BRANCH   8   2
ATOM      2  O   UNL     1     -13.414   4.519  23.204  0.00  0.00    -0.388 OA
ATOM     24  H   UNL     1     -13.053   5.217  23.776  0.00  0.00    +0.210 HD
ENDBRANCH   8   2
BRANCH   6   4
ATOM      4  N   UNL     1     -15.649   2.810  24.604  0.00  0.00    -0.306 NA
ATOM     23  H   UNL     1     -14.749   2.375  24.805  0.00  0.00    +0.123 HD
BRANCH   4   7
ATOM      7  C   UNL     1     -16.604   2.490  25.662  0.00  0.00    +0.054 C 
ATOM     10  C   UNL     1     -16.918   0.990  25.644  0.00  0.00    +0.019 C 
ATOM     11  C   UNL     1     -16.040   2.919  27.021  0.00  0.00    +0.019 C 
ATOM     13  C   UNL     1     -17.855   0.604  26.787  0.00  0.00    +0.002 C 
ATOM     14  C   UNL     1     -16.979   2.531  28.161  0.00  0.00    +0.002 C 
ATOM     15  C   UNL     1     -17.304   1.040  28.141  0.00  0.00    +0.000 C 
ENDBRANCH   4   7
ENDBRANCH   6   4
BRANCH   9  16
ATOM     16  C   UNL     1     -15.249   6.650  21.642  0.00  0.00    +0.138 C 
BRANCH  16   5
ATOM      3  O   UNL     1     -13.158   8.647  21.816  0.00  0.00    -0.276 OA
ATOM      5  N   UNL     1     -13.932   6.594  21.051  0.00  0.00    -0.313 N 
ATOM     19  C   UNL     1     -12.994   7.602  21.188  0.00  0.00    +0.214 C 
ATOM     25  H   UNL     1     -13.693   5.763  20.518  0.00  0.00    +0.149 HD
BRANCH  19  18
ATOM     18  C   UNL     1     -11.691   7.307  20.464  0.00  0.00    +0.102 C 
BRANCH  18  17
ATOM     17  C   UNL     1     -11.453   8.151  19.190  0.00  0.00    -0.029 C 
ATOM     20  C   UNL     1     -12.777   8.671  18.604  0.00  0.00    +0.011 C 
ATOM     21  C   UNL     1     -10.524   9.342  19.479  0.00  0.00    +0.011 C 
ATOM     22  C   UNL     1     -10.776   7.250  18.139  0.00  0.00    +0.011 C 
ENDBRANCH  18  17
ENDBRANCH  19  18
ENDBRANCH  16   5
ENDBRANCH   9  16
TORSDOF 7
ENDMDL
MODEL 10
REMARK VINA RESULT:      -5.3     26.081     27.589
REMARK  Name = 75367061
REMARK  10 active torsions:
REMARK  status: ('A' for Active; 'I' for Inactive)
REMARK    1  A    between atoms: O_2  and  C_8
REMARK    2  A    between atoms: N_4  and  C_6
REMARK    3  A    between atoms: N_4  and  C_7
REMARK    4  A    between atoms: N_5  and  C_16
REMARK    5  A    between atoms: C_9  and  C_16
REMARK    6  A    between atoms: C_17  and  C_18
REMARK    7  A    between atoms: C_17  and  C_20
REMARK    8  A    between atoms: C_17  and  C_21
REMARK    9  A    between atoms: C_17  and  C_22
REMARK   10  A    between atoms: C_18  and  C_19
REMARK                            x       y       z     vdW  Elec       q    Type
REMARK                         _______ _______ _______ _____ _____    ______ ____
ROOT
ATOM      1  O   UNL     1     -16.620   6.566  20.383  0.00  0.00    -0.371 OA
ATOM      6  C   UNL     1     -14.261   6.672  20.634  0.00  0.00    +0.111 C 
ATOM      8  C   UNL     1     -14.819   5.670  21.627  0.00  0.00    +0.164 C 
ATOM      9  C   UNL     1     -16.164   5.346  20.992  0.00  0.00    +0.165 C 
ATOM     12  C   UNL     1     -15.505   7.468  20.279  0.00  0.00    +0.181 C 
ENDROOT
BRANCH   8   2
ATOM      2  O   UNL     1     -14.007   4.519  21.757  0.00  0.00    -0.388 OA
ATOM     24  H   UNL     1     -14.378   3.817  21.195  0.00  0.00    +0.210 HD
ENDBRANCH   8   2
BRANCH   6   4
ATOM      4  N   UNL     1     -13.195   7.499  21.177  0.00  0.00    -0.306 NA
ATOM     23  H   UNL     1     -12.486   6.914  21.618  0.00  0.00    +0.123 HD
BRANCH   4   7
ATOM      7  C   UNL     1     -12.585   8.320  20.134  0.00  0.00    +0.054 C 
ATOM     10  C   UNL     1     -11.994   9.593  20.752  0.00  0.00    +0.019 C 
ATOM     11  C   UNL     1     -11.509   7.514  19.398  0.00  0.00    +0.019 C 
ATOM     13  C   UNL     1     -11.279  10.441  19.703  0.00  0.00    +0.002 C 
ATOM     14  C   UNL     1     -10.795   8.366  18.350  0.00  0.00    +0.002 C 
ATOM     15  C   UNL     1     -10.215   9.639  18.959  0.00  0.00    +0.000 C 
ENDBRANCH   4   7
ENDBRANCH   6   4
BRANCH   9  16
ATOM     16  C   UNL     1     -17.198   4.854  21.990  0.00  0.00    +0.138 C 
BRANCH  16   5
ATOM      3  O   UNL     1     -16.772   2.151  22.941  0.00  0.00    -0.276 OA
ATOM      5  N   UNL     1     -16.582   4.449  23.233  0.00  0.00    -0.313 N 
ATOM     19  C   UNL     1     -16.421   3.126  23.604  0.00  0.00    +0.214 C 
ATOM     25  H   UNL     1     -16.247   5.183  23.850  0.00  0.00    +0.149 HD
BRANCH  19  18
ATOM     18  C   UNL     1     -15.754   2.965  24.960  0.00  0.00    +0.102 C 
BRANCH  18  17
ATOM     17  C   UNL     1     -16.700   2.509  26.097  0.00  0.00    -0.029 C 
ATOM     20  C   UNL     1     -18.115   3.084  25.915  0.00  0.00    +0.011 C 
ATOM     21  C   UNL     1     -16.781   0.976  26.169  0.00  0.00    +0.011 C 
ATOM     22  C   UNL     1     -16.129   3.030  27.430  0.00  0.00    +0.011 C 
ENDBRANCH  18  17
ENDBRANCH  19  18
ENDBRANCH  16   5
ENDBRANCH   9  16
TORSDOF 7
ENDMDL
