REMARK  Name = 56775461
REMARK  9 active torsions:
REMARK  status: ('A' for Active; 'I' for Inactive)
REMARK    1  A    between atoms: N_3  and  C_5
REMARK    2  A    between atoms: N_3  and  C_7
REMARK    3  A    between atoms: C_5  and  C_12
REMARK    4  A    between atoms: C_6  and  C_7
REMARK    5  A    between atoms: C_12  and  C_16
REMARK    6  A    between atoms: C_18  and  C_19
REMARK    7  A    between atoms: C_18  and  C_20
REMARK    8  A    between atoms: C_18  and  C_21
REMARK    9  A    between atoms: C_18  and  C_22
REMARK                            x       y       z     vdW  Elec       q    Type
REMARK                         _______ _______ _______ _____ _____    ______ ____
ROOT
ATOM      1  O   UNL     1       0.983  -3.795   0.642  0.00  0.00    -0.376 OA
ATOM      5  C   UNL     1       0.465  -1.887  -0.161  0.00  0.00    +0.072 C 
ATOM      8  C   UNL     1       1.546  -2.939  -0.378  0.00  0.00    +0.184 C 
ATOM      9  C   UNL     1      -0.013  -2.798   0.964  0.00  0.00    +0.184 C 
ENDROOT
BRANCH   5   3
ATOM      3  N   UNL     1       1.080  -0.692   0.428  0.00  0.00    -0.306 NA
ATOM     23  H   UNL     1       0.445  -0.082   0.941  0.00  0.00    +0.123 HD
BRANCH   3   7
ATOM      7  C   UNL     1       1.766   0.063  -0.610  0.00  0.00    +0.085 C 
BRANCH   7   6
ATOM      6  C   UNL     1       2.874   0.927  -0.013  0.00  0.00    +0.003 C 
ATOM     10  C   UNL     1       3.925   0.054   0.686  0.00  0.00    +0.005 C 
ATOM     11  C   UNL     1       3.523   1.800  -1.095  0.00  0.00    +0.005 C 
ATOM     13  C   UNL     1       5.072   0.891   1.246  0.00  0.00    +0.000 C 
ATOM     14  C   UNL     1       4.671   2.635  -0.533  0.00  0.00    +0.000 C 
ATOM     15  C   UNL     1       5.709   1.765   0.169  0.00  0.00    +0.000 C 
ENDBRANCH   7   6
ENDBRANCH   3   7
ENDBRANCH   5   3
BRANCH   5  12
ATOM     12  C   UNL     1      -0.472  -1.567  -1.285  0.00  0.00    +0.085 C 
BRANCH  12  16
ATOM      2  O   UNL     1      -3.743  -0.743   0.009  0.00  0.00    -0.359 OA
ATOM      4  N   UNL     1      -2.782  -1.651  -0.417  0.00  0.00    -0.083 NA
ATOM     16  C   UNL     1      -1.730  -0.903  -0.765  0.00  0.00    +0.086 A 
ATOM     17  C   UNL     1      -1.968   0.470  -0.582  0.00  0.00    +0.071 A 
ATOM     19  C   UNL     1      -3.247   0.517  -0.094  0.00  0.00    +0.143 A 
BRANCH  19  18
ATOM     18  C   UNL     1      -4.138   1.608   0.318  0.00  0.00    +0.023 C 
ATOM     20  C   UNL     1      -5.565   1.183   0.833  0.00  0.00    +0.019 C 
ATOM     21  C   UNL     1      -4.424   2.610  -0.855  0.00  0.00    +0.019 C 
ATOM     22  C   UNL     1      -3.531   2.452   1.494  0.00  0.00    +0.019 C 
ENDBRANCH  19  18
ENDBRANCH  12  16
ENDBRANCH   5  12
TORSDOF 6
