REMARK  Name = 11865991
REMARK  5 active torsions:
REMARK  status: ('A' for Active; 'I' for Inactive)
REMARK    1  A    between atoms: O_1  and  C_8
REMARK    2  A    between atoms: O_1  and  C_17
REMARK    3  A    between atoms: C_16  and  C_19
REMARK    4  A    between atoms: C_20  and  C_23
REMARK    5  A    between atoms: C_22  and  C_26
REMARK                            x       y       z     vdW  Elec       q    Type
REMARK                         _______ _______ _______ _____ _____    ______ ____
ROOT
ATOM      2  O   UNL     1      -4.062  -2.292   0.289  0.00  0.00    -0.273 OA
ATOM      3  O   UNL     1      -1.043   1.465  -1.860  0.00  0.00    -0.270 OA
ATOM      4  N   UNL     1      -2.608   0.587  -0.422  0.00  0.00    -0.283 N 
ATOM      5  N   UNL     1      -1.804  -2.217  -0.016  0.00  0.00    -0.283 N 
ATOM      6  C   UNL     1      -2.974  -0.192   0.743  0.00  0.00    +0.165 C 
ATOM      7  C   UNL     1      -4.327   0.375   1.168  0.00  0.00    +0.065 C 
ATOM      8  C   UNL     1      -4.928   0.889  -0.139  0.00  0.00    +0.137 C 
ATOM      9  C   UNL     1      -3.712   1.414  -0.886  0.00  0.00    +0.140 C 
ATOM     10  C   UNL     1      -3.018  -1.636   0.289  0.00  0.00    +0.238 C 
ATOM     11  C   UNL     1      -1.345   0.674  -0.967  0.00  0.00    +0.249 C 
ATOM     12  C   UNL     1      -0.302  -0.259  -0.466  0.00  0.00    +0.059 A 
ATOM     13  C   UNL     1      -0.537  -1.602  -0.125  0.00  0.00    +0.046 A 
ATOM     14  C   UNL     1       1.020   0.221  -0.512  0.00  0.00    +0.023 A 
ATOM     15  C   UNL     1       0.564  -2.447   0.099  0.00  0.00    +0.024 A 
ATOM     16  C   UNL     1       2.097  -0.621  -0.241  0.00  0.00    -0.017 A 
ATOM     18  C   UNL     1       1.870  -1.959   0.052  0.00  0.00    +0.010 A 
ATOM     27  H   UNL     1      -1.813  -3.232  -0.089  0.00  0.00    +0.155 HD
ENDROOT
BRANCH  16  19
ATOM     19  C   UNL     1       3.449  -0.108  -0.287  0.00  0.00    -0.015 A 
ATOM     20  C   UNL     1       4.066   0.413   0.853  0.00  0.00    -0.040 A 
ATOM     21  C   UNL     1       4.143  -0.140  -1.498  0.00  0.00    +0.009 A 
ATOM     22  C   UNL     1       5.370   0.901   0.780  0.00  0.00    -0.047 A 
ATOM     23  C   UNL     1       3.335   0.455   2.159  0.00  0.00    +0.044 C 
ATOM     24  C   UNL     1       5.447   0.348  -1.570  0.00  0.00    +0.001 A 
ATOM     25  C   UNL     1       6.061   0.869  -0.431  0.00  0.00    +0.003 A 
ATOM     26  C   UNL     1       6.052   1.465   1.984  0.00  0.00    +0.044 C 
ENDBRANCH  16  19
BRANCH   8   1
ATOM      1  O   UNL     1      -5.866   1.920   0.094  0.00  0.00    -0.378 OA
ATOM     17  C   UNL     1      -6.947   1.478   0.910  0.00  0.00    +0.194 C 
ENDBRANCH   8   1
TORSDOF 2
