REMARK  Name = 25338983
REMARK  8 active torsions:
REMARK  status: ('A' for Active; 'I' for Inactive)
REMARK    1  A    between atoms: O_2  and  C_16
REMARK    2  A    between atoms: O_2  and  C_26
REMARK    3  A    between atoms: O_5  and  C_27
REMARK    4  A    between atoms: O_5  and  C_31
REMARK    5  A    between atoms: N_7  and  C_14
REMARK    6  A    between atoms: C_9  and  C_16
REMARK    7  A    between atoms: C_14  and  C_18
REMARK    8  A    between atoms: C_17  and  C_19
REMARK                            x       y       z     vdW  Elec       q    Type
REMARK                         _______ _______ _______ _____ _____    ______ ____
ROOT
ATOM      4  O   UNL     1       3.939   1.308   0.916  0.00  0.00    -0.270 OA
ATOM      6  N   UNL     1       1.767   1.219   0.035  0.00  0.00    -0.278 N 
ATOM      7  N   UNL     1      -1.230   0.843  -2.179  0.00  0.00    -0.328 N 
ATOM      8  N   UNL     1      -1.125   3.067  -2.349  0.00  0.00    -0.240 NA
ATOM      9  C   UNL     1       1.495   2.645   0.355  0.00  0.00    +0.191 C 
ATOM     10  C   UNL     1       0.831   3.441  -0.789  0.00  0.00    +0.091 C 
ATOM     11  C   UNL     1      -0.201   1.241  -1.379  0.00  0.00    +0.059 A 
ATOM     12  C   UNL     1       0.671   0.391  -0.547  0.00  0.00    +0.164 C 
ATOM     13  C   UNL     1      -0.160   2.607  -1.498  0.00  0.00    +0.066 A 
ATOM     15  C   UNL     1      -1.755   1.978  -2.743  0.00  0.00    +0.200 A 
ATOM     17  C   UNL     1       3.001   0.677   0.432  0.00  0.00    +0.248 C 
ENDROOT
BRANCH  17  19
ATOM      1  F   UNL     1       3.794  -4.830  -0.197  0.00  0.00    -0.205 F 
ATOM     19  C   UNL     1       3.209  -0.769   0.266  0.00  0.00    +0.037 A 
ATOM     22  C   UNL     1       3.747  -1.265  -0.921  0.00  0.00    +0.016 A 
ATOM     23  C   UNL     1       2.869  -1.645   1.297  0.00  0.00    +0.016 A 
ATOM     28  C   UNL     1       3.945  -2.636  -1.078  0.00  0.00    +0.039 A 
ATOM     29  C   UNL     1       3.066  -3.017   1.140  0.00  0.00    +0.039 A 
ATOM     30  C   UNL     1       3.604  -3.513  -0.048  0.00  0.00    +0.123 A 
ENDBRANCH  17  19
BRANCH   9  16
ATOM      3  O   UNL     1       0.246   1.619   2.144  0.00  0.00    -0.249 OA
ATOM     16  C   UNL     1       0.655   2.636   1.600  0.00  0.00    +0.328 C 
BRANCH  16   2
ATOM      2  O   UNL     1       0.432   3.918   2.009  0.00  0.00    -0.467 OA
ATOM     26  C   UNL     1      -0.360   4.057   3.192  0.00  0.00    +0.280 C 
ENDBRANCH  16   2
ENDBRANCH   9  16
BRANCH   7  14
ATOM     14  C   UNL     1      -1.695  -0.505  -2.399  0.00  0.00    +0.158 C 
BRANCH  14  18
ATOM     18  C   UNL     1      -2.536  -1.040  -1.266  0.00  0.00    -0.028 A 
ATOM     20  C   UNL     1      -2.163  -2.215  -0.615  0.00  0.00    +0.009 A 
ATOM     21  C   UNL     1      -3.686  -0.357  -0.871  0.00  0.00    +0.009 A 
ATOM     24  C   UNL     1      -2.941  -2.709   0.433  0.00  0.00    +0.046 A 
ATOM     25  C   UNL     1      -4.464  -0.851   0.177  0.00  0.00    +0.046 A 
ATOM     27  C   UNL     1      -4.092  -2.027   0.828  0.00  0.00    +0.120 A 
BRANCH  27   5
ATOM      5  O   UNL     1      -4.850  -2.508   1.851  0.00  0.00    -0.495 OA
ATOM     31  C   UNL     1      -6.014  -1.761   2.204  0.00  0.00    +0.277 C 
ENDBRANCH  27   5
ENDBRANCH  14  18
ENDBRANCH   7  14
TORSDOF 6
