REMARK  Name = 7156382
REMARK  3 active torsions:
REMARK  status: ('A' for Active; 'I' for Inactive)
REMARK    1  A    between atoms: N_3  and  C_11
REMARK    2  A    between atoms: C_20  and  C_23
REMARK    3  A    between atoms: C_22  and  C_24
REMARK                            x       y       z     vdW  Elec       q    Type
REMARK                         _______ _______ _______ _____ _____    ______ ____
ROOT
ATOM      1  O   UNL     1      -1.575  -1.419   1.889  0.00  0.00    -0.267 OA
ATOM      3  N   UNL     1       3.075  -1.229   0.020  0.00  0.00    -0.298 NA
ATOM      4  N   UNL     1       0.081  -2.236   0.466  0.00  0.00    -0.311 N 
ATOM      6  C   UNL     1       2.286  -3.218   1.328  0.00  0.00    +0.024 C 
ATOM      7  C   UNL     1       1.862  -3.116  -1.082  0.00  0.00    +0.050 C 
ATOM      8  C   UNL     1       2.237  -4.058   0.058  0.00  0.00    +0.017 C 
ATOM      9  C   UNL     1       3.333  -2.094   1.178  0.00  0.00    +0.090 C 
ATOM     10  C   UNL     1       2.938  -2.014  -1.216  0.00  0.00    +0.094 C 
ATOM     12  C   UNL     1       0.879  -2.678   1.618  0.00  0.00    +0.130 C 
ATOM     13  C   UNL     1       0.496  -2.498  -0.842  0.00  0.00    +0.026 A 
ATOM     18  C   UNL     1      -0.300  -2.186  -1.877  0.00  0.00    +0.022 A 
ATOM     19  C   UNL     1      -1.160  -1.634   0.749  0.00  0.00    +0.259 A 
ATOM     20  C   UNL     1      -2.017  -1.265  -0.433  0.00  0.00    +0.047 A 
ATOM     21  C   UNL     1      -1.572  -1.555  -1.665  0.00  0.00    +0.015 A 
ENDROOT
BRANCH  20  23
ATOM     23  C   UNL     1      -3.314  -0.590  -0.254  0.00  0.00    -0.012 A 
ATOM     25  C   UNL     1      -3.379   0.804  -0.225  0.00  0.00    +0.017 A 
ATOM     26  C   UNL     1      -4.477  -1.343  -0.116  0.00  0.00    +0.009 A 
ATOM     27  C   UNL     1      -4.609   1.462  -0.055  0.00  0.00    -0.017 A 
ATOM     28  C   UNL     1      -5.707  -0.707   0.053  0.00  0.00    +0.009 A 
ATOM     29  C   UNL     1      -5.790   0.695   0.085  0.00  0.00    -0.018 A 
ATOM     30  C   UNL     1      -4.692   2.863  -0.023  0.00  0.00    +0.008 A 
ATOM     31  C   UNL     1      -7.019   1.353   0.254  0.00  0.00    +0.008 A 
ATOM     32  C   UNL     1      -5.921   3.500   0.145  0.00  0.00    +0.001 A 
ATOM     33  C   UNL     1      -7.083   2.746   0.284  0.00  0.00    +0.001 A 
ENDBRANCH  20  23
BRANCH   3  11
ATOM      2  O   UNL     1       4.943   4.491   1.216  0.00  0.00    -0.276 OA
ATOM      5  N   UNL     1       4.940   2.562  -0.078  0.00  0.00    -0.302 N 
ATOM     11  C   UNL     1       4.115  -0.213  -0.118  0.00  0.00    +0.060 C 
ATOM     14  C   UNL     1       3.765   0.746  -1.264  0.00  0.00    +0.038 C 
ATOM     15  C   UNL     1       4.274   0.560   1.198  0.00  0.00    +0.038 C 
ATOM     16  C   UNL     1       4.792   1.874  -1.367  0.00  0.00    +0.109 C 
ATOM     17  C   UNL     1       5.290   1.691   1.046  0.00  0.00    +0.109 C 
ATOM     22  C   UNL     1       4.813   3.936   0.122  0.00  0.00    +0.212 C 
ATOM     24  C   UNL     1       4.496   4.770  -1.094  0.00  0.00    +0.109 C 
ENDBRANCH   3  11
TORSDOF 2
