MODEL 1
REMARK VINA RESULT:      -5.8      0.000      0.000
REMARK  Name = 7127962
REMARK  15 active torsions:
REMARK  status: ('A' for Active; 'I' for Inactive)
REMARK    1  A    between atoms: S_1  and  C_20
REMARK    2  A    between atoms: S_1  and  C_26
REMARK    3  A    between atoms: S_2  and  C_30
REMARK    4  A    between atoms: S_2  and  C_33
REMARK    5  A    between atoms: O_6  and  C_22
REMARK    6  A    between atoms: O_6  and  C_29
REMARK    7  A    between atoms: N_9  and  C_13
REMARK    8  A    between atoms: N_10  and  C_18
REMARK    9  A    between atoms: N_11  and  C_25
REMARK   10  A    between atoms: C_12  and  C_16
REMARK   11  A    between atoms: C_17  and  C_20
REMARK   12  A    between atoms: C_18  and  C_19
REMARK   13  A    between atoms: C_18  and  C_22
REMARK   14  A    between atoms: C_19  and  C_23
REMARK   15  A    between atoms: C_19  and  C_24
REMARK                            x       y       z     vdW  Elec       q    Type
REMARK                         _______ _______ _______ _____ _____    ______ ____
ROOT
ATOM      4  O   UNL     1     -11.890  -8.429  17.501  0.00  0.00    -0.275 OA
ATOM      8  N   UNL     1     -11.093  -9.210  15.473  0.00  0.00    -0.287 N 
ATOM     12  C   UNL     1     -10.287 -10.290  16.023  0.00  0.00    +0.164 C 
ATOM     13  C   UNL     1      -9.965 -10.197  13.631  0.00  0.00    +0.094 C 
ATOM     14  C   UNL     1      -9.911 -11.156  14.822  0.00  0.00    +0.055 C 
ATOM     15  C   UNL     1     -11.072  -9.219  14.011  0.00  0.00    +0.131 C 
ATOM     17  C   UNL     1     -11.900  -8.411  16.270  0.00  0.00    +0.226 C 
ENDROOT
BRANCH  13   9
ATOM      5  O   UNL     1      -7.812 -11.071  11.955  0.00  0.00    -0.253 OA
ATOM      9  N   UNL     1      -8.706  -9.525  13.424  0.00  0.00    -0.295 N 
ATOM     11  N   UNL     1      -6.598  -9.161  12.581  0.00  0.00    -0.269 N 
ATOM     21  C   UNL     1      -7.701 -10.021  12.584  0.00  0.00    +0.304 C 
ATOM     34  H   UNL     1      -8.518  -8.678  13.951  0.00  0.00    +0.151 HD
ATOM     36  H   UNL     1      -6.671  -8.323  13.154  0.00  0.00    +0.156 HD
BRANCH  11  25
ATOM     25  C   UNL     1      -5.387  -9.304  11.867  0.00  0.00    +0.036 A 
ATOM     27  C   UNL     1      -4.361 -10.098  12.382  0.00  0.00    +0.038 A 
ATOM     28  C   UNL     1      -5.216  -8.651  10.646  0.00  0.00    +0.023 A 
ATOM     30  C   UNL     1      -3.166 -10.238  11.676  0.00  0.00    +0.009 A 
ATOM     31  C   UNL     1      -4.021  -8.791   9.941  0.00  0.00    +0.003 A 
ATOM     32  C   UNL     1      -2.996  -9.585  10.456  0.00  0.00    +0.015 A 
BRANCH  30   2
ATOM      2  S   UNL     1      -1.857 -11.254  12.333  0.00  0.00    -0.129 S 
ATOM     33  C   UNL     1      -2.686 -12.860  12.501  0.00  0.00    +0.090 C 
ENDBRANCH  30   2
ENDBRANCH  11  25
ENDBRANCH  13   9
BRANCH  12  16
ATOM      3  O   UNL     1      -8.772  -8.519  16.540  0.00  0.00    -0.274 OA
ATOM     10  N   UNL     1      -8.364 -10.640  17.407  0.00  0.00    -0.301 N 
ATOM     16  C   UNL     1      -9.073  -9.701  16.678  0.00  0.00    +0.234 C 
ATOM     35  H   UNL     1      -8.716 -11.592  17.466  0.00  0.00    +0.150 HD
BRANCH  10  18
ATOM     18  C   UNL     1      -7.143 -10.332  18.115  0.00  0.00    +0.184 C 
BRANCH  18  19
ATOM     19  C   UNL     1      -5.882 -10.762  17.334  0.00  0.00    +0.014 C 
ATOM     23  C   UNL     1      -5.485  -9.771  16.235  0.00  0.00    +0.009 C 
ATOM     24  C   UNL     1      -6.049 -12.163  16.739  0.00  0.00    +0.009 C 
ENDBRANCH  18  19
BRANCH  18  22
ATOM      7  O   UNL     1      -6.194 -10.811  20.289  0.00  0.00    -0.249 OA
ATOM     22  C   UNL     1      -7.148 -10.917  19.524  0.00  0.00    +0.328 C 
BRANCH  22   6
ATOM      6  O   UNL     1      -8.317 -11.555  19.813  0.00  0.00    -0.467 OA
ATOM     29  C   UNL     1      -8.215 -12.964  20.047  0.00  0.00    +0.280 C 
ENDBRANCH  22   6
ENDBRANCH  18  22
ENDBRANCH  10  18
ENDBRANCH  12  16
BRANCH  17  20
ATOM     20  C   UNL     1     -12.818  -7.472  15.529  0.00  0.00    +0.164 C 
BRANCH  20   1
ATOM      1  S   UNL     1     -11.982  -5.885  15.392  0.00  0.00    -0.155 S 
ATOM     26  C   UNL     1     -12.434  -5.477  13.687  0.00  0.00    +0.085 C 
ENDBRANCH  20   1
ENDBRANCH  17  20
TORSDOF 10
ENDMDL
MODEL 2
REMARK VINA RESULT:      -5.5     25.339     28.120
REMARK  Name = 7127962
REMARK  15 active torsions:
REMARK  status: ('A' for Active; 'I' for Inactive)
REMARK    1  A    between atoms: S_1  and  C_20
REMARK    2  A    between atoms: S_1  and  C_26
REMARK    3  A    between atoms: S_2  and  C_30
REMARK    4  A    between atoms: S_2  and  C_33
REMARK    5  A    between atoms: O_6  and  C_22
REMARK    6  A    between atoms: O_6  and  C_29
REMARK    7  A    between atoms: N_9  and  C_13
REMARK    8  A    between atoms: N_10  and  C_18
REMARK    9  A    between atoms: N_11  and  C_25
REMARK   10  A    between atoms: C_12  and  C_16
REMARK   11  A    between atoms: C_17  and  C_20
REMARK   12  A    between atoms: C_18  and  C_19
REMARK   13  A    between atoms: C_18  and  C_22
REMARK   14  A    between atoms: C_19  and  C_23
REMARK   15  A    between atoms: C_19  and  C_24
REMARK                            x       y       z     vdW  Elec       q    Type
REMARK                         _______ _______ _______ _____ _____    ______ ____
ROOT
ATOM      4  O   UNL     1       9.051   8.742   7.812  0.00  0.00    -0.275 OA
ATOM      8  N   UNL     1       9.258   7.078   6.217  0.00  0.00    -0.287 N 
ATOM     12  C   UNL     1       9.858   6.086   7.097  0.00  0.00    +0.164 C 
ATOM     13  C   UNL     1       9.761   5.201   4.851  0.00  0.00    +0.094 C 
ATOM     14  C   UNL     1       9.789   4.773   6.321  0.00  0.00    +0.055 C 
ATOM     15  C   UNL     1       9.014   6.531   4.883  0.00  0.00    +0.131 C 
ATOM     17  C   UNL     1       8.827   8.313   6.680  0.00  0.00    +0.226 C 
ENDROOT
BRANCH  13   9
ATOM      5  O   UNL     1      10.649   4.377   2.256  0.00  0.00    -0.253 OA
ATOM      9  N   UNL     1      11.089   5.346   4.308  0.00  0.00    -0.295 N 
ATOM     11  N   UNL     1      12.792   5.185   2.773  0.00  0.00    -0.269 N 
ATOM     21  C   UNL     1      11.443   4.915   3.023  0.00  0.00    +0.304 C 
ATOM     34  H   UNL     1      11.814   5.733   4.903  0.00  0.00    +0.151 HD
ATOM     36  H   UNL     1      13.311   5.647   3.516  0.00  0.00    +0.156 HD
BRANCH  11  25
ATOM     25  C   UNL     1      13.530   4.906   1.600  0.00  0.00    +0.036 A 
ATOM     27  C   UNL     1      13.191   5.523   0.396  0.00  0.00    +0.038 A 
ATOM     28  C   UNL     1      14.599   4.010   1.647  0.00  0.00    +0.023 A 
ATOM     30  C   UNL     1      13.920   5.245  -0.760  0.00  0.00    +0.009 A 
ATOM     31  C   UNL     1      15.328   3.732   0.491  0.00  0.00    +0.003 A 
ATOM     32  C   UNL     1      14.989   4.350  -0.713  0.00  0.00    +0.015 A 
BRANCH  30   2
ATOM      2  S   UNL     1      13.488   6.036  -2.297  0.00  0.00    -0.129 S 
ATOM     33  C   UNL     1      12.210   7.209  -1.763  0.00  0.00    +0.090 C 
ENDBRANCH  30   2
ENDBRANCH  11  25
ENDBRANCH  13   9
BRANCH  12  16
ATOM      3  O   UNL     1      12.012   5.807   8.088  0.00  0.00    -0.274 OA
ATOM     10  N   UNL     1      11.612   7.683   6.769  0.00  0.00    -0.301 N 
ATOM     16  C   UNL     1      11.276   6.486   7.378  0.00  0.00    +0.234 C 
ATOM     35  H   UNL     1      10.925   8.154   6.187  0.00  0.00    +0.150 HD
BRANCH  10  18
ATOM     18  C   UNL     1      12.913   8.298   6.901  0.00  0.00    +0.184 C 
BRANCH  18  19
ATOM     19  C   UNL     1      12.864   9.830   6.715  0.00  0.00    +0.014 C 
ATOM     23  C   UNL     1      14.251  10.478   6.664  0.00  0.00    +0.009 C 
ATOM     24  C   UNL     1      12.016  10.495   7.804  0.00  0.00    +0.009 C 
ENDBRANCH  18  19
BRANCH  18  22
ATOM      7  O   UNL     1      15.038   7.283   6.349  0.00  0.00    -0.249 OA
ATOM     22  C   UNL     1      13.934   7.659   5.967  0.00  0.00    +0.328 C 
BRANCH  22   6
ATOM      6  O   UNL     1      13.474   7.564   4.687  0.00  0.00    -0.467 OA
ATOM     29  C   UNL     1      14.326   8.115   3.677  0.00  0.00    +0.280 C 
ENDBRANCH  22   6
ENDBRANCH  18  22
ENDBRANCH  10  18
ENDBRANCH  12  16
BRANCH  17  20
ATOM     20  C   UNL     1       8.051   9.144   5.690  0.00  0.00    +0.164 C 
BRANCH  20   1
ATOM      1  S   UNL     1       9.150  10.426   5.072  0.00  0.00    -0.155 S 
ATOM     26  C   UNL     1       7.969  11.796   4.998  0.00  0.00    +0.085 C 
ENDBRANCH  20   1
ENDBRANCH  17  20
TORSDOF 10
ENDMDL
MODEL 3
REMARK VINA RESULT:      -5.4     26.630     30.564
REMARK  Name = 7127962
REMARK  15 active torsions:
REMARK  status: ('A' for Active; 'I' for Inactive)
REMARK    1  A    between atoms: S_1  and  C_20
REMARK    2  A    between atoms: S_1  and  C_26
REMARK    3  A    between atoms: S_2  and  C_30
REMARK    4  A    between atoms: S_2  and  C_33
REMARK    5  A    between atoms: O_6  and  C_22
REMARK    6  A    between atoms: O_6  and  C_29
REMARK    7  A    between atoms: N_9  and  C_13
REMARK    8  A    between atoms: N_10  and  C_18
REMARK    9  A    between atoms: N_11  and  C_25
REMARK   10  A    between atoms: C_12  and  C_16
REMARK   11  A    between atoms: C_17  and  C_20
REMARK   12  A    between atoms: C_18  and  C_19
REMARK   13  A    between atoms: C_18  and  C_22
REMARK   14  A    between atoms: C_19  and  C_23
REMARK   15  A    between atoms: C_19  and  C_24
REMARK                            x       y       z     vdW  Elec       q    Type
REMARK                         _______ _______ _______ _____ _____    ______ ____
ROOT
ATOM      4  O   UNL     1      10.693   5.735   5.035  0.00  0.00    -0.275 OA
ATOM      8  N   UNL     1      12.253   7.420   5.323  0.00  0.00    -0.287 N 
ATOM     12  C   UNL     1      12.261   7.870   3.938  0.00  0.00    +0.164 C 
ATOM     13  C   UNL     1      13.905   9.122   5.190  0.00  0.00    +0.094 C 
ATOM     14  C   UNL     1      12.999   9.207   3.959  0.00  0.00    +0.055 C 
ATOM     15  C   UNL     1      13.103   8.264   6.163  0.00  0.00    +0.131 C 
ATOM     17  C   UNL     1      11.395   6.428   5.773  0.00  0.00    +0.226 C 
ENDROOT
BRANCH  13   9
ATOM      5  O   UNL     1      16.452   9.874   6.262  0.00  0.00    -0.253 OA
ATOM      9  N   UNL     1      15.181   8.527   4.878  0.00  0.00    -0.295 N 
ATOM     11  N   UNL     1      17.454   8.197   4.959  0.00  0.00    -0.269 N 
ATOM     21  C   UNL     1      16.386   8.956   5.449  0.00  0.00    +0.304 C 
ATOM     34  H   UNL     1      15.214   7.797   4.173  0.00  0.00    +0.151 HD
ATOM     36  H   UNL     1      17.226   7.463   4.293  0.00  0.00    +0.156 HD
BRANCH  11  25
ATOM     25  C   UNL     1      18.825   8.316   5.285  0.00  0.00    +0.036 A 
ATOM     27  C   UNL     1      19.787   8.310   4.275  0.00  0.00    +0.038 A 
ATOM     28  C   UNL     1      19.216   8.439   6.619  0.00  0.00    +0.023 A 
ATOM     30  C   UNL     1      21.138   8.426   4.598  0.00  0.00    +0.009 A 
ATOM     31  C   UNL     1      20.567   8.556   6.942  0.00  0.00    +0.003 A 
ATOM     32  C   UNL     1      21.529   8.550   5.932  0.00  0.00    +0.015 A 
BRANCH  30   2
ATOM      2  S   UNL     1      22.367   8.421   3.308  0.00  0.00    -0.129 S 
ATOM     33  C   UNL     1      21.947   6.904   2.404  0.00  0.00    +0.090 C 
ENDBRANCH  30   2
ENDBRANCH  11  25
ENDBRANCH  13   9
BRANCH  12  16
ATOM      3  O   UNL     1      14.203   6.709   3.177  0.00  0.00    -0.274 OA
ATOM     10  N   UNL     1      12.131   6.153   2.273  0.00  0.00    -0.301 N 
ATOM     16  C   UNL     1      12.986   6.854   3.107  0.00  0.00    +0.234 C 
ATOM     35  H   UNL     1      11.134   6.346   2.310  0.00  0.00    +0.150 HD
BRANCH  10  18
ATOM     18  C   UNL     1      12.583   5.134   1.355  0.00  0.00    +0.184 C 
BRANCH  18  19
ATOM     19  C   UNL     1      11.874   5.215  -0.014  0.00  0.00    +0.014 C 
ATOM     23  C   UNL     1      12.519   6.224  -0.971  0.00  0.00    +0.009 C 
ATOM     24  C   UNL     1      10.384   5.531   0.150  0.00  0.00    +0.009 C 
ENDBRANCH  18  19
BRANCH  18  22
ATOM      7  O   UNL     1      11.503   3.396   2.646  0.00  0.00    -0.249 OA
ATOM     22  C   UNL     1      12.461   3.739   1.960  0.00  0.00    +0.328 C 
BRANCH  22   6
ATOM      6  O   UNL     1      13.526   2.947   1.649  0.00  0.00    -0.467 OA
ATOM     29  C   UNL     1      14.803   3.594   1.649  0.00  0.00    +0.280 C 
ENDBRANCH  22   6
ENDBRANCH  18  22
ENDBRANCH  10  18
ENDBRANCH  12  16
BRANCH  17  20
ATOM     20  C   UNL     1      11.370   6.217   7.266  0.00  0.00    +0.164 C 
BRANCH  20   1
ATOM      1  S   UNL     1       9.654   6.288   7.800  0.00  0.00    -0.155 S 
ATOM     26  C   UNL     1       9.658   4.885   8.944  0.00  0.00    +0.085 C 
ENDBRANCH  20   1
ENDBRANCH  17  20
TORSDOF 10
ENDMDL
MODEL 4
REMARK VINA RESULT:      -5.4      2.743      4.796
REMARK  Name = 7127962
REMARK  15 active torsions:
REMARK  status: ('A' for Active; 'I' for Inactive)
REMARK    1  A    between atoms: S_1  and  C_20
REMARK    2  A    between atoms: S_1  and  C_26
REMARK    3  A    between atoms: S_2  and  C_30
REMARK    4  A    between atoms: S_2  and  C_33
REMARK    5  A    between atoms: O_6  and  C_22
REMARK    6  A    between atoms: O_6  and  C_29
REMARK    7  A    between atoms: N_9  and  C_13
REMARK    8  A    between atoms: N_10  and  C_18
REMARK    9  A    between atoms: N_11  and  C_25
REMARK   10  A    between atoms: C_12  and  C_16
REMARK   11  A    between atoms: C_17  and  C_20
REMARK   12  A    between atoms: C_18  and  C_19
REMARK   13  A    between atoms: C_18  and  C_22
REMARK   14  A    between atoms: C_19  and  C_23
REMARK   15  A    between atoms: C_19  and  C_24
REMARK                            x       y       z     vdW  Elec       q    Type
REMARK                         _______ _______ _______ _____ _____    ______ ____
ROOT
ATOM      4  O   UNL     1     -14.223  -6.745  16.095  0.00  0.00    -0.275 OA
ATOM      8  N   UNL     1     -12.397  -7.693  15.037  0.00  0.00    -0.287 N 
ATOM     12  C   UNL     1     -12.488  -8.990  15.691  0.00  0.00    +0.164 C 
ATOM     13  C   UNL     1     -10.529  -8.948  14.278  0.00  0.00    +0.094 C 
ATOM     14  C   UNL     1     -11.554  -9.902  14.898  0.00  0.00    +0.055 C 
ATOM     15  C   UNL     1     -11.329  -7.673  14.038  0.00  0.00    +0.131 C 
ATOM     17  C   UNL     1     -13.337  -6.694  15.242  0.00  0.00    +0.226 C 
ENDROOT
BRANCH  13   9
ATOM      5  O   UNL     1      -8.496 -10.837  14.991  0.00  0.00    -0.253 OA
ATOM      9  N   UNL     1      -9.408  -8.719  15.157  0.00  0.00    -0.295 N 
ATOM     11  N   UNL     1      -7.490  -9.193  16.332  0.00  0.00    -0.269 N 
ATOM     21  C   UNL     1      -8.454  -9.701  15.456  0.00  0.00    +0.304 C 
ATOM     34  H   UNL     1      -9.336  -7.820  15.623  0.00  0.00    +0.151 HD
ATOM     36  H   UNL     1      -7.597  -8.222  16.616  0.00  0.00    +0.156 HD
BRANCH  11  25
ATOM     25  C   UNL     1      -6.368  -9.863  16.870  0.00  0.00    +0.036 A 
ATOM     27  C   UNL     1      -5.202  -9.992  16.114  0.00  0.00    +0.038 A 
ATOM     28  C   UNL     1      -6.425 -10.396  18.158  0.00  0.00    +0.023 A 
ATOM     30  C   UNL     1      -4.096 -10.654  16.646  0.00  0.00    +0.009 A 
ATOM     31  C   UNL     1      -5.319 -11.058  18.690  0.00  0.00    +0.003 A 
ATOM     32  C   UNL     1      -4.154 -11.187  17.934  0.00  0.00    +0.015 A 
BRANCH  30   2
ATOM      2  S   UNL     1      -2.606 -10.817  15.681  0.00  0.00    -0.129 S 
ATOM     33  C   UNL     1      -3.250 -10.716  13.988  0.00  0.00    +0.090 C 
ENDBRANCH  30   2
ENDBRANCH  11  25
ENDBRANCH  13   9
BRANCH  12  16
ATOM      3  O   UNL     1     -11.175  -8.035  17.441  0.00  0.00    -0.274 OA
ATOM     10  N   UNL     1     -12.686  -9.729  17.961  0.00  0.00    -0.301 N 
ATOM     16  C   UNL     1     -12.037  -8.845  17.114  0.00  0.00    +0.234 C 
ATOM     35  H   UNL     1     -13.398 -10.347  17.582  0.00  0.00    +0.150 HD
BRANCH  10  18
ATOM     18  C   UNL     1     -12.416  -9.806  19.378  0.00  0.00    +0.184 C 
BRANCH  18  19
ATOM     19  C   UNL     1     -11.492 -10.989  19.740  0.00  0.00    +0.014 C 
ATOM     23  C   UNL     1     -10.009 -10.608  19.781  0.00  0.00    +0.009 C 
ATOM     24  C   UNL     1     -11.702 -12.169  18.785  0.00  0.00    +0.009 C 
ENDBRANCH  18  19
BRANCH  18  22
ATOM      7  O   UNL     1     -14.716  -9.232  19.859  0.00  0.00    -0.249 OA
ATOM     22  C   UNL     1     -13.703  -9.839  20.194  0.00  0.00    +0.328 C 
BRANCH  22   6
ATOM      6  O   UNL     1     -13.585 -10.606  21.314  0.00  0.00    -0.467 OA
ATOM     29  C   UNL     1     -14.623 -11.571  21.520  0.00  0.00    +0.280 C 
ENDBRANCH  22   6
ENDBRANCH  18  22
ENDBRANCH  10  18
ENDBRANCH  12  16
BRANCH  17  20
ATOM     20  C   UNL     1     -13.211  -5.489  14.345  0.00  0.00    +0.164 C 
BRANCH  20   1
ATOM      1  S   UNL     1     -14.705  -5.392  13.347  0.00  0.00    -0.155 S 
ATOM     26  C   UNL     1     -14.647  -3.632  12.926  0.00  0.00    +0.085 C 
ENDBRANCH  20   1
ENDBRANCH  17  20
TORSDOF 10
ENDMDL
MODEL 5
REMARK VINA RESULT:      -5.3      2.768      5.470
REMARK  Name = 7127962
REMARK  15 active torsions:
REMARK  status: ('A' for Active; 'I' for Inactive)
REMARK    1  A    between atoms: S_1  and  C_20
REMARK    2  A    between atoms: S_1  and  C_26
REMARK    3  A    between atoms: S_2  and  C_30
REMARK    4  A    between atoms: S_2  and  C_33
REMARK    5  A    between atoms: O_6  and  C_22
REMARK    6  A    between atoms: O_6  and  C_29
REMARK    7  A    between atoms: N_9  and  C_13
REMARK    8  A    between atoms: N_10  and  C_18
REMARK    9  A    between atoms: N_11  and  C_25
REMARK   10  A    between atoms: C_12  and  C_16
REMARK   11  A    between atoms: C_17  and  C_20
REMARK   12  A    between atoms: C_18  and  C_19
REMARK   13  A    between atoms: C_18  and  C_22
REMARK   14  A    between atoms: C_19  and  C_23
REMARK   15  A    between atoms: C_19  and  C_24
REMARK                            x       y       z     vdW  Elec       q    Type
REMARK                         _______ _______ _______ _____ _____    ______ ____
ROOT
ATOM      4  O   UNL     1      -9.323 -11.166  19.473  0.00  0.00    -0.275 OA
ATOM      8  N   UNL     1      -7.190 -11.664  18.727  0.00  0.00    -0.287 N 
ATOM     12  C   UNL     1      -6.728 -10.287  18.629  0.00  0.00    +0.164 C 
ATOM     13  C   UNL     1      -4.995 -11.765  17.825  0.00  0.00    +0.094 C 
ATOM     14  C   UNL     1      -5.214 -10.386  18.453  0.00  0.00    +0.055 C 
ATOM     15  C   UNL     1      -6.117 -12.609  18.419  0.00  0.00    +0.131 C 
ATOM     17  C   UNL     1      -8.442 -11.990  19.225  0.00  0.00    +0.226 C 
ENDROOT
BRANCH  13   9
ATOM      5  O   UNL     1      -3.125 -10.503  16.059  0.00  0.00    -0.253 OA
ATOM      9  N   UNL     1      -5.065 -11.717  16.385  0.00  0.00    -0.295 N 
ATOM     11  N   UNL     1      -4.436 -11.192  14.238  0.00  0.00    -0.269 N 
ATOM     21  C   UNL     1      -4.105 -11.076  15.591  0.00  0.00    +0.304 C 
ATOM     34  H   UNL     1      -5.876 -12.122  15.928  0.00  0.00    +0.151 HD
ATOM     36  H   UNL     1      -5.283 -11.710  14.017  0.00  0.00    +0.156 HD
BRANCH  11  25
ATOM     25  C   UNL     1      -3.728 -10.685  13.125  0.00  0.00    +0.036 A 
ATOM     27  C   UNL     1      -4.419 -10.100  12.063  0.00  0.00    +0.038 A 
ATOM     28  C   UNL     1      -2.335 -10.769  13.087  0.00  0.00    +0.023 A 
ATOM     30  C   UNL     1      -3.718  -9.601  10.965  0.00  0.00    +0.009 A 
ATOM     31  C   UNL     1      -1.635 -10.270  11.989  0.00  0.00    +0.003 A 
ATOM     32  C   UNL     1      -2.327  -9.685  10.929  0.00  0.00    +0.015 A 
BRANCH  30   2
ATOM      2  S   UNL     1      -4.601  -8.852   9.610  0.00  0.00    -0.129 S 
ATOM     33  C   UNL     1      -4.889 -10.277   8.524  0.00  0.00    +0.090 C 
ENDBRANCH  30   2
ENDBRANCH  11  25
ENDBRANCH  13   9
BRANCH  12  16
ATOM      3  O   UNL     1      -6.763  -9.437  16.398  0.00  0.00    -0.274 OA
ATOM     10  N   UNL     1      -8.702  -9.315  17.681  0.00  0.00    -0.301 N 
ATOM     16  C   UNL     1      -7.379  -9.644  17.439  0.00  0.00    +0.234 C 
ATOM     35  H   UNL     1      -9.115  -9.549  18.580  0.00  0.00    +0.150 HD
BRANCH  10  18
ATOM     18  C   UNL     1      -9.544  -8.665  16.704  0.00  0.00    +0.184 C 
BRANCH  18  19
ATOM     19  C   UNL     1     -10.734  -7.922  17.350  0.00  0.00    +0.014 C 
ATOM     23  C   UNL     1     -11.984  -8.795  17.498  0.00  0.00    +0.009 C 
ATOM     24  C   UNL     1     -11.076  -6.645  16.577  0.00  0.00    +0.009 C 
ENDBRANCH  18  19
BRANCH  18  22
ATOM      7  O   UNL     1     -10.340  -9.282  14.504  0.00  0.00    -0.249 OA
ATOM     22  C   UNL     1     -10.017  -9.641  15.632  0.00  0.00    +0.328 C 
BRANCH  22   6
ATOM      6  O   UNL     1     -10.036 -10.929  16.079  0.00  0.00    -0.467 OA
ATOM     29  C   UNL     1     -10.936 -11.810  15.399  0.00  0.00    +0.280 C 
ENDBRANCH  22   6
ENDBRANCH  18  22
ENDBRANCH  10  18
ENDBRANCH  12  16
BRANCH  17  20
ATOM     20  C   UNL     1      -8.691 -13.460  19.447  0.00  0.00    +0.164 C 
BRANCH  20   1
ATOM      1  S   UNL     1     -10.470 -13.727  19.403  0.00  0.00    -0.155 S 
ATOM     26  C   UNL     1     -10.728 -14.183  21.136  0.00  0.00    +0.085 C 
ENDBRANCH  20   1
ENDBRANCH  17  20
TORSDOF 10
ENDMDL
MODEL 6
REMARK VINA RESULT:      -5.3      4.021      7.543
REMARK  Name = 7127962
REMARK  15 active torsions:
REMARK  status: ('A' for Active; 'I' for Inactive)
REMARK    1  A    between atoms: S_1  and  C_20
REMARK    2  A    between atoms: S_1  and  C_26
REMARK    3  A    between atoms: S_2  and  C_30
REMARK    4  A    between atoms: S_2  and  C_33
REMARK    5  A    between atoms: O_6  and  C_22
REMARK    6  A    between atoms: O_6  and  C_29
REMARK    7  A    between atoms: N_9  and  C_13
REMARK    8  A    between atoms: N_10  and  C_18
REMARK    9  A    between atoms: N_11  and  C_25
REMARK   10  A    between atoms: C_12  and  C_16
REMARK   11  A    between atoms: C_17  and  C_20
REMARK   12  A    between atoms: C_18  and  C_19
REMARK   13  A    between atoms: C_18  and  C_22
REMARK   14  A    between atoms: C_19  and  C_23
REMARK   15  A    between atoms: C_19  and  C_24
REMARK                            x       y       z     vdW  Elec       q    Type
REMARK                         _______ _______ _______ _____ _____    ______ ____
ROOT
ATOM      4  O   UNL     1      -2.654 -14.831  14.907  0.00  0.00    -0.275 OA
ATOM      8  N   UNL     1      -2.473 -12.889  13.662  0.00  0.00    -0.287 N 
ATOM     12  C   UNL     1      -2.564 -11.968  14.787  0.00  0.00    +0.164 C 
ATOM     13  C   UNL     1      -2.461 -10.703  12.731  0.00  0.00    +0.094 C 
ATOM     14  C   UNL     1      -2.143 -10.612  14.226  0.00  0.00    +0.055 C 
ATOM     15  C   UNL     1      -2.232 -12.176  12.408  0.00  0.00    +0.131 C 
ATOM     17  C   UNL     1      -2.445 -14.265  13.834  0.00  0.00    +0.226 C 
ENDROOT
BRANCH  13   9
ATOM      5  O   UNL     1      -3.664 -10.454  10.143  0.00  0.00    -0.253 OA
ATOM      9  N   UNL     1      -3.815 -10.297  12.445  0.00  0.00    -0.295 N 
ATOM     11  N   UNL     1      -5.663  -9.784  11.177  0.00  0.00    -0.269 N 
ATOM     21  C   UNL     1      -4.328 -10.200  11.145  0.00  0.00    +0.304 C 
ATOM     34  H   UNL     1      -4.410 -10.019  13.219  0.00  0.00    +0.151 HD
ATOM     36  H   UNL     1      -6.069  -9.624  12.096  0.00  0.00    +0.156 HD
BRANCH  11  25
ATOM     25  C   UNL     1      -6.531  -9.567  10.083  0.00  0.00    +0.036 A 
ATOM     27  C   UNL     1      -6.838  -8.266   9.682  0.00  0.00    +0.038 A 
ATOM     28  C   UNL     1      -7.081 -10.653   9.403  0.00  0.00    +0.023 A 
ATOM     30  C   UNL     1      -7.695  -8.053   8.602  0.00  0.00    +0.009 A 
ATOM     31  C   UNL     1      -7.939 -10.440   8.324  0.00  0.00    +0.003 A 
ATOM     32  C   UNL     1      -8.245  -9.140   7.923  0.00  0.00    +0.015 A 
BRANCH  30   2
ATOM      2  S   UNL     1      -8.085  -6.392   8.089  0.00  0.00    -0.129 S 
ATOM     33  C   UNL     1      -9.801  -6.223   8.656  0.00  0.00    +0.090 C 
ENDBRANCH  30   2
ENDBRANCH  11  25
ENDBRANCH  13   9
BRANCH  12  16
ATOM      3  O   UNL     1      -4.913 -11.611  14.549  0.00  0.00    -0.274 OA
ATOM     10  N   UNL     1      -4.083 -12.315  16.607  0.00  0.00    -0.301 N 
ATOM     16  C   UNL     1      -3.982 -11.945  15.276  0.00  0.00    +0.234 C 
ATOM     35  H   UNL     1      -3.243 -12.588  17.110  0.00  0.00    +0.150 HD
BRANCH  10  18
ATOM     18  C   UNL     1      -5.336 -12.352  17.323  0.00  0.00    +0.184 C 
BRANCH  18  19
ATOM     19  C   UNL     1      -5.166 -12.058  18.829  0.00  0.00    +0.014 C 
ATOM     23  C   UNL     1      -5.726 -10.694  19.246  0.00  0.00    +0.009 C 
ATOM     24  C   UNL     1      -3.699 -12.172  19.254  0.00  0.00    +0.009 C 
ENDBRANCH  18  19
BRANCH  18  22
ATOM      7  O   UNL     1      -5.493 -14.742  16.981  0.00  0.00    -0.249 OA
ATOM     22  C   UNL     1      -6.074 -13.666  17.095  0.00  0.00    +0.328 C 
BRANCH  22   6
ATOM      6  O   UNL     1      -7.425 -13.496  17.034  0.00  0.00    -0.467 OA
ATOM     29  C   UNL     1      -7.872 -12.288  16.410  0.00  0.00    +0.280 C 
ENDBRANCH  22   6
ENDBRANCH  18  22
ENDBRANCH  10  18
ENDBRANCH  12  16
BRANCH  17  20
ATOM     20  C   UNL     1      -2.149 -15.069  12.593  0.00  0.00    +0.164 C 
BRANCH  20   1
ATOM      1  S   UNL     1      -0.707 -16.088  12.933  0.00  0.00    -0.155 S 
ATOM     26  C   UNL     1      -0.462 -16.787  11.281  0.00  0.00    +0.085 C 
ENDBRANCH  20   1
ENDBRANCH  17  20
TORSDOF 10
ENDMDL
MODEL 7
REMARK VINA RESULT:      -5.2     24.847     28.548
REMARK  Name = 7127962
REMARK  15 active torsions:
REMARK  status: ('A' for Active; 'I' for Inactive)
REMARK    1  A    between atoms: S_1  and  C_20
REMARK    2  A    between atoms: S_1  and  C_26
REMARK    3  A    between atoms: S_2  and  C_30
REMARK    4  A    between atoms: S_2  and  C_33
REMARK    5  A    between atoms: O_6  and  C_22
REMARK    6  A    between atoms: O_6  and  C_29
REMARK    7  A    between atoms: N_9  and  C_13
REMARK    8  A    between atoms: N_10  and  C_18
REMARK    9  A    between atoms: N_11  and  C_25
REMARK   10  A    between atoms: C_12  and  C_16
REMARK   11  A    between atoms: C_17  and  C_20
REMARK   12  A    between atoms: C_18  and  C_19
REMARK   13  A    between atoms: C_18  and  C_22
REMARK   14  A    between atoms: C_19  and  C_23
REMARK   15  A    between atoms: C_19  and  C_24
REMARK                            x       y       z     vdW  Elec       q    Type
REMARK                         _______ _______ _______ _____ _____    ______ ____
ROOT
ATOM      4  O   UNL     1      12.340   6.432   3.562  0.00  0.00    -0.275 OA
ATOM      8  N   UNL     1      12.625   8.330   4.855  0.00  0.00    -0.287 N 
ATOM     12  C   UNL     1      13.458   7.707   5.874  0.00  0.00    +0.164 C 
ATOM     13  C   UNL     1      13.023  10.000   6.496  0.00  0.00    +0.094 C 
ATOM     14  C   UNL     1      14.038   8.868   6.678  0.00  0.00    +0.055 C 
ATOM     15  C   UNL     1      12.476   9.765   5.092  0.00  0.00    +0.131 C 
ATOM     17  C   UNL     1      12.198   7.644   3.728  0.00  0.00    +0.226 C 
ENDROOT
BRANCH  13   9
ATOM      5  O   UNL     1      12.045  12.192   8.060  0.00  0.00    -0.253 OA
ATOM      9  N   UNL     1      11.981   9.952   7.492  0.00  0.00    -0.295 N 
ATOM     11  N   UNL     1      10.539  10.726   9.106  0.00  0.00    -0.269 N 
ATOM     21  C   UNL     1      11.559  11.075   8.216  0.00  0.00    +0.304 C 
ATOM     34  H   UNL     1      11.568   9.052   7.716  0.00  0.00    +0.151 HD
ATOM     36  H   UNL     1      10.244   9.752   9.105  0.00  0.00    +0.156 HD
BRANCH  11  25
ATOM     25  C   UNL     1       9.851  11.567  10.010  0.00  0.00    +0.036 A 
ATOM     27  C   UNL     1       8.635  12.143   9.642  0.00  0.00    +0.038 A 
ATOM     28  C   UNL     1      10.388  11.821  11.273  0.00  0.00    +0.023 A 
ATOM     30  C   UNL     1       7.958  12.973  10.535  0.00  0.00    +0.009 A 
ATOM     31  C   UNL     1       9.711  12.652  12.165  0.00  0.00    +0.003 A 
ATOM     32  C   UNL     1       8.495  13.227  11.797  0.00  0.00    +0.015 A 
BRANCH  30   2
ATOM      2  S   UNL     1       6.403  13.708  10.065  0.00  0.00    -0.129 S 
ATOM     33  C   UNL     1       6.518  15.344  10.843  0.00  0.00    +0.090 C 
ENDBRANCH  30   2
ENDBRANCH  11  25
ENDBRANCH  13   9
BRANCH  12  16
ATOM      3  O   UNL     1      13.057   6.181   7.666  0.00  0.00    -0.274 OA
ATOM     10  N   UNL     1      11.276   6.818   6.308  0.00  0.00    -0.301 N 
ATOM     16  C   UNL     1      12.596   6.823   6.726  0.00  0.00    +0.234 C 
ATOM     35  H   UNL     1      11.003   7.403   5.524  0.00  0.00    +0.150 HD
BRANCH  10  18
ATOM     18  C   UNL     1      10.249   6.029   6.948  0.00  0.00    +0.184 C 
BRANCH  18  19
ATOM     19  C   UNL     1       9.247   5.431   5.936  0.00  0.00    +0.014 C 
ATOM     23  C   UNL     1       9.869   4.364   5.029  0.00  0.00    +0.009 C 
ATOM     24  C   UNL     1       8.597   6.526   5.086  0.00  0.00    +0.009 C 
ENDBRANCH  18  19
BRANCH  18  22
ATOM      7  O   UNL     1       9.475   8.046   8.038  0.00  0.00    -0.249 OA
ATOM     22  C   UNL     1       9.531   6.820   8.036  0.00  0.00    +0.328 C 
BRANCH  22   6
ATOM      6  O   UNL     1       8.977   6.010   8.982  0.00  0.00    -0.467 OA
ATOM     29  C   UNL     1       9.649   4.765   9.206  0.00  0.00    +0.280 C 
ENDBRANCH  22   6
ENDBRANCH  18  22
ENDBRANCH  10  18
ENDBRANCH  12  16
BRANCH  17  20
ATOM     20  C   UNL     1      11.513   8.481   2.678  0.00  0.00    +0.164 C 
BRANCH  20   1
ATOM      1  S   UNL     1      12.364   8.204   1.117  0.00  0.00    -0.155 S 
ATOM     26  C   UNL     1      13.939   9.004   1.510  0.00  0.00    +0.085 C 
ENDBRANCH  20   1
ENDBRANCH  17  20
TORSDOF 10
ENDMDL
MODEL 8
REMARK VINA RESULT:      -5.1      3.765      7.856
REMARK  Name = 7127962
REMARK  15 active torsions:
REMARK  status: ('A' for Active; 'I' for Inactive)
REMARK    1  A    between atoms: S_1  and  C_20
REMARK    2  A    between atoms: S_1  and  C_26
REMARK    3  A    between atoms: S_2  and  C_30
REMARK    4  A    between atoms: S_2  and  C_33
REMARK    5  A    between atoms: O_6  and  C_22
REMARK    6  A    between atoms: O_6  and  C_29
REMARK    7  A    between atoms: N_9  and  C_13
REMARK    8  A    between atoms: N_10  and  C_18
REMARK    9  A    between atoms: N_11  and  C_25
REMARK   10  A    between atoms: C_12  and  C_16
REMARK   11  A    between atoms: C_17  and  C_20
REMARK   12  A    between atoms: C_18  and  C_19
REMARK   13  A    between atoms: C_18  and  C_22
REMARK   14  A    between atoms: C_19  and  C_23
REMARK   15  A    between atoms: C_19  and  C_24
REMARK                            x       y       z     vdW  Elec       q    Type
REMARK                         _______ _______ _______ _____ _____    ______ ____
ROOT
ATOM      4  O   UNL     1      -3.901 -12.461   8.557  0.00  0.00    -0.275 OA
ATOM      8  N   UNL     1      -5.354 -11.023   9.642  0.00  0.00    -0.287 N 
ATOM     12  C   UNL     1      -4.518  -9.836   9.530  0.00  0.00    +0.164 C 
ATOM     13  C   UNL     1      -6.495  -9.298  10.810  0.00  0.00    +0.094 C 
ATOM     14  C   UNL     1      -5.430  -8.671   9.906  0.00  0.00    +0.055 C 
ATOM     15  C   UNL     1      -6.644 -10.711  10.255  0.00  0.00    +0.131 C 
ATOM     17  C   UNL     1      -4.999 -12.233   9.065  0.00  0.00    +0.226 C 
ENDROOT
BRANCH  13   9
ATOM      5  O   UNL     1      -8.119  -9.983  13.068  0.00  0.00    -0.253 OA
ATOM      9  N   UNL     1      -6.089  -9.306  12.193  0.00  0.00    -0.295 N 
ATOM     11  N   UNL     1      -6.281  -9.572  14.469  0.00  0.00    -0.269 N 
ATOM     21  C   UNL     1      -6.949  -9.655  13.243  0.00  0.00    +0.304 C 
ATOM     34  H   UNL     1      -5.150  -8.995  12.423  0.00  0.00    +0.151 HD
ATOM     36  H   UNL     1      -5.303  -9.292  14.438  0.00  0.00    +0.156 HD
BRANCH  11  25
ATOM     25  C   UNL     1      -6.795  -9.840  15.758  0.00  0.00    +0.036 A 
ATOM     27  C   UNL     1      -6.185 -10.798  16.568  0.00  0.00    +0.038 A 
ATOM     28  C   UNL     1      -7.914  -9.147  16.220  0.00  0.00    +0.023 A 
ATOM     30  C   UNL     1      -6.695 -11.062  17.839  0.00  0.00    +0.009 A 
ATOM     31  C   UNL     1      -8.424  -9.412  17.491  0.00  0.00    +0.003 A 
ATOM     32  C   UNL     1      -7.814 -10.369  18.301  0.00  0.00    +0.015 A 
BRANCH  30   2
ATOM      2  S   UNL     1      -5.914 -12.284  18.876  0.00  0.00    -0.129 S 
ATOM     33  C   UNL     1      -4.161 -11.851  18.702  0.00  0.00    +0.090 C 
ENDBRANCH  30   2
ENDBRANCH  11  25
ENDBRANCH  13   9
BRANCH  12  16
ATOM      3  O   UNL     1      -2.455  -9.145  10.514  0.00  0.00    -0.274 OA
ATOM     10  N   UNL     1      -3.468 -11.099  11.274  0.00  0.00    -0.301 N 
ATOM     16  C   UNL     1      -3.368  -9.965  10.485  0.00  0.00    +0.234 C 
ATOM     35  H   UNL     1      -4.279 -11.702  11.174  0.00  0.00    +0.150 HD
BRANCH  10  18
ATOM     18  C   UNL     1      -2.476 -11.465  12.258  0.00  0.00    +0.184 C 
BRANCH  18  19
ATOM     19  C   UNL     1      -2.418 -12.988  12.501  0.00  0.00    +0.014 C 
ATOM     23  C   UNL     1      -3.802 -13.636  12.610  0.00  0.00    +0.009 C 
ATOM     24  C   UNL     1      -1.586 -13.321  13.743  0.00  0.00    +0.009 C 
ENDBRANCH  18  19
BRANCH  18  22
ATOM      7  O   UNL     1      -3.736 -10.707  14.180  0.00  0.00    -0.249 OA
ATOM     22  C   UNL     1      -2.674 -10.703  13.564  0.00  0.00    +0.328 C 
BRANCH  22   6
ATOM      6  O   UNL     1      -1.549 -10.034  13.947  0.00  0.00    -0.467 OA
ATOM     29  C   UNL     1      -1.235 -10.092  15.342  0.00  0.00    +0.280 C 
ENDBRANCH  22   6
ENDBRANCH  18  22
ENDBRANCH  10  18
ENDBRANCH  12  16
BRANCH  17  20
ATOM     20  C   UNL     1      -6.059 -13.306   9.100  0.00  0.00    +0.164 C 
BRANCH  20   1
ATOM      1  S   UNL     1      -5.224 -14.897   9.174  0.00  0.00    -0.155 S 
ATOM     26  C   UNL     1      -5.552 -15.464   7.487  0.00  0.00    +0.085 C 
ENDBRANCH  20   1
ENDBRANCH  17  20
TORSDOF 10
ENDMDL
MODEL 9
REMARK VINA RESULT:      -5.1     22.856     26.729
REMARK  Name = 7127962
REMARK  15 active torsions:
REMARK  status: ('A' for Active; 'I' for Inactive)
REMARK    1  A    between atoms: S_1  and  C_20
REMARK    2  A    between atoms: S_1  and  C_26
REMARK    3  A    between atoms: S_2  and  C_30
REMARK    4  A    between atoms: S_2  and  C_33
REMARK    5  A    between atoms: O_6  and  C_22
REMARK    6  A    between atoms: O_6  and  C_29
REMARK    7  A    between atoms: N_9  and  C_13
REMARK    8  A    between atoms: N_10  and  C_18
REMARK    9  A    between atoms: N_11  and  C_25
REMARK   10  A    between atoms: C_12  and  C_16
REMARK   11  A    between atoms: C_17  and  C_20
REMARK   12  A    between atoms: C_18  and  C_19
REMARK   13  A    between atoms: C_18  and  C_22
REMARK   14  A    between atoms: C_19  and  C_23
REMARK   15  A    between atoms: C_19  and  C_24
REMARK                            x       y       z     vdW  Elec       q    Type
REMARK                         _______ _______ _______ _____ _____    ______ ____
ROOT
ATOM      4  O   UNL     1      11.328  -4.721  36.003  0.00  0.00    -0.275 OA
ATOM      8  N   UNL     1       9.640  -5.622  34.701  0.00  0.00    -0.287 N 
ATOM     12  C   UNL     1       8.647  -4.600  34.996  0.00  0.00    +0.164 C 
ATOM     13  C   UNL     1       7.645  -6.304  33.607  0.00  0.00    +0.094 C 
ATOM     14  C   UNL     1       7.533  -4.822  33.975  0.00  0.00    +0.055 C 
ATOM     15  C   UNL     1       9.140  -6.587  33.722  0.00  0.00    +0.131 C 
ATOM     17  C   UNL     1      10.941  -5.548  35.176  0.00  0.00    +0.226 C 
ENDROOT
BRANCH  13   9
ATOM      5  O   UNL     1       5.884  -8.435  32.855  0.00  0.00    -0.253 OA
ATOM      9  N   UNL     1       6.873  -7.138  34.495  0.00  0.00    -0.295 N 
ATOM     11  N   UNL     1       5.415  -8.799  35.127  0.00  0.00    -0.269 N 
ATOM     21  C   UNL     1       6.032  -8.164  34.044  0.00  0.00    +0.304 C 
ATOM     34  H   UNL     1       6.901  -6.940  35.490  0.00  0.00    +0.151 HD
ATOM     36  H   UNL     1       5.654  -8.456  36.054  0.00  0.00    +0.156 HD
BRANCH  11  25
ATOM     25  C   UNL     1       4.500  -9.875  35.095  0.00  0.00    +0.036 A 
ATOM     27  C   UNL     1       4.906 -11.125  34.627  0.00  0.00    +0.038 A 
ATOM     28  C   UNL     1       3.188  -9.688  35.533  0.00  0.00    +0.023 A 
ATOM     30  C   UNL     1       4.001 -12.186  34.595  0.00  0.00    +0.009 A 
ATOM     31  C   UNL     1       2.283 -10.749  35.501  0.00  0.00    +0.003 A 
ATOM     32  C   UNL     1       2.690 -11.998  35.033  0.00  0.00    +0.015 A 
BRANCH  30   2
ATOM      2  S   UNL     1       4.521 -13.783  33.998  0.00  0.00    -0.129 S 
ATOM     33  C   UNL     1       4.585 -13.505  32.206  0.00  0.00    +0.090 C 
ENDBRANCH  30   2
ENDBRANCH  11  25
ENDBRANCH  13   9
BRANCH  12  16
ATOM      3  O   UNL     1       8.164  -5.898  36.941  0.00  0.00    -0.274 OA
ATOM     10  N   UNL     1       7.691  -3.618  36.961  0.00  0.00    -0.301 N 
ATOM     16  C   UNL     1       8.155  -4.796  36.399  0.00  0.00    +0.234 C 
ATOM     35  H   UNL     1       7.747  -2.757  36.423  0.00  0.00    +0.150 HD
BRANCH  10  18
ATOM     18  C   UNL     1       7.143  -3.542  38.295  0.00  0.00    +0.184 C 
BRANCH  18  19
ATOM     19  C   UNL     1       5.801  -2.780  38.340  0.00  0.00    +0.014 C 
ATOM     23  C   UNL     1       4.999  -3.043  39.619  0.00  0.00    +0.009 C 
ATOM     24  C   UNL     1       4.943  -3.096  37.111  0.00  0.00    +0.009 C 
ENDBRANCH  18  19
BRANCH  18  22
ATOM      7  O   UNL     1       8.555  -3.575  40.259  0.00  0.00    -0.249 OA
ATOM     22  C   UNL     1       8.147  -2.955  39.281  0.00  0.00    +0.328 C 
BRANCH  22   6
ATOM      6  O   UNL     1       8.519  -1.688  38.946  0.00  0.00    -0.467 OA
ATOM     29  C   UNL     1       8.420  -0.713  39.990  0.00  0.00    +0.280 C 
ENDBRANCH  22   6
ENDBRANCH  18  22
ENDBRANCH  10  18
ENDBRANCH  12  16
BRANCH  17  20
ATOM     20  C   UNL     1      11.896  -6.575  34.622  0.00  0.00    +0.164 C 
BRANCH  20   1
ATOM      1  S   UNL     1      13.250  -5.693  33.833  0.00  0.00    -0.155 S 
ATOM     26  C   UNL     1      12.362  -5.044  32.395  0.00  0.00    +0.085 C 
ENDBRANCH  20   1
ENDBRANCH  17  20
TORSDOF 10
ENDMDL
MODEL 10
REMARK VINA RESULT:      -5.0     26.736     29.999
REMARK  Name = 7127962
REMARK  15 active torsions:
REMARK  status: ('A' for Active; 'I' for Inactive)
REMARK    1  A    between atoms: S_1  and  C_20
REMARK    2  A    between atoms: S_1  and  C_26
REMARK    3  A    between atoms: S_2  and  C_30
REMARK    4  A    between atoms: S_2  and  C_33
REMARK    5  A    between atoms: O_6  and  C_22
REMARK    6  A    between atoms: O_6  and  C_29
REMARK    7  A    between atoms: N_9  and  C_13
REMARK    8  A    between atoms: N_10  and  C_18
REMARK    9  A    between atoms: N_11  and  C_25
REMARK   10  A    between atoms: C_12  and  C_16
REMARK   11  A    between atoms: C_17  and  C_20
REMARK   12  A    between atoms: C_18  and  C_19
REMARK   13  A    between atoms: C_18  and  C_22
REMARK   14  A    between atoms: C_19  and  C_23
REMARK   15  A    between atoms: C_19  and  C_24
REMARK                            x       y       z     vdW  Elec       q    Type
REMARK                         _______ _______ _______ _____ _____    ______ ____
ROOT
ATOM      4  O   UNL     1      10.148  10.220   8.849  0.00  0.00    -0.275 OA
ATOM      8  N   UNL     1      12.054  10.919   7.737  0.00  0.00    -0.287 N 
ATOM     12  C   UNL     1      11.743  10.277   6.467  0.00  0.00    +0.164 C 
ATOM     13  C   UNL     1      13.921  11.312   6.322  0.00  0.00    +0.094 C 
ATOM     14  C   UNL     1      12.728  10.877   5.467  0.00  0.00    +0.055 C 
ATOM     15  C   UNL     1      13.281  11.708   7.649  0.00  0.00    +0.131 C 
ATOM     17  C   UNL     1      11.175  10.899   8.809  0.00  0.00    +0.226 C 
ENDROOT
BRANCH  13   9
ATOM      5  O   UNL     1      16.509  11.133   5.107  0.00  0.00    -0.253 OA
ATOM      9  N   UNL     1      14.880  10.247   6.488  0.00  0.00    -0.295 N 
ATOM     11  N   UNL     1      16.840   9.082   6.201  0.00  0.00    -0.269 N 
ATOM     21  C   UNL     1      16.129  10.235   5.855  0.00  0.00    +0.304 C 
ATOM     34  H   UNL     1      14.616   9.443   7.049  0.00  0.00    +0.151 HD
ATOM     36  H   UNL     1      16.383   8.439   6.843  0.00  0.00    +0.156 HD
BRANCH  11  25
ATOM     25  C   UNL     1      18.132   8.698   5.775  0.00  0.00    +0.036 A 
ATOM     27  C   UNL     1      18.394   8.510   4.418  0.00  0.00    +0.038 A 
ATOM     28  C   UNL     1      19.148   8.508   6.713  0.00  0.00    +0.023 A 
ATOM     30  C   UNL     1      19.669   8.130   3.999  0.00  0.00    +0.009 A 
ATOM     31  C   UNL     1      20.423   8.128   6.294  0.00  0.00    +0.003 A 
ATOM     32  C   UNL     1      20.683   7.940   4.937  0.00  0.00    +0.015 A 
BRANCH  30   2
ATOM      2  S   UNL     1      20.004   7.891   2.265  0.00  0.00    -0.129 S 
ATOM     33  C   UNL     1      19.895   9.588   1.631  0.00  0.00    +0.090 C 
ENDBRANCH  30   2
ENDBRANCH  11  25
ENDBRANCH  13   9
BRANCH  12  16
ATOM      3  O   UNL     1      13.059   8.298   6.697  0.00  0.00    -0.274 OA
ATOM     10  N   UNL     1      10.740   8.107   6.621  0.00  0.00    -0.301 N 
ATOM     16  C   UNL     1      11.940   8.797   6.614  0.00  0.00    +0.234 C 
ATOM     35  H   UNL     1       9.869   8.627   6.563  0.00  0.00    +0.150 HD
BRANCH  10  18
ATOM     18  C   UNL     1      10.657   6.669   6.729  0.00  0.00    +0.184 C 
BRANCH  18  19
ATOM     19  C   UNL     1      10.038   6.017   5.473  0.00  0.00    +0.014 C 
ATOM     23  C   UNL     1      11.069   5.709   4.382  0.00  0.00    +0.009 C 
ATOM     24  C   UNL     1       8.911   6.880   4.899  0.00  0.00    +0.009 C 
ENDBRANCH  18  19
BRANCH  18  22
ATOM      7  O   UNL     1       8.931   6.832   8.416  0.00  0.00    -0.249 OA
ATOM     22  C   UNL     1       9.921   6.242   7.994  0.00  0.00    +0.328 C 
BRANCH  22   6
ATOM      6  O   UNL     1      10.492   5.151   8.580  0.00  0.00    -0.467 OA
ATOM     29  C   UNL     1       9.677   3.975   8.632  0.00  0.00    +0.280 C 
ENDBRANCH  22   6
ENDBRANCH  18  22
ENDBRANCH  10  18
ENDBRANCH  12  16
BRANCH  17  20
ATOM     20  C   UNL     1      11.555  11.773   9.978  0.00  0.00    +0.164 C 
BRANCH  20   1
ATOM      1  S   UNL     1      10.402  13.153  10.027  0.00  0.00    -0.155 S 
ATOM     26  C   UNL     1       9.641  12.824  11.636  0.00  0.00    +0.085 C 
ENDBRANCH  20   1
ENDBRANCH  17  20
TORSDOF 10
ENDMDL
