MODEL 1
REMARK VINA RESULT:      -7.2      0.000      0.000
REMARK  Name = 75536841
REMARK  7 active torsions:
REMARK  status: ('A' for Active; 'I' for Inactive)
REMARK    1  A    between atoms: O_2  and  C_10
REMARK    2  A    between atoms: N_4  and  C_8
REMARK    3  A    between atoms: N_4  and  C_9
REMARK    4  A    between atoms: N_5  and  C_18
REMARK    5  A    between atoms: N_6  and  C_17
REMARK    6  A    between atoms: N_7  and  C_20
REMARK    7  A    between atoms: C_11  and  C_17
REMARK                            x       y       z     vdW  Elec       q    Type
REMARK                         _______ _______ _______ _____ _____    ______ ____
ROOT
ATOM      1  O   UNL     1      11.523   9.723  20.366  0.00  0.00    -0.371 OA
ATOM      8  C   UNL     1      12.691   8.135  19.040  0.00  0.00    +0.111 C 
ATOM     10  C   UNL     1      12.348   7.506  20.378  0.00  0.00    +0.164 C 
ATOM     11  C   UNL     1      11.207   8.403  20.840  0.00  0.00    +0.165 C 
ATOM     14  C   UNL     1      12.542   9.615  19.357  0.00  0.00    +0.181 C 
ENDROOT
BRANCH  10   2
ATOM      2  O   UNL     1      11.942   6.156  20.258  0.00  0.00    -0.388 OA
ATOM     27  H   UNL     1      12.520   5.719  19.608  0.00  0.00    +0.210 HD
ENDBRANCH  10   2
BRANCH   8   4
ATOM      4  N   UNL     1      14.018   7.791  18.556  0.00  0.00    -0.306 NA
ATOM     26  H   UNL     1      14.346   8.496  17.897  0.00  0.00    +0.123 HD
BRANCH   4   9
ATOM      5  N   UNL     1      17.713   7.745  20.656  0.00  0.00    -0.305 NA
ATOM      9  C   UNL     1      14.960   7.671  19.666  0.00  0.00    +0.056 C 
ATOM     12  C   UNL     1      15.724   8.983  19.858  0.00  0.00    +0.034 C 
ATOM     13  C   UNL     1      15.946   6.523  19.427  0.00  0.00    +0.034 C 
ATOM     15  C   UNL     1      16.786   8.845  20.952  0.00  0.00    +0.085 C 
ATOM     16  C   UNL     1      17.000   6.466  20.536  0.00  0.00    +0.085 C 
ATOM     18  C   UNL     1      18.750   7.659  21.683  0.00  0.00    +0.104 C 
ENDBRANCH   4   9
ENDBRANCH   8   4
BRANCH  11  17
ATOM     17  C   UNL     1      11.036   8.427  22.349  0.00  0.00    +0.140 C 
BRANCH  17   6
ATOM      3  O   UNL     1      12.229  10.767  23.492  0.00  0.00    -0.253 OA
ATOM      6  N   UNL     1      10.355   9.614  22.777  0.00  0.00    -0.297 N 
ATOM      7  N   UNL     1      10.093  11.730  23.652  0.00  0.00    -0.269 N 
ATOM     19  C   UNL     1      11.011  10.726  23.330  0.00  0.00    +0.304 C 
ATOM     28  H   UNL     1       9.345   9.646  22.685  0.00  0.00    +0.150 HD
ATOM     29  H   UNL     1       9.115  11.534  23.453  0.00  0.00    +0.156 HD
BRANCH   7  20
ATOM     20  C   UNL     1      10.357  12.995  24.224  0.00  0.00    +0.035 A 
ATOM     21  C   UNL     1      10.335  14.139  23.427  0.00  0.00    +0.023 A 
ATOM     22  C   UNL     1      10.640  13.099  25.587  0.00  0.00    +0.023 A 
ATOM     23  C   UNL     1      10.595  15.389  23.992  0.00  0.00    +0.002 A 
ATOM     24  C   UNL     1      10.901  14.348  26.150  0.00  0.00    +0.002 A 
ATOM     25  C   UNL     1      10.879  15.493  25.354  0.00  0.00    +0.000 A 
ENDBRANCH   7  20
ENDBRANCH  17   6
ENDBRANCH  11  17
TORSDOF 6
ENDMDL
MODEL 2
REMARK VINA RESULT:      -7.1     26.488     28.602
REMARK  Name = 75536841
REMARK  7 active torsions:
REMARK  status: ('A' for Active; 'I' for Inactive)
REMARK    1  A    between atoms: O_2  and  C_10
REMARK    2  A    between atoms: N_4  and  C_8
REMARK    3  A    between atoms: N_4  and  C_9
REMARK    4  A    between atoms: N_5  and  C_18
REMARK    5  A    between atoms: N_6  and  C_17
REMARK    6  A    between atoms: N_7  and  C_20
REMARK    7  A    between atoms: C_11  and  C_17
REMARK                            x       y       z     vdW  Elec       q    Type
REMARK                         _______ _______ _______ _____ _____    ______ ____
ROOT
ATOM      1  O   UNL     1     -16.631   4.175  22.370  0.00  0.00    -0.371 OA
ATOM      8  C   UNL     1     -14.548   5.286  22.116  0.00  0.00    +0.111 C 
ATOM     10  C   UNL     1     -14.713   4.871  23.566  0.00  0.00    +0.164 C 
ATOM     11  C   UNL     1     -15.758   3.771  23.439  0.00  0.00    +0.165 C 
ATOM     14  C   UNL     1     -15.982   5.213  21.616  0.00  0.00    +0.181 C 
ENDROOT
BRANCH  10   2
ATOM      2  O   UNL     1     -13.511   4.392  24.137  0.00  0.00    -0.388 OA
ATOM     27  H   UNL     1     -13.731   3.902  24.948  0.00  0.00    +0.210 HD
ENDBRANCH  10   2
BRANCH   8   4
ATOM      4  N   UNL     1     -13.957   6.604  21.950  0.00  0.00    -0.306 NA
ATOM     26  H   UNL     1     -13.212   6.744  22.632  0.00  0.00    +0.123 HD
BRANCH   4   9
ATOM      5  N   UNL     1     -12.069   8.430  18.608  0.00  0.00    -0.305 NA
ATOM      9  C   UNL     1     -13.432   6.771  20.597  0.00  0.00    +0.056 C 
ATOM     12  C   UNL     1     -11.923   7.026  20.641  0.00  0.00    +0.034 C 
ATOM     13  C   UNL     1     -14.135   7.924  19.874  0.00  0.00    +0.034 C 
ATOM     15  C   UNL     1     -11.372   7.302  19.240  0.00  0.00    +0.085 C 
ATOM     16  C   UNL     1     -13.511   8.170  18.498  0.00  0.00    +0.085 C 
ATOM     18  C   UNL     1     -11.497   8.713  17.292  0.00  0.00    +0.104 C 
ENDBRANCH   4   9
ENDBRANCH   8   4
BRANCH  11  17
ATOM     17  C   UNL     1     -16.565   3.560  24.708  0.00  0.00    +0.140 C 
BRANCH  17   6
ATOM      3  O   UNL     1     -17.209   2.624  27.338  0.00  0.00    -0.253 OA
ATOM      6  N   UNL     1     -15.733   3.639  25.874  0.00  0.00    -0.297 N 
ATOM      7  N   UNL     1     -15.109   3.370  28.076  0.00  0.00    -0.269 N 
ATOM     19  C   UNL     1     -16.120   3.155  27.134  0.00  0.00    +0.304 C 
ATOM     28  H   UNL     1     -14.823   4.078  25.783  0.00  0.00    +0.150 HD
ATOM     29  H   UNL     1     -14.264   3.827  27.740  0.00  0.00    +0.156 HD
BRANCH   7  20
ATOM     20  C   UNL     1     -15.114   3.028  29.447  0.00  0.00    +0.035 A 
ATOM     21  C   UNL     1     -14.853   1.715  29.839  0.00  0.00    +0.023 A 
ATOM     22  C   UNL     1     -15.379   4.003  30.409  0.00  0.00    +0.023 A 
ATOM     23  C   UNL     1     -14.858   1.376  31.193  0.00  0.00    +0.002 A 
ATOM     24  C   UNL     1     -15.385   3.664  31.762  0.00  0.00    +0.002 A 
ATOM     25  C   UNL     1     -15.124   2.352  32.154  0.00  0.00    +0.000 A 
ENDBRANCH   7  20
ENDBRANCH  17   6
ENDBRANCH  11  17
TORSDOF 6
ENDMDL
MODEL 3
REMARK VINA RESULT:      -6.9     28.319     30.732
REMARK  Name = 75536841
REMARK  7 active torsions:
REMARK  status: ('A' for Active; 'I' for Inactive)
REMARK    1  A    between atoms: O_2  and  C_10
REMARK    2  A    between atoms: N_4  and  C_8
REMARK    3  A    between atoms: N_4  and  C_9
REMARK    4  A    between atoms: N_5  and  C_18
REMARK    5  A    between atoms: N_6  and  C_17
REMARK    6  A    between atoms: N_7  and  C_20
REMARK    7  A    between atoms: C_11  and  C_17
REMARK                            x       y       z     vdW  Elec       q    Type
REMARK                         _______ _______ _______ _____ _____    ______ ____
ROOT
ATOM      1  O   UNL     1     -12.501  -8.095  15.081  0.00  0.00    -0.371 OA
ATOM      8  C   UNL     1     -11.804  -6.007  14.189  0.00  0.00    +0.111 C 
ATOM     10  C   UNL     1     -11.115  -6.230  15.522  0.00  0.00    +0.164 C 
ATOM     11  C   UNL     1     -11.236  -7.741  15.666  0.00  0.00    +0.165 C 
ATOM     14  C   UNL     1     -12.958  -6.993  14.278  0.00  0.00    +0.181 C 
ENDROOT
BRANCH  10   2
ATOM      2  O   UNL     1      -9.764  -5.809  15.516  0.00  0.00    -0.388 OA
ATOM     27  H   UNL     1      -9.259  -6.390  16.110  0.00  0.00    +0.210 HD
ENDBRANCH  10   2
BRANCH   8   4
ATOM      4  N   UNL     1     -12.244  -4.637  13.982  0.00  0.00    -0.306 NA
ATOM     26  H   UNL     1     -11.439  -4.015  13.918  0.00  0.00    +0.123 HD
BRANCH   4   9
ATOM      5  N   UNL     1     -14.337  -2.864  10.735  0.00  0.00    -0.305 NA
ATOM      9  C   UNL     1     -13.053  -4.530  12.770  0.00  0.00    +0.056 C 
ATOM     12  C   UNL     1     -12.258  -3.837  11.661  0.00  0.00    +0.034 C 
ATOM     13  C   UNL     1     -14.349  -3.760  13.042  0.00  0.00    +0.034 C 
ATOM     15  C   UNL     1     -13.122  -3.626  10.415  0.00  0.00    +0.085 C 
ATOM     16  C   UNL     1     -15.145  -3.552  11.751  0.00  0.00    +0.085 C 
ATOM     18  C   UNL     1     -15.126  -2.628   9.526  0.00  0.00    +0.104 C 
ENDBRANCH   4   9
ENDBRANCH   8   4
BRANCH  11  17
ATOM     17  C   UNL     1     -11.189  -8.213  17.109  0.00  0.00    +0.140 C 
BRANCH  17   6
ATOM      3  O   UNL     1      -9.411 -10.457  17.019  0.00  0.00    -0.253 OA
ATOM      6  N   UNL     1      -9.842  -8.259  17.598  0.00  0.00    -0.297 N 
ATOM      7  N   UNL     1      -7.770  -9.150  18.073  0.00  0.00    -0.269 N 
ATOM     19  C   UNL     1      -9.028  -9.400  17.518  0.00  0.00    +0.304 C 
ATOM     28  H   UNL     1      -9.462  -7.425  18.035  0.00  0.00    +0.150 HD
ATOM     29  H   UNL     1      -7.615  -8.216  18.446  0.00  0.00    +0.156 HD
BRANCH   7  20
ATOM     20  C   UNL     1      -6.677 -10.039  18.183  0.00  0.00    +0.035 A 
ATOM     21  C   UNL     1      -5.859 -10.278  17.079  0.00  0.00    +0.023 A 
ATOM     22  C   UNL     1      -6.415 -10.677  19.396  0.00  0.00    +0.023 A 
ATOM     23  C   UNL     1      -4.780 -11.156  17.186  0.00  0.00    +0.002 A 
ATOM     24  C   UNL     1      -5.337 -11.556  19.503  0.00  0.00    +0.002 A 
ATOM     25  C   UNL     1      -4.519 -11.795  18.398  0.00  0.00    +0.000 A 
ENDBRANCH   7  20
ENDBRANCH  17   6
ENDBRANCH  11  17
TORSDOF 6
ENDMDL
MODEL 4
REMARK VINA RESULT:      -6.7      5.478      7.974
REMARK  Name = 75536841
REMARK  7 active torsions:
REMARK  status: ('A' for Active; 'I' for Inactive)
REMARK    1  A    between atoms: O_2  and  C_10
REMARK    2  A    between atoms: N_4  and  C_8
REMARK    3  A    between atoms: N_4  and  C_9
REMARK    4  A    between atoms: N_5  and  C_18
REMARK    5  A    between atoms: N_6  and  C_17
REMARK    6  A    between atoms: N_7  and  C_20
REMARK    7  A    between atoms: C_11  and  C_17
REMARK                            x       y       z     vdW  Elec       q    Type
REMARK                         _______ _______ _______ _____ _____    ______ ____
ROOT
ATOM      1  O   UNL     1      18.729   7.164  21.906  0.00  0.00    -0.371 OA
ATOM      8  C   UNL     1      19.955   5.974  20.256  0.00  0.00    +0.111 C 
ATOM     10  C   UNL     1      18.474   5.709  20.059  0.00  0.00    +0.164 C 
ATOM     11  C   UNL     1      17.864   6.898  20.789  0.00  0.00    +0.165 C 
ATOM     14  C   UNL     1      19.981   6.490  21.686  0.00  0.00    +0.181 C 
ENDROOT
BRANCH  10   2
ATOM      2  O   UNL     1      18.102   5.681  18.694  0.00  0.00    -0.388 OA
ATOM     27  H   UNL     1      18.910   5.736  18.155  0.00  0.00    +0.210 HD
ENDBRANCH  10   2
BRANCH   8   4
ATOM      4  N   UNL     1      20.789   4.798  20.064  0.00  0.00    -0.306 NA
ATOM     26  H   UNL     1      21.217   4.818  19.139  0.00  0.00    +0.123 HD
BRANCH   4   9
ATOM      5  N   UNL     1      24.308   3.536  22.086  0.00  0.00    -0.305 NA
ATOM      9  C   UNL     1      21.825   4.724  21.091  0.00  0.00    +0.056 C 
ATOM     12  C   UNL     1      23.191   5.066  20.492  0.00  0.00    +0.034 C 
ATOM     13  C   UNL     1      21.868   3.331  21.727  0.00  0.00    +0.034 C 
ATOM     15  C   UNL     1      24.304   4.896  21.530  0.00  0.00    +0.085 C 
ATOM     16  C   UNL     1      23.024   3.218  22.725  0.00  0.00    +0.085 C 
ATOM     18  C   UNL     1      25.407   3.376  23.038  0.00  0.00    +0.104 C 
ENDBRANCH   4   9
ENDBRANCH   8   4
BRANCH  11  17
ATOM     17  C   UNL     1      16.452   6.637  21.285  0.00  0.00    +0.140 C 
BRANCH  17   6
ATOM      3  O   UNL     1      15.152   6.509  18.736  0.00  0.00    -0.253 OA
ATOM      6  N   UNL     1      15.526   7.591  20.746  0.00  0.00    -0.297 N 
ATOM      7  N   UNL     1      14.073   8.535  19.228  0.00  0.00    -0.269 N 
ATOM     19  C   UNL     1      14.927   7.459  19.483  0.00  0.00    +0.304 C 
ATOM     28  H   UNL     1      15.302   8.409  21.304  0.00  0.00    +0.150 HD
ATOM     29  H   UNL     1      14.000   9.241  19.957  0.00  0.00    +0.156 HD
BRANCH   7  20
ATOM     20  C   UNL     1      13.291   8.767  18.073  0.00  0.00    +0.035 A 
ATOM     21  C   UNL     1      13.868   9.352  16.946  0.00  0.00    +0.023 A 
ATOM     22  C   UNL     1      11.942   8.411  18.060  0.00  0.00    +0.023 A 
ATOM     23  C   UNL     1      13.097   9.582  15.806  0.00  0.00    +0.002 A 
ATOM     24  C   UNL     1      11.171   8.641  16.921  0.00  0.00    +0.002 A 
ATOM     25  C   UNL     1      11.748   9.226  15.794  0.00  0.00    +0.000 A 
ENDBRANCH   7  20
ENDBRANCH  17   6
ENDBRANCH  11  17
TORSDOF 6
ENDMDL
MODEL 5
REMARK VINA RESULT:      -6.6     27.031     29.160
REMARK  Name = 75536841
REMARK  7 active torsions:
REMARK  status: ('A' for Active; 'I' for Inactive)
REMARK    1  A    between atoms: O_2  and  C_10
REMARK    2  A    between atoms: N_4  and  C_8
REMARK    3  A    between atoms: N_4  and  C_9
REMARK    4  A    between atoms: N_5  and  C_18
REMARK    5  A    between atoms: N_6  and  C_17
REMARK    6  A    between atoms: N_7  and  C_20
REMARK    7  A    between atoms: C_11  and  C_17
REMARK                            x       y       z     vdW  Elec       q    Type
REMARK                         _______ _______ _______ _____ _____    ______ ____
ROOT
ATOM      1  O   UNL     1      -6.901 -13.088  18.450  0.00  0.00    -0.371 OA
ATOM      8  C   UNL     1      -5.377 -11.271  18.325  0.00  0.00    +0.111 C 
ATOM     10  C   UNL     1      -6.629 -10.817  19.052  0.00  0.00    +0.164 C 
ATOM     11  C   UNL     1      -7.211 -12.153  19.497  0.00  0.00    +0.165 C 
ATOM     14  C   UNL     1      -5.876 -12.520  17.616  0.00  0.00    +0.181 C 
ENDROOT
BRANCH  10   2
ATOM      2  O   UNL     1      -6.347  -9.973  20.151  0.00  0.00    -0.388 OA
ATOM     27  H   UNL     1      -5.399  -9.753  20.133  0.00  0.00    +0.210 HD
ENDBRANCH  10   2
BRANCH   8   4
ATOM      4  N   UNL     1      -4.840 -10.277  17.410  0.00  0.00    -0.306 NA
ATOM     26  H   UNL     1      -4.149  -9.698  17.885  0.00  0.00    +0.123 HD
BRANCH   4   9
ATOM      5  N   UNL     1      -2.682 -10.706  13.774  0.00  0.00    -0.305 NA
ATOM      9  C   UNL     1      -4.237 -10.918  16.244  0.00  0.00    +0.056 C 
ATOM     12  C   UNL     1      -2.721 -10.708  16.249  0.00  0.00    +0.034 C 
ATOM     13  C   UNL     1      -4.836 -10.368  14.945  0.00  0.00    +0.034 C 
ATOM     15  C   UNL     1      -2.083 -11.287  14.983  0.00  0.00    +0.085 C 
ATOM     16  C   UNL     1      -4.128 -10.958  13.723  0.00  0.00    +0.085 C 
ATOM     18  C   UNL     1      -2.027 -11.230  12.576  0.00  0.00    +0.104 C 
ENDBRANCH   4   9
ENDBRANCH   8   4
BRANCH  11  17
ATOM     17  C   UNL     1      -8.712 -12.109  19.719  0.00  0.00    +0.140 C 
BRANCH  17   6
ATOM      3  O   UNL     1      -9.934 -11.146  17.314  0.00  0.00    -0.253 OA
ATOM      6  N   UNL     1      -9.235 -10.794  19.491  0.00  0.00    -0.297 N 
ATOM      7  N   UNL     1     -10.241  -9.062  18.350  0.00  0.00    -0.269 N 
ATOM     19  C   UNL     1      -9.823 -10.394  18.280  0.00  0.00    +0.304 C 
ATOM     28  H   UNL     1      -9.166 -10.114  20.241  0.00  0.00    +0.150 HD
ATOM     29  H   UNL     1     -10.072  -8.578  19.229  0.00  0.00    +0.156 HD
BRANCH   7  20
ATOM     20  C   UNL     1     -10.873  -8.296  17.344  0.00  0.00    +0.035 A 
ATOM     21  C   UNL     1     -10.145  -7.343  16.632  0.00  0.00    +0.023 A 
ATOM     22  C   UNL     1     -12.225  -8.495  17.062  0.00  0.00    +0.023 A 
ATOM     23  C   UNL     1     -10.768  -6.587  15.639  0.00  0.00    +0.002 A 
ATOM     24  C   UNL     1     -12.848  -7.739  16.069  0.00  0.00    +0.002 A 
ATOM     25  C   UNL     1     -12.120  -6.785  15.358  0.00  0.00    +0.000 A 
ENDBRANCH   7  20
ENDBRANCH  17   6
ENDBRANCH  11  17
TORSDOF 6
ENDMDL
MODEL 6
REMARK VINA RESULT:      -6.4     28.134     29.845
REMARK  Name = 75536841
REMARK  7 active torsions:
REMARK  status: ('A' for Active; 'I' for Inactive)
REMARK    1  A    between atoms: O_2  and  C_10
REMARK    2  A    between atoms: N_4  and  C_8
REMARK    3  A    between atoms: N_4  and  C_9
REMARK    4  A    between atoms: N_5  and  C_18
REMARK    5  A    between atoms: N_6  and  C_17
REMARK    6  A    between atoms: N_7  and  C_20
REMARK    7  A    between atoms: C_11  and  C_17
REMARK                            x       y       z     vdW  Elec       q    Type
REMARK                         _______ _______ _______ _____ _____    ______ ____
ROOT
ATOM      1  O   UNL     1     -10.623  -8.773  15.075  0.00  0.00    -0.371 OA
ATOM      8  C   UNL     1      -8.745  -9.393  16.392  0.00  0.00    +0.111 C 
ATOM     10  C   UNL     1      -9.724  -8.621  17.258  0.00  0.00    +0.164 C 
ATOM     11  C   UNL     1     -11.011  -8.780  16.460  0.00  0.00    +0.165 C 
ATOM     14  C   UNL     1      -9.205  -9.001  14.996  0.00  0.00    +0.181 C 
ENDROOT
BRANCH  10   2
ATOM      2  O   UNL     1      -9.841  -9.159  18.561  0.00  0.00    -0.388 OA
ATOM     27  H   UNL     1     -10.030 -10.110  18.483  0.00  0.00    +0.210 HD
ENDBRANCH  10   2
BRANCH   8   4
ATOM      4  N   UNL     1      -7.353  -9.057  16.643  0.00  0.00    -0.306 NA
ATOM     26  H   UNL     1      -7.292  -8.277  17.297  0.00  0.00    +0.123 HD
BRANCH   4   9
ATOM      5  N   UNL     1      -4.452 -11.286  18.808  0.00  0.00    -0.305 NA
ATOM      9  C   UNL     1      -6.630 -10.210  17.175  0.00  0.00    +0.056 C 
ATOM     12  C   UNL     1      -6.678 -10.207  18.705  0.00  0.00    +0.034 C 
ATOM     13  C   UNL     1      -5.174 -10.211  16.698  0.00  0.00    +0.034 C 
ATOM     15  C   UNL     1      -5.841 -11.352  19.283  0.00  0.00    +0.085 C 
ATOM     16  C   UNL     1      -4.387 -11.356  17.342  0.00  0.00    +0.085 C 
ATOM     18  C   UNL     1      -3.656 -12.355  19.408  0.00  0.00    +0.104 C 
ENDBRANCH   4   9
ENDBRANCH   8   4
BRANCH  11  17
ATOM     17  C   UNL     1     -12.018  -7.673  16.716  0.00  0.00    +0.140 C 
BRANCH  17   6
ATOM      3  O   UNL     1     -13.745  -6.812  14.599  0.00  0.00    -0.253 OA
ATOM      6  N   UNL     1     -11.805  -6.561  15.836  0.00  0.00    -0.297 N 
ATOM      7  N   UNL     1     -12.233  -5.079  14.123  0.00  0.00    -0.269 N 
ATOM     19  C   UNL     1     -12.702  -6.199  14.817  0.00  0.00    +0.304 C 
ATOM     28  H   UNL     1     -10.957  -6.016  15.949  0.00  0.00    +0.150 HD
ATOM     29  H   UNL     1     -11.345  -4.691  14.433  0.00  0.00    +0.156 HD
BRANCH   7  20
ATOM     20  C   UNL     1     -12.845  -4.413  13.037  0.00  0.00    +0.035 A 
ATOM     21  C   UNL     1     -12.168  -4.291  11.824  0.00  0.00    +0.023 A 
ATOM     22  C   UNL     1     -14.126  -3.879  13.177  0.00  0.00    +0.023 A 
ATOM     23  C   UNL     1     -12.771  -3.634  10.750  0.00  0.00    +0.002 A 
ATOM     24  C   UNL     1     -14.728  -3.222  12.104  0.00  0.00    +0.002 A 
ATOM     25  C   UNL     1     -14.051  -3.100  10.891  0.00  0.00    +0.000 A 
ENDBRANCH   7  20
ENDBRANCH  17   6
ENDBRANCH  11  17
TORSDOF 6
ENDMDL
MODEL 7
REMARK VINA RESULT:      -6.3     34.103     36.540
REMARK  Name = 75536841
REMARK  7 active torsions:
REMARK  status: ('A' for Active; 'I' for Inactive)
REMARK    1  A    between atoms: O_2  and  C_10
REMARK    2  A    between atoms: N_4  and  C_8
REMARK    3  A    between atoms: N_4  and  C_9
REMARK    4  A    between atoms: N_5  and  C_18
REMARK    5  A    between atoms: N_6  and  C_17
REMARK    6  A    between atoms: N_7  and  C_20
REMARK    7  A    between atoms: C_11  and  C_17
REMARK                            x       y       z     vdW  Elec       q    Type
REMARK                         _______ _______ _______ _____ _____    ______ ____
ROOT
ATOM      1  O   UNL     1      -2.315 -15.732  -0.876  0.00  0.00    -0.371 OA
ATOM      8  C   UNL     1      -1.272 -14.141   0.547  0.00  0.00    +0.111 C 
ATOM     10  C   UNL     1      -1.918 -13.415  -0.618  0.00  0.00    +0.164 C 
ATOM     11  C   UNL     1      -2.933 -14.451  -1.084  0.00  0.00    +0.165 C 
ATOM     14  C   UNL     1      -1.194 -15.562   0.010  0.00  0.00    +0.181 C 
ENDROOT
BRANCH  10   2
ATOM      2  O   UNL     1      -2.541 -12.206  -0.229  0.00  0.00    -0.388 OA
ATOM     27  H   UNL     1      -1.883 -11.657   0.232  0.00  0.00    +0.210 HD
ENDBRANCH  10   2
BRANCH   8   4
ATOM      4  N   UNL     1       0.027 -13.606   0.920  0.00  0.00    -0.306 NA
ATOM     26  H   UNL     1       0.076 -13.474   1.930  0.00  0.00    +0.123 HD
BRANCH   4   9
ATOM      5  N   UNL     1       3.946 -14.954  -0.024  0.00  0.00    -0.305 NA
ATOM      9  C   UNL     1       1.101 -14.495   0.481  0.00  0.00    +0.056 C 
ATOM     12  C   UNL     1       2.106 -14.712   1.614  0.00  0.00    +0.034 C 
ATOM     13  C   UNL     1       1.814 -13.927  -0.749  0.00  0.00    +0.034 C 
ATOM     15  C   UNL     1       3.290 -15.561   1.142  0.00  0.00    +0.085 C 
ATOM     16  C   UNL     1       3.008 -14.801  -1.143  0.00  0.00    +0.085 C 
ATOM     18  C   UNL     1       5.104 -15.749  -0.430  0.00  0.00    +0.104 C 
ENDBRANCH   4   9
ENDBRANCH   8   4
BRANCH  11  17
ATOM     17  C   UNL     1      -3.319 -14.299  -2.544  0.00  0.00    +0.140 C 
BRANCH  17   6
ATOM      3  O   UNL     1      -1.195 -14.676  -4.429  0.00  0.00    -0.253 OA
ATOM      6  N   UNL     1      -2.548 -13.272  -3.183  0.00  0.00    -0.297 N 
ATOM      7  N   UNL     1      -0.948 -12.344  -4.558  0.00  0.00    -0.269 N 
ATOM     19  C   UNL     1      -1.519 -13.536  -4.101  0.00  0.00    +0.304 C 
ATOM     28  H   UNL     1      -2.751 -12.305  -2.951  0.00  0.00    +0.150 HD
ATOM     29  H   UNL     1      -1.335 -11.481  -4.184  0.00  0.00    +0.156 HD
BRANCH   7  20
ATOM     20  C   UNL     1       0.110 -12.187  -5.483  0.00  0.00    +0.035 A 
ATOM     21  C   UNL     1      -0.045 -12.624  -6.799  0.00  0.00    +0.023 A 
ATOM     22  C   UNL     1       1.307 -11.595  -5.081  0.00  0.00    +0.023 A 
ATOM     23  C   UNL     1       0.998 -12.470  -7.713  0.00  0.00    +0.002 A 
ATOM     24  C   UNL     1       2.350 -11.442  -5.995  0.00  0.00    +0.002 A 
ATOM     25  C   UNL     1       2.195 -11.879  -7.310  0.00  0.00    +0.000 A 
ENDBRANCH   7  20
ENDBRANCH  17   6
ENDBRANCH  11  17
TORSDOF 6
ENDMDL
MODEL 8
REMARK VINA RESULT:      -6.3     27.485     28.954
REMARK  Name = 75536841
REMARK  7 active torsions:
REMARK  status: ('A' for Active; 'I' for Inactive)
REMARK    1  A    between atoms: O_2  and  C_10
REMARK    2  A    between atoms: N_4  and  C_8
REMARK    3  A    between atoms: N_4  and  C_9
REMARK    4  A    between atoms: N_5  and  C_18
REMARK    5  A    between atoms: N_6  and  C_17
REMARK    6  A    between atoms: N_7  and  C_20
REMARK    7  A    between atoms: C_11  and  C_17
REMARK                            x       y       z     vdW  Elec       q    Type
REMARK                         _______ _______ _______ _____ _____    ______ ____
ROOT
ATOM      1  O   UNL     1      -2.690 -12.953  11.805  0.00  0.00    -0.371 OA
ATOM      8  C   UNL     1      -2.910 -10.625  11.387  0.00  0.00    +0.111 C 
ATOM     10  C   UNL     1      -2.517 -10.832  12.838  0.00  0.00    +0.164 C 
ATOM     11  C   UNL     1      -1.922 -12.233  12.784  0.00  0.00    +0.165 C 
ATOM     14  C   UNL     1      -3.430 -12.005  11.016  0.00  0.00    +0.181 C 
ENDROOT
BRANCH  10   2
ATOM      2  O   UNL     1      -1.577  -9.877  13.291  0.00  0.00    -0.388 OA
ATOM     27  H   UNL     1      -2.032  -9.023  13.392  0.00  0.00    +0.210 HD
ENDBRANCH  10   2
BRANCH   8   4
ATOM      4  N   UNL     1      -3.899  -9.577  11.194  0.00  0.00    -0.306 NA
ATOM     26  H   UNL     1      -3.440  -8.704  10.933  0.00  0.00    +0.123 HD
BRANCH   4   9
ATOM      5  N   UNL     1      -6.881  -9.186   8.192  0.00  0.00    -0.305 NA
ATOM      9  C   UNL     1      -4.866  -9.958  10.168  0.00  0.00    +0.056 C 
ATOM     12  C   UNL     1      -4.493  -9.325   8.826  0.00  0.00    +0.034 C 
ATOM     13  C   UNL     1      -6.284  -9.538  10.568  0.00  0.00    +0.034 C 
ATOM     15  C   UNL     1      -5.550  -9.632   7.761  0.00  0.00    +0.085 C 
ATOM     16  C   UNL     1      -7.281  -9.838   9.446  0.00  0.00    +0.085 C 
ATOM     18  C   UNL     1      -7.869  -9.441   7.144  0.00  0.00    +0.104 C 
ENDBRANCH   4   9
ENDBRANCH   8   4
BRANCH  11  17
ATOM     17  C   UNL     1      -1.976 -12.961  14.115  0.00  0.00    +0.140 C 
BRANCH  17   6
ATOM      3  O   UNL     1      -4.458 -13.082  15.542  0.00  0.00    -0.253 OA
ATOM      6  N   UNL     1      -2.402 -12.087  15.170  0.00  0.00    -0.297 N 
ATOM      7  N   UNL     1      -3.778 -11.223  16.805  0.00  0.00    -0.269 N 
ATOM     19  C   UNL     1      -3.638 -12.210  15.825  0.00  0.00    +0.304 C 
ATOM     28  H   UNL     1      -1.781 -11.335  15.449  0.00  0.00    +0.150 HD
ATOM     29  H   UNL     1      -3.001 -10.575  16.911  0.00  0.00    +0.156 HD
BRANCH   7  20
ATOM     20  C   UNL     1      -4.873 -11.012  17.674  0.00  0.00    +0.035 A 
ATOM     21  C   UNL     1      -4.831 -11.501  18.980  0.00  0.00    +0.023 A 
ATOM     22  C   UNL     1      -5.995 -10.315  17.226  0.00  0.00    +0.023 A 
ATOM     23  C   UNL     1      -5.911 -11.293  19.838  0.00  0.00    +0.002 A 
ATOM     24  C   UNL     1      -7.075 -10.108  18.085  0.00  0.00    +0.002 A 
ATOM     25  C   UNL     1      -7.033 -10.597  19.390  0.00  0.00    +0.000 A 
ENDBRANCH   7  20
ENDBRANCH  17   6
ENDBRANCH  11  17
TORSDOF 6
ENDMDL
MODEL 9
REMARK VINA RESULT:      -6.1     28.026     29.600
REMARK  Name = 75536841
REMARK  7 active torsions:
REMARK  status: ('A' for Active; 'I' for Inactive)
REMARK    1  A    between atoms: O_2  and  C_10
REMARK    2  A    between atoms: N_4  and  C_8
REMARK    3  A    between atoms: N_4  and  C_9
REMARK    4  A    between atoms: N_5  and  C_18
REMARK    5  A    between atoms: N_6  and  C_17
REMARK    6  A    between atoms: N_7  and  C_20
REMARK    7  A    between atoms: C_11  and  C_17
REMARK                            x       y       z     vdW  Elec       q    Type
REMARK                         _______ _______ _______ _____ _____    ______ ____
ROOT
ATOM      1  O   UNL     1     -10.096 -11.133  15.738  0.00  0.00    -0.371 OA
ATOM      8  C   UNL     1      -9.289  -9.457  17.215  0.00  0.00    +0.111 C 
ATOM     10  C   UNL     1      -9.196  -8.946  15.789  0.00  0.00    +0.164 C 
ATOM     11  C   UNL     1     -10.196  -9.856  15.086  0.00  0.00    +0.165 C 
ATOM     14  C   UNL     1      -9.411 -10.956  16.990  0.00  0.00    +0.181 C 
ENDROOT
BRANCH  10   2
ATOM      2  O   UNL     1      -9.553  -7.583  15.673  0.00  0.00    -0.388 OA
ATOM     27  H   UNL     1     -10.494  -7.491  15.905  0.00  0.00    +0.210 HD
ENDBRANCH  10   2
BRANCH   8   4
ATOM      4  N   UNL     1      -8.144  -9.100  18.038  0.00  0.00    -0.306 NA
ATOM     26  H   UNL     1      -8.457  -8.769  18.950  0.00  0.00    +0.123 HD
BRANCH   4   9
ATOM      5  N   UNL     1      -4.638 -11.301  18.996  0.00  0.00    -0.305 NA
ATOM      9  C   UNL     1      -7.247 -10.240  18.201  0.00  0.00    +0.056 C 
ATOM     12  C   UNL     1      -6.837 -10.387  19.669  0.00  0.00    +0.034 C 
ATOM     13  C   UNL     1      -6.000 -10.087  17.324  0.00  0.00    +0.034 C 
ATOM     15  C   UNL     1      -5.818 -11.516  19.844  0.00  0.00    +0.085 C 
ATOM     16  C   UNL     1      -5.009 -11.226  17.577  0.00  0.00    +0.085 C 
ATOM     18  C   UNL     1      -3.653 -12.360  19.213  0.00  0.00    +0.104 C 
ENDBRANCH   4   9
ENDBRANCH   8   4
BRANCH  11  17
ATOM     17  C   UNL     1      -9.922 -10.015  13.601  0.00  0.00    +0.140 C 
BRANCH  17   6
ATOM      3  O   UNL     1      -7.700 -11.079  12.138  0.00  0.00    -0.253 OA
ATOM      6  N   UNL     1      -8.736  -9.310  13.211  0.00  0.00    -0.297 N 
ATOM      7  N   UNL     1      -6.666  -8.974  12.254  0.00  0.00    -0.269 N 
ATOM     19  C   UNL     1      -7.685  -9.901  12.491  0.00  0.00    +0.304 C 
ATOM     28  H   UNL     1      -8.648  -8.335  13.480  0.00  0.00    +0.150 HD
ATOM     29  H   UNL     1      -6.812  -8.035  12.617  0.00  0.00    +0.156 HD
BRANCH   7  20
ATOM     20  C   UNL     1      -5.448  -9.180  11.567  0.00  0.00    +0.035 A 
ATOM     21  C   UNL     1      -4.465  -9.998  12.122  0.00  0.00    +0.023 A 
ATOM     22  C   UNL     1      -5.230  -8.565  10.334  0.00  0.00    +0.023 A 
ATOM     23  C   UNL     1      -3.262 -10.202  11.445  0.00  0.00    +0.002 A 
ATOM     24  C   UNL     1      -4.027  -8.769   9.657  0.00  0.00    +0.002 A 
ATOM     25  C   UNL     1      -3.044  -9.587  10.212  0.00  0.00    +0.000 A 
ENDBRANCH   7  20
ENDBRANCH  17   6
ENDBRANCH  11  17
TORSDOF 6
ENDMDL
MODEL 10
REMARK VINA RESULT:      -6.1     21.656     24.459
REMARK  Name = 75536841
REMARK  7 active torsions:
REMARK  status: ('A' for Active; 'I' for Inactive)
REMARK    1  A    between atoms: O_2  and  C_10
REMARK    2  A    between atoms: N_4  and  C_8
REMARK    3  A    between atoms: N_4  and  C_9
REMARK    4  A    between atoms: N_5  and  C_18
REMARK    5  A    between atoms: N_6  and  C_17
REMARK    6  A    between atoms: N_7  and  C_20
REMARK    7  A    between atoms: C_11  and  C_17
REMARK                            x       y       z     vdW  Elec       q    Type
REMARK                         _______ _______ _______ _____ _____    ______ ____
ROOT
ATOM      1  O   UNL     1      -1.492   9.991  38.413  0.00  0.00    -0.371 OA
ATOM      8  C   UNL     1      -0.745   7.811  37.837  0.00  0.00    +0.111 C 
ATOM     10  C   UNL     1      -2.262   7.841  37.795  0.00  0.00    +0.164 C 
ATOM     11  C   UNL     1      -2.521   9.335  37.653  0.00  0.00    +0.165 C 
ATOM     14  C   UNL     1      -0.443   9.043  38.675  0.00  0.00    +0.181 C 
ENDROOT
BRANCH  10   2
ATOM      2  O   UNL     1      -2.792   7.109  36.708  0.00  0.00    -0.388 OA
ATOM     27  H   UNL     1      -3.046   7.737  36.010  0.00  0.00    +0.210 HD
ENDBRANCH  10   2
BRANCH   8   4
ATOM      4  N   UNL     1      -0.202   6.589  38.410  0.00  0.00    -0.306 NA
ATOM     26  H   UNL     1       0.815   6.587  38.333  0.00  0.00    +0.123 HD
BRANCH   4   9
ATOM      5  N   UNL     1      -0.624   4.884  42.280  0.00  0.00    -0.305 NA
ATOM      9  C   UNL     1      -0.596   6.453  39.810  0.00  0.00    +0.056 C 
ATOM     12  C   UNL     1       0.642   6.305  40.697  0.00  0.00    +0.034 C 
ATOM     13  C   UNL     1      -1.525   5.251  40.004  0.00  0.00    +0.034 C 
ATOM     15  C   UNL     1       0.246   6.061  42.156  0.00  0.00    +0.085 C 
ATOM     16  C   UNL     1      -1.849   5.041  41.485  0.00  0.00    +0.085 C 
ATOM     18  C   UNL     1      -0.952   4.635  43.683  0.00  0.00    +0.104 C 
ENDBRANCH   4   9
ENDBRANCH   8   4
BRANCH  11  17
ATOM     17  C   UNL     1      -3.886   9.759  38.165  0.00  0.00    +0.140 C 
BRANCH  17   6
ATOM      3  O   UNL     1      -6.681  10.386  38.236  0.00  0.00    -0.253 OA
ATOM      6  N   UNL     1      -4.938   9.062  37.484  0.00  0.00    -0.297 N 
ATOM      7  N   UNL     1      -7.084   8.573  36.800  0.00  0.00    -0.269 N 
ATOM     19  C   UNL     1      -6.291   9.431  37.567  0.00  0.00    +0.304 C 
ATOM     28  H   UNL     1      -4.692   8.254  36.922  0.00  0.00    +0.150 HD
ATOM     29  H   UNL     1      -6.600   7.827  36.304  0.00  0.00    +0.156 HD
BRANCH   7  20
ATOM     20  C   UNL     1      -8.487   8.611  36.625  0.00  0.00    +0.035 A 
ATOM     21  C   UNL     1      -9.305   7.763  37.370  0.00  0.00    +0.023 A 
ATOM     22  C   UNL     1      -9.051   9.498  35.708  0.00  0.00    +0.023 A 
ATOM     23  C   UNL     1     -10.690   7.801  37.199  0.00  0.00    +0.002 A 
ATOM     24  C   UNL     1     -10.435   9.535  35.537  0.00  0.00    +0.002 A 
ATOM     25  C   UNL     1     -11.254   8.687  36.282  0.00  0.00    +0.000 A 
ENDBRANCH   7  20
ENDBRANCH  17   6
ENDBRANCH  11  17
TORSDOF 6
ENDMDL
