REMARK  Name = 45783782
REMARK  5 active torsions:
REMARK  status: ('A' for Active; 'I' for Inactive)
REMARK    1  A    between atoms: N_3  and  C_8
REMARK    2  A    between atoms: N_7  and  C_23
REMARK    3  A    between atoms: N_7  and  C_24
REMARK    4  A    between atoms: C_9  and  C_17
REMARK    5  A    between atoms: C_18  and  C_19
REMARK                            x       y       z     vdW  Elec       q    Type
REMARK                         _______ _______ _______ _____ _____    ______ ____
ROOT
ATOM      2  O   UNL     1      -0.456  -1.784   1.784  0.00  0.00    -0.336 OA
ATOM      4  N   UNL     1      -0.029  -0.784  -0.173  0.00  0.00    -0.190 NA
ATOM      5  N   UNL     1       0.909  -1.471   1.796  0.00  0.00    -0.056 NA
ATOM     17  C   UNL     1      -0.932  -1.346   0.590  0.00  0.00    +0.245 A 
ATOM     18  C   UNL     1       1.084  -0.884   0.609  0.00  0.00    +0.204 A 
ENDROOT
BRANCH  18  19
ATOM      6  N   UNL     1       4.708  -0.049   0.630  0.00  0.00    -0.240 NA
ATOM     19  C   UNL     1       2.358  -0.387   0.174  0.00  0.00    +0.041 A 
ATOM     20  C   UNL     1       2.505   0.218  -1.069  0.00  0.00    +0.016 A 
ATOM     21  C   UNL     1       3.480  -0.495   0.979  0.00  0.00    +0.124 A 
ATOM     22  C   UNL     1       3.752   0.689  -1.464  0.00  0.00    +0.044 A 
ATOM     23  C   UNL     1       4.812   0.533  -0.586  0.00  0.00    +0.118 A 
BRANCH  23   7
ATOM      7  N   UNL     1       6.076   1.018  -1.002  0.00  0.00    -0.332 N 
ATOM     24  C   UNL     1       7.245   0.918  -0.191  0.00  0.00    +0.127 C 
ATOM     25  H   UNL     1       6.091   1.646  -1.799  0.00  0.00    +0.147 HD
ENDBRANCH  23   7
ENDBRANCH  18  19
BRANCH  17   9
ATOM      3  N   UNL     1      -2.976  -0.571  -0.600  0.00  0.00    -0.288 NA
ATOM      9  C   UNL     1      -2.407  -1.569   0.328  0.00  0.00    +0.146 C 
ATOM     10  C   UNL     1      -4.075  -1.236  -1.299  0.00  0.00    +0.085 C 
ATOM     11  C   UNL     1      -2.694  -2.928  -0.336  0.00  0.00    +0.030 C 
ATOM     12  C   UNL     1      -3.479  -2.597  -1.597  0.00  0.00    +0.017 C 
BRANCH   3   8
ATOM      1  O   UNL     1      -3.192   3.509   0.367  0.00  0.00    -0.380 OA
ATOM      8  C   UNL     1      -3.410   0.654   0.068  0.00  0.00    +0.062 C 
ATOM     13  C   UNL     1      -4.034   1.634  -0.930  0.00  0.00    +0.047 C 
ATOM     14  C   UNL     1      -2.231   1.316   0.786  0.00  0.00    +0.047 C 
ATOM     15  C   UNL     1      -4.358   2.956  -0.242  0.00  0.00    +0.161 C 
ATOM     16  C   UNL     1      -2.655   2.656   1.378  0.00  0.00    +0.161 C 
ENDBRANCH   3   8
ENDBRANCH  17   9
TORSDOF 4
