MODEL 1
REMARK VINA RESULT:      -6.9      0.000      0.000
REMARK  Name = 75536898
REMARK  4 active torsions:
REMARK  status: ('A' for Active; 'I' for Inactive)
REMARK    1  A    between atoms: O_2  and  C_9
REMARK    2  A    between atoms: O_2  and  C_16
REMARK    3  A    between atoms: C_14  and  C_15
REMARK    4  A    between atoms: C_18  and  C_20
REMARK                            x       y       z     vdW  Elec       q    Type
REMARK                         _______ _______ _______ _____ _____    ______ ____
ROOT
ATOM      1  O   UNL     1      12.923   7.592  21.887  0.00  0.00    -0.375 OA
ATOM      3  O   UNL     1      11.331   7.671  17.331  0.00  0.00    -0.268 OA
ATOM      5  N   UNL     1      13.181   7.549  18.764  0.00  0.00    -0.290 N 
ATOM      9  C   UNL     1      14.953   7.895  20.569  0.00  0.00    +0.218 C 
ATOM     10  C   UNL     1      14.539   7.995  19.097  0.00  0.00    +0.155 C 
ATOM     11  C   UNL     1      12.509   6.623  19.678  0.00  0.00    +0.136 C 
ATOM     12  C   UNL     1      13.939   8.522  21.522  0.00  0.00    +0.206 C 
ATOM     13  C   UNL     1      11.941   7.359  20.884  0.00  0.00    +0.179 C 
ATOM     14  C   UNL     1      12.480   7.994  17.631  0.00  0.00    +0.268 C 
ENDROOT
BRANCH  14  15
ATOM      4  O   UNL     1      14.217   9.592  14.951  0.00  0.00    -0.359 OA
ATOM      6  N   UNL     1      13.662   8.474  15.561  0.00  0.00    -0.073 NA
ATOM     15  C   UNL     1      13.156   8.924  16.712  0.00  0.00    +0.168 A 
ATOM     17  C   UNL     1      13.359  10.304  16.883  0.00  0.00    +0.080 A 
ATOM     18  C   UNL     1      14.030  10.676  15.748  0.00  0.00    +0.135 A 
ATOM     20  C   UNL     1      14.558  11.952  15.252  0.00  0.00    +0.089 C 
ENDBRANCH  14  15
BRANCH   9   2
ATOM      2  O   UNL     1      16.197   8.586  20.694  0.00  0.00    -0.468 OA
BRANCH   2  16
ATOM      7  N   UNL     1      17.355   6.691  20.009  0.00  0.00    -0.219 NA
ATOM      8  N   UNL     1      19.502   7.446  21.650  0.00  0.00    -0.256 NA
ATOM     16  C   UNL     1      17.322   7.813  20.756  0.00  0.00    +0.234 A 
ATOM     19  C   UNL     1      18.376   8.183  21.561  0.00  0.00    +0.177 A 
ATOM     21  C   UNL     1      18.480   5.953  20.097  0.00  0.00    +0.134 A 
ATOM     22  C   UNL     1      19.534   6.324  20.903  0.00  0.00    +0.130 A 
ENDBRANCH   2  16
ENDBRANCH   9   2
TORSDOF 3
ENDMDL
MODEL 2
REMARK VINA RESULT:      -6.3      1.670      5.980
REMARK  Name = 75536898
REMARK  4 active torsions:
REMARK  status: ('A' for Active; 'I' for Inactive)
REMARK    1  A    between atoms: O_2  and  C_9
REMARK    2  A    between atoms: O_2  and  C_16
REMARK    3  A    between atoms: C_14  and  C_15
REMARK    4  A    between atoms: C_18  and  C_20
REMARK                            x       y       z     vdW  Elec       q    Type
REMARK                         _______ _______ _______ _____ _____    ______ ____
ROOT
ATOM      1  O   UNL     1      11.033   8.525  18.430  0.00  0.00    -0.375 OA
ATOM      3  O   UNL     1      14.101   7.504  22.015  0.00  0.00    -0.268 OA
ATOM      5  N   UNL     1      13.799   8.475  19.903  0.00  0.00    -0.290 N 
ATOM      9  C   UNL     1      13.225   9.011  17.474  0.00  0.00    +0.218 C 
ATOM     10  C   UNL     1      14.279   8.655  18.527  0.00  0.00    +0.155 C 
ATOM     11  C   UNL     1      12.528   9.092  20.284  0.00  0.00    +0.136 C 
ATOM     12  C   UNL     1      12.014   8.081  17.497  0.00  0.00    +0.206 C 
ATOM     13  C   UNL     1      11.348   8.265  19.793  0.00  0.00    +0.179 C 
ATOM     14  C   UNL     1      14.482   7.708  20.862  0.00  0.00    +0.268 C 
ENDROOT
BRANCH  14  15
ATOM      4  O   UNL     1      17.131   5.815  19.394  0.00  0.00    -0.359 OA
ATOM      6  N   UNL     1      15.797   6.191  19.490  0.00  0.00    -0.073 NA
ATOM     15  C   UNL     1      15.760   7.087  20.479  0.00  0.00    +0.168 A 
ATOM     17  C   UNL     1      17.028   7.317  21.040  0.00  0.00    +0.080 A 
ATOM     18  C   UNL     1      17.855   6.493  20.322  0.00  0.00    +0.135 A 
ATOM     20  C   UNL     1      19.295   6.216  20.361  0.00  0.00    +0.089 C 
ENDBRANCH  14  15
BRANCH   9   2
ATOM      2  O   UNL     1      13.865   8.910  16.201  0.00  0.00    -0.468 OA
BRANCH   2  16
ATOM      7  N   UNL     1      15.165   9.970  14.592  0.00  0.00    -0.219 NA
ATOM      8  N   UNL     1      14.548  12.442  15.765  0.00  0.00    -0.256 NA
ATOM     16  C   UNL     1      14.370  10.066  15.677  0.00  0.00    +0.234 A 
ATOM     19  C   UNL     1      14.068  11.280  16.253  0.00  0.00    +0.177 A 
ATOM     21  C   UNL     1      15.645  11.131  14.104  0.00  0.00    +0.134 A 
ATOM     22  C   UNL     1      15.342  12.345  14.680  0.00  0.00    +0.130 A 
ENDBRANCH   2  16
ENDBRANCH   9   2
TORSDOF 3
ENDMDL
MODEL 3
REMARK VINA RESULT:      -5.8      3.470      5.932
REMARK  Name = 75536898
REMARK  4 active torsions:
REMARK  status: ('A' for Active; 'I' for Inactive)
REMARK    1  A    between atoms: O_2  and  C_9
REMARK    2  A    between atoms: O_2  and  C_16
REMARK    3  A    between atoms: C_14  and  C_15
REMARK    4  A    between atoms: C_18  and  C_20
REMARK                            x       y       z     vdW  Elec       q    Type
REMARK                         _______ _______ _______ _____ _____    ______ ____
ROOT
ATOM      1  O   UNL     1      11.973   6.316  20.377  0.00  0.00    -0.375 OA
ATOM      3  O   UNL     1      10.787  10.093  23.139  0.00  0.00    -0.268 OA
ATOM      5  N   UNL     1      11.683   9.350  21.105  0.00  0.00    -0.290 N 
ATOM      9  C   UNL     1      13.003   8.212  19.239  0.00  0.00    +0.218 C 
ATOM     10  C   UNL     1      12.731   9.462  20.083  0.00  0.00    +0.155 C 
ATOM     11  C   UNL     1      10.668   8.306  20.951  0.00  0.00    +0.136 C 
ATOM     12  C   UNL     1      13.211   6.954  20.078  0.00  0.00    +0.206 C 
ATOM     13  C   UNL     1      11.205   6.951  21.393  0.00  0.00    +0.179 C 
ATOM     14  C   UNL     1      11.627  10.172  22.243  0.00  0.00    +0.268 C 
ENDROOT
BRANCH  14  15
ATOM      4  O   UNL     1      13.573  13.166  22.209  0.00  0.00    -0.359 OA
ATOM      6  N   UNL     1      12.433  12.438  21.890  0.00  0.00    -0.073 NA
ATOM     15  C   UNL     1      12.646  11.222  22.398  0.00  0.00    +0.168 A 
ATOM     17  C   UNL     1      13.891  11.122  23.044  0.00  0.00    +0.080 A 
ATOM     18  C   UNL     1      14.434  12.372  22.897  0.00  0.00    +0.135 A 
ATOM     20  C   UNL     1      15.699  12.986  23.317  0.00  0.00    +0.089 C 
ENDBRANCH  14  15
BRANCH   9   2
ATOM      2  O   UNL     1      14.190   8.473  18.489  0.00  0.00    -0.468 OA
BRANCH   2  16
ATOM      7  N   UNL     1      14.821  10.401  17.353  0.00  0.00    -0.219 NA
ATOM      8  N   UNL     1      13.014   9.751  15.308  0.00  0.00    -0.256 NA
ATOM     16  C   UNL     1      14.059   9.289  17.401  0.00  0.00    +0.234 A 
ATOM     19  C   UNL     1      13.172   8.970  16.397  0.00  0.00    +0.177 A 
ATOM     21  C   UNL     1      14.664  11.181  16.266  0.00  0.00    +0.134 A 
ATOM     22  C   UNL     1      13.776  10.862  15.262  0.00  0.00    +0.130 A 
ENDBRANCH   2  16
ENDBRANCH   9   2
TORSDOF 3
ENDMDL
MODEL 4
REMARK VINA RESULT:      -5.8     12.809     16.456
REMARK  Name = 75536898
REMARK  4 active torsions:
REMARK  status: ('A' for Active; 'I' for Inactive)
REMARK    1  A    between atoms: O_2  and  C_9
REMARK    2  A    between atoms: O_2  and  C_16
REMARK    3  A    between atoms: C_14  and  C_15
REMARK    4  A    between atoms: C_18  and  C_20
REMARK                            x       y       z     vdW  Elec       q    Type
REMARK                         _______ _______ _______ _____ _____    ______ ____
ROOT
ATOM      1  O   UNL     1       9.651   8.342   2.364  0.00  0.00    -0.375 OA
ATOM      3  O   UNL     1      10.683   9.215   6.998  0.00  0.00    -0.268 OA
ATOM      5  N   UNL     1      10.963   7.793   5.157  0.00  0.00    -0.290 N 
ATOM      9  C   UNL     1      10.678   6.266   3.130  0.00  0.00    +0.218 C 
ATOM     10  C   UNL     1      10.987   6.425   4.622  0.00  0.00    +0.155 C 
ATOM     11  C   UNL     1      11.138   8.908   4.225  0.00  0.00    +0.136 C 
ATOM     12  C   UNL     1       9.399   6.982   2.702  0.00  0.00    +0.206 C 
ATOM     13  C   UNL     1       9.845   9.206   3.478  0.00  0.00    +0.179 C 
ATOM     14  C   UNL     1      10.742   8.085   6.513  0.00  0.00    +0.268 C 
ENDROOT
BRANCH  14  15
ATOM      4  O   UNL     1      11.107   5.268   8.678  0.00  0.00    -0.359 OA
ATOM      6  N   UNL     1      11.617   6.217   7.800  0.00  0.00    -0.073 NA
ATOM     15  C   UNL     1      10.567   6.964   7.450  0.00  0.00    +0.168 A 
ATOM     17  C   UNL     1       9.378   6.539   8.069  0.00  0.00    +0.080 A 
ATOM     18  C   UNL     1       9.772   5.470   8.830  0.00  0.00    +0.135 A 
ATOM     20  C   UNL     1       9.068   4.551   9.730  0.00  0.00    +0.089 C 
ENDBRANCH  14  15
BRANCH   9   2
ATOM      2  O   UNL     1      10.531   4.866   2.888  0.00  0.00    -0.468 OA
BRANCH   2  16
ATOM      7  N   UNL     1      10.660   4.524   0.593  0.00  0.00    -0.219 NA
ATOM      8  N   UNL     1      13.097   3.182   0.960  0.00  0.00    -0.256 NA
ATOM     16  C   UNL     1      11.206   4.357   1.814  0.00  0.00    +0.234 A 
ATOM     19  C   UNL     1      12.402   3.698   1.994  0.00  0.00    +0.177 A 
ATOM     21  C   UNL     1      11.354   4.008  -0.441  0.00  0.00    +0.134 A 
ATOM     22  C   UNL     1      12.550   3.349  -0.261  0.00  0.00    +0.130 A 
ENDBRANCH   2  16
ENDBRANCH   9   2
TORSDOF 3
ENDMDL
MODEL 5
REMARK VINA RESULT:      -5.7     26.656     29.170
REMARK  Name = 75536898
REMARK  4 active torsions:
REMARK  status: ('A' for Active; 'I' for Inactive)
REMARK    1  A    between atoms: O_2  and  C_9
REMARK    2  A    between atoms: O_2  and  C_16
REMARK    3  A    between atoms: C_14  and  C_15
REMARK    4  A    between atoms: C_18  and  C_20
REMARK                            x       y       z     vdW  Elec       q    Type
REMARK                         _______ _______ _______ _____ _____    ______ ____
ROOT
ATOM      1  O   UNL     1      -8.643 -11.493  19.122  0.00  0.00    -0.375 OA
ATOM      3  O   UNL     1      -3.831 -11.856  18.997  0.00  0.00    -0.268 OA
ATOM      5  N   UNL     1      -5.739 -10.746  18.210  0.00  0.00    -0.290 N 
ATOM      9  C   UNL     1      -8.004 -10.086  17.235  0.00  0.00    +0.218 C 
ATOM     10  C   UNL     1      -6.484 -10.187  17.075  0.00  0.00    +0.155 C 
ATOM     11  C   UNL     1      -6.360 -10.712  19.535  0.00  0.00    +0.136 C 
ATOM     12  C   UNL     1      -8.647 -11.389  17.702  0.00  0.00    +0.206 C 
ATOM     13  C   UNL     1      -7.382 -11.830  19.691  0.00  0.00    +0.179 C 
ATOM     14  C   UNL     1      -4.476 -11.347  18.080  0.00  0.00    +0.268 C 
ENDROOT
BRANCH  14  15
ATOM      4  O   UNL     1      -3.368 -12.117  14.774  0.00  0.00    -0.359 OA
ATOM      6  N   UNL     1      -4.105 -12.396  15.918  0.00  0.00    -0.073 NA
ATOM     15  C   UNL     1      -3.851 -11.381  16.748  0.00  0.00    +0.168 A 
ATOM     17  C   UNL     1      -2.971 -10.439  16.188  0.00  0.00    +0.080 A 
ATOM     18  C   UNL     1      -2.698 -10.949  14.946  0.00  0.00    +0.135 A 
ATOM     20  C   UNL     1      -1.864 -10.500  13.825  0.00  0.00    +0.089 C 
ENDBRANCH  14  15
BRANCH   9   2
ATOM      2  O   UNL     1      -8.530  -9.741  15.952  0.00  0.00    -0.468 OA
BRANCH   2  16
ATOM      7  N   UNL     1     -10.272  -8.707  14.811  0.00  0.00    -0.219 NA
ATOM      8  N   UNL     1     -10.728  -7.075  17.046  0.00  0.00    -0.256 NA
ATOM     16  C   UNL     1      -9.529  -8.808  15.932  0.00  0.00    +0.234 A 
ATOM     19  C   UNL     1      -9.753  -8.007  17.029  0.00  0.00    +0.177 A 
ATOM     21  C   UNL     1     -11.246  -7.777  14.827  0.00  0.00    +0.134 A 
ATOM     22  C   UNL     1     -11.470  -6.975  15.925  0.00  0.00    +0.130 A 
ENDBRANCH   2  16
ENDBRANCH   9   2
TORSDOF 3
ENDMDL
MODEL 6
REMARK VINA RESULT:      -5.5      3.543      6.697
REMARK  Name = 75536898
REMARK  4 active torsions:
REMARK  status: ('A' for Active; 'I' for Inactive)
REMARK    1  A    between atoms: O_2  and  C_9
REMARK    2  A    between atoms: O_2  and  C_16
REMARK    3  A    between atoms: C_14  and  C_15
REMARK    4  A    between atoms: C_18  and  C_20
REMARK                            x       y       z     vdW  Elec       q    Type
REMARK                         _______ _______ _______ _____ _____    ______ ____
ROOT
ATOM      1  O   UNL     1      15.888  12.600  15.991  0.00  0.00    -0.375 OA
ATOM      3  O   UNL     1      13.608   8.417  15.208  0.00  0.00    -0.268 OA
ATOM      5  N   UNL     1      13.691  10.410  16.438  0.00  0.00    -0.290 N 
ATOM      9  C   UNL     1      14.341  12.422  17.869  0.00  0.00    +0.218 C 
ATOM     10  C   UNL     1      13.608  11.083  17.740  0.00  0.00    +0.155 C 
ATOM     11  C   UNL     1      14.007  11.216  15.257  0.00  0.00    +0.136 C 
ATOM     12  C   UNL     1      15.790  12.362  17.392  0.00  0.00    +0.206 C 
ATOM     13  C   UNL     1      15.500  11.502  15.173  0.00  0.00    +0.179 C 
ATOM     14  C   UNL     1      13.517   9.026  16.274  0.00  0.00    +0.268 C 
ENDROOT
BRANCH  14  15
ATOM      4  O   UNL     1      12.093   6.858  18.729  0.00  0.00    -0.359 OA
ATOM      6  N   UNL     1      12.083   7.482  17.488  0.00  0.00    -0.073 NA
ATOM     15  C   UNL     1      13.199   8.216  17.461  0.00  0.00    +0.168 A 
ATOM     17  C   UNL     1      13.946   8.096  18.645  0.00  0.00    +0.080 A 
ATOM     18  C   UNL     1      13.208   7.231  19.409  0.00  0.00    +0.135 A 
ATOM     20  C   UNL     1      13.380   6.660  20.750  0.00  0.00    +0.089 C 
ENDBRANCH  14  15
BRANCH   9   2
ATOM      2  O   UNL     1      14.321  12.770  19.254  0.00  0.00    -0.468 OA
BRANCH   2  16
ATOM      7  N   UNL     1      12.541  12.706  20.748  0.00  0.00    -0.219 NA
ATOM      8  N   UNL     1      11.538  15.065  19.608  0.00  0.00    -0.256 NA
ATOM     16  C   UNL     1      13.167  13.328  19.728  0.00  0.00    +0.234 A 
ATOM     19  C   UNL     1      12.674  14.485  19.168  0.00  0.00    +0.177 A 
ATOM     21  C   UNL     1      11.406  13.284  21.188  0.00  0.00    +0.134 A 
ATOM     22  C   UNL     1      10.913  14.443  20.627  0.00  0.00    +0.130 A 
ENDBRANCH   2  16
ENDBRANCH   9   2
TORSDOF 3
ENDMDL
MODEL 7
REMARK VINA RESULT:      -5.5      2.594      4.537
REMARK  Name = 75536898
REMARK  4 active torsions:
REMARK  status: ('A' for Active; 'I' for Inactive)
REMARK    1  A    between atoms: O_2  and  C_9
REMARK    2  A    between atoms: O_2  and  C_16
REMARK    3  A    between atoms: C_14  and  C_15
REMARK    4  A    between atoms: C_18  and  C_20
REMARK                            x       y       z     vdW  Elec       q    Type
REMARK                         _______ _______ _______ _____ _____    ______ ____
ROOT
ATOM      1  O   UNL     1      15.693   6.786  18.883  0.00  0.00    -0.375 OA
ATOM      3  O   UNL     1      11.208   8.557  19.120  0.00  0.00    -0.268 OA
ATOM      5  N   UNL     1      13.468   8.848  19.669  0.00  0.00    -0.290 N 
ATOM      9  C   UNL     1      15.877   8.619  20.482  0.00  0.00    +0.218 C 
ATOM     10  C   UNL     1      14.477   9.210  20.673  0.00  0.00    +0.155 C 
ATOM     11  C   UNL     1      13.925   8.395  18.355  0.00  0.00    +0.136 C 
ATOM     12  C   UNL     1      15.867   7.109  20.259  0.00  0.00    +0.206 C 
ATOM     13  C   UNL     1      14.363   6.937  18.399  0.00  0.00    +0.179 C 
ATOM     14  C   UNL     1      12.086   8.881  19.920  0.00  0.00    +0.268 C 
ENDROOT
BRANCH  14  15
ATOM      4  O   UNL     1      10.879   9.203  23.266  0.00  0.00    -0.359 OA
ATOM      6  N   UNL     1      11.245   8.445  22.160  0.00  0.00    -0.073 NA
ATOM     15  C   UNL     1      11.627   9.337  21.241  0.00  0.00    +0.168 A 
ATOM     17  C   UNL     1      11.525  10.660  21.706  0.00  0.00    +0.080 A 
ATOM     18  C   UNL     1      11.050  10.520  22.984  0.00  0.00    +0.135 A 
ATOM     20  C   UNL     1      10.709  11.469  24.050  0.00  0.00    +0.089 C 
ENDBRANCH  14  15
BRANCH   9   2
ATOM      2  O   UNL     1      16.611   8.908  21.673  0.00  0.00    -0.468 OA
BRANCH   2  16
ATOM      7  N   UNL     1      18.851   8.362  21.967  0.00  0.00    -0.219 NA
ATOM      8  N   UNL     1      19.571  10.779  20.740  0.00  0.00    -0.256 NA
ATOM     16  C   UNL     1      17.929   9.235  21.515  0.00  0.00    +0.234 A 
ATOM     19  C   UNL     1      18.282  10.422  20.913  0.00  0.00    +0.177 A 
ATOM     21  C   UNL     1      20.139   8.718  21.795  0.00  0.00    +0.134 A 
ATOM     22  C   UNL     1      20.493   9.906  21.192  0.00  0.00    +0.130 A 
ENDBRANCH   2  16
ENDBRANCH   9   2
TORSDOF 3
ENDMDL
MODEL 8
REMARK VINA RESULT:      -5.5     27.616     30.529
REMARK  Name = 75536898
REMARK  4 active torsions:
REMARK  status: ('A' for Active; 'I' for Inactive)
REMARK    1  A    between atoms: O_2  and  C_9
REMARK    2  A    between atoms: O_2  and  C_16
REMARK    3  A    between atoms: C_14  and  C_15
REMARK    4  A    between atoms: C_18  and  C_20
REMARK                            x       y       z     vdW  Elec       q    Type
REMARK                         _______ _______ _______ _____ _____    ______ ____
ROOT
ATOM      1  O   UNL     1     -11.630 -11.166  18.297  0.00  0.00    -0.375 OA
ATOM      3  O   UNL     1      -7.334 -12.210  20.238  0.00  0.00    -0.268 OA
ATOM      5  N   UNL     1      -8.563 -10.796  18.830  0.00  0.00    -0.290 N 
ATOM      9  C   UNL     1     -10.072  -9.763  17.049  0.00  0.00    +0.218 C 
ATOM     10  C   UNL     1      -8.661 -10.073  17.556  0.00  0.00    +0.155 C 
ATOM     11  C   UNL     1      -9.703 -10.746  19.748  0.00  0.00    +0.136 C 
ATOM     12  C   UNL     1     -10.989 -10.984  17.038  0.00  0.00    +0.206 C 
ATOM     13  C   UNL     1     -10.798 -11.712  19.315  0.00  0.00    +0.179 C 
ATOM     14  C   UNL     1      -7.445 -11.564  19.196  0.00  0.00    +0.268 C 
ENDROOT
BRANCH  14  15
ATOM      4  O   UNL     1      -5.035 -12.340  16.678  0.00  0.00    -0.359 OA
ATOM      6  N   UNL     1      -6.215 -12.591  17.367  0.00  0.00    -0.073 NA
ATOM     15  C   UNL     1      -6.300 -11.614  18.274  0.00  0.00    +0.168 A 
ATOM     17  C   UNL     1      -5.213 -10.725  18.205  0.00  0.00    +0.080 A 
ATOM     18  C   UNL     1      -4.447 -11.226  17.186  0.00  0.00    +0.135 A 
ATOM     20  C   UNL     1      -3.181 -10.814  16.569  0.00  0.00    +0.089 C 
ENDBRANCH  14  15
BRANCH   9   2
ATOM      2  O   UNL     1      -9.932  -9.275  15.713  0.00  0.00    -0.468 OA
BRANCH   2  16
ATOM      7  N   UNL     1     -11.483  -8.185  14.368  0.00  0.00    -0.219 NA
ATOM      8  N   UNL     1     -11.084  -5.842  15.857  0.00  0.00    -0.256 NA
ATOM     16  C   UNL     1     -10.620  -8.136  15.403  0.00  0.00    +0.234 A 
ATOM     19  C   UNL     1     -10.425  -6.985  16.134  0.00  0.00    +0.177 A 
ATOM     21  C   UNL     1     -12.142  -7.044  14.091  0.00  0.00    +0.134 A 
ATOM     22  C   UNL     1     -11.947  -5.893  14.822  0.00  0.00    +0.130 A 
ENDBRANCH   2  16
ENDBRANCH   9   2
TORSDOF 3
ENDMDL
MODEL 9
REMARK VINA RESULT:      -5.5     31.515     32.962
REMARK  Name = 75536898
REMARK  4 active torsions:
REMARK  status: ('A' for Active; 'I' for Inactive)
REMARK    1  A    between atoms: O_2  and  C_9
REMARK    2  A    between atoms: O_2  and  C_16
REMARK    3  A    between atoms: C_14  and  C_15
REMARK    4  A    between atoms: C_18  and  C_20
REMARK                            x       y       z     vdW  Elec       q    Type
REMARK                         _______ _______ _______ _____ _____    ______ ____
ROOT
ATOM      1  O   UNL     1     -13.990   1.263  31.548  0.00  0.00    -0.375 OA
ATOM      3  O   UNL     1     -14.453   4.768  34.835  0.00  0.00    -0.268 OA
ATOM      5  N   UNL     1     -15.078   3.955  32.728  0.00  0.00    -0.290 N 
ATOM      9  C   UNL     1     -15.177   3.027  30.351  0.00  0.00    +0.218 C 
ATOM     10  C   UNL     1     -15.317   4.219  31.304  0.00  0.00    +0.155 C 
ATOM     11  C   UNL     1     -15.210   2.580  33.213  0.00  0.00    +0.136 C 
ATOM     12  C   UNL     1     -13.870   2.260  30.538  0.00  0.00    +0.206 C 
ATOM     13  C   UNL     1     -13.969   1.761  32.881  0.00  0.00    +0.179 C 
ATOM     14  C   UNL     1     -14.693   4.950  33.642  0.00  0.00    +0.268 C 
ENDROOT
BRANCH  14  15
ATOM      4  O   UNL     1     -15.154   8.349  32.648  0.00  0.00    -0.359 OA
ATOM      6  N   UNL     1     -15.620   7.147  33.165  0.00  0.00    -0.073 NA
ATOM     15  C   UNL     1     -14.562   6.332  33.154  0.00  0.00    +0.168 A 
ATOM     17  C   UNL     1     -13.410   6.958  32.647  0.00  0.00    +0.080 A 
ATOM     18  C   UNL     1     -13.836   8.225  32.344  0.00  0.00    +0.135 A 
ATOM     20  C   UNL     1     -13.178   9.411  31.783  0.00  0.00    +0.089 C 
ENDBRANCH  14  15
BRANCH   9   2
ATOM      2  O   UNL     1     -15.221   3.554  29.024  0.00  0.00    -0.468 OA
BRANCH   2  16
ATOM      7  N   UNL     1     -15.945   3.278  26.832  0.00  0.00    -0.219 NA
ATOM      8  N   UNL     1     -16.909   0.730  27.502  0.00  0.00    -0.256 NA
ATOM     16  C   UNL     1     -15.829   2.776  28.078  0.00  0.00    +0.234 A 
ATOM     19  C   UNL     1     -16.303   1.525  28.407  0.00  0.00    +0.177 A 
ATOM     21  C   UNL     1     -16.550   2.484  25.928  0.00  0.00    +0.134 A 
ATOM     22  C   UNL     1     -17.024   1.232  26.257  0.00  0.00    +0.130 A 
ENDBRANCH   2  16
ENDBRANCH   9   2
TORSDOF 3
ENDMDL
MODEL 10
REMARK VINA RESULT:      -5.4     11.996     14.178
REMARK  Name = 75536898
REMARK  4 active torsions:
REMARK  status: ('A' for Active; 'I' for Inactive)
REMARK    1  A    between atoms: O_2  and  C_9
REMARK    2  A    between atoms: O_2  and  C_16
REMARK    3  A    between atoms: C_14  and  C_15
REMARK    4  A    between atoms: C_18  and  C_20
REMARK                            x       y       z     vdW  Elec       q    Type
REMARK                         _______ _______ _______ _____ _____    ______ ____
ROOT
ATOM      1  O   UNL     1      12.135   7.996   2.800  0.00  0.00    -0.375 OA
ATOM      3  O   UNL     1       8.125   6.791   5.201  0.00  0.00    -0.268 OA
ATOM      5  N   UNL     1      10.328   7.579   5.326  0.00  0.00    -0.290 N 
ATOM      9  C   UNL     1      12.845   7.961   5.134  0.00  0.00    +0.218 C 
ATOM     10  C   UNL     1      11.643   7.524   5.977  0.00  0.00    +0.155 C 
ATOM     11  C   UNL     1      10.160   8.460   4.170  0.00  0.00    +0.136 C 
ATOM     12  C   UNL     1      12.899   7.283   3.767  0.00  0.00    +0.206 C 
ATOM     13  C   UNL     1      10.727   7.823   2.908  0.00  0.00    +0.179 C 
ATOM     14  C   UNL     1       9.233   6.800   5.736  0.00  0.00    +0.268 C 
ENDROOT
BRANCH  14  15
ATOM      4  O   UNL     1       9.853   4.111   8.002  0.00  0.00    -0.359 OA
ATOM      6  N   UNL     1       9.799   4.651   6.724  0.00  0.00    -0.073 NA
ATOM     15  C   UNL     1       9.402   5.914   6.899  0.00  0.00    +0.168 A 
ATOM     17  C   UNL     1       9.192   6.226   8.253  0.00  0.00    +0.080 A 
ATOM     18  C   UNL     1       9.490   5.058   8.905  0.00  0.00    +0.135 A 
ATOM     20  C   UNL     1       9.492   4.655  10.316  0.00  0.00    +0.089 C 
ENDBRANCH  14  15
BRANCH   9   2
ATOM      2  O   UNL     1      14.016   7.611   5.873  0.00  0.00    -0.468 OA
BRANCH   2  16
ATOM      7  N   UNL     1      16.232   8.290   5.693  0.00  0.00    -0.219 NA
ATOM      8  N   UNL     1      15.504  10.820   6.664  0.00  0.00    -0.256 NA
ATOM     16  C   UNL     1      14.959   8.589   6.024  0.00  0.00    +0.234 A 
ATOM     19  C   UNL     1      14.602   9.830   6.501  0.00  0.00    +0.177 A 
ATOM     21  C   UNL     1      17.133   9.278   5.856  0.00  0.00    +0.134 A 
ATOM     22  C   UNL     1      16.776  10.521   6.332  0.00  0.00    +0.130 A 
ENDBRANCH   2  16
ENDBRANCH   9   2
TORSDOF 3
ENDMDL
