MODEL 1
REMARK VINA RESULT:      -8.0      0.000      0.000
REMARK  Name = 11884218
REMARK  6 active torsions:
REMARK  status: ('A' for Active; 'I' for Inactive)
REMARK    1  A    between atoms: O_4  and  C_19
REMARK    2  A    between atoms: O_4  and  C_26
REMARK    3  A    between atoms: O_5  and  C_29
REMARK    4  A    between atoms: O_5  and  C_35
REMARK    5  A    between atoms: C_16  and  C_19
REMARK    6  A    between atoms: C_21  and  C_23
REMARK                            x       y       z     vdW  Elec       q    Type
REMARK                         _______ _______ _______ _____ _____    ______ ____
ROOT
ATOM      1  O   UNL     1      -4.723  -9.650  11.952  0.00  0.00    -0.273 OA
ATOM      2  O   UNL     1      -4.286 -14.082   9.106  0.00  0.00    -0.270 OA
ATOM      3  O   UNL     1      -1.763  -9.900  14.550  0.00  0.00    -0.272 OA
ATOM      6  N   UNL     1      -3.601 -12.417  10.558  0.00  0.00    -0.283 N 
ATOM      7  N   UNL     1      -2.718 -11.507  13.169  0.00  0.00    -0.295 N 
ATOM      8  N   UNL     1      -5.191 -10.052   9.761  0.00  0.00    -0.283 N 
ATOM      9  C   UNL     1      -3.160 -11.043  10.750  0.00  0.00    +0.180 C 
ATOM     10  C   UNL     1      -2.209 -10.888  11.943  0.00  0.00    +0.140 C 
ATOM     11  C   UNL     1      -3.336 -13.365  11.641  0.00  0.00    +0.128 C 
ATOM     12  C   UNL     1      -3.516 -12.728  13.011  0.00  0.00    +0.127 C 
ATOM     13  C   UNL     1      -4.429 -10.217  10.898  0.00  0.00    +0.239 C 
ATOM     14  C   UNL     1      -4.090 -12.890   9.343  0.00  0.00    +0.249 C 
ATOM     15  C   UNL     1      -4.424 -11.913   8.273  0.00  0.00    +0.059 A 
ATOM     16  C   UNL     1      -2.433 -10.925  14.405  0.00  0.00    +0.253 C 
ATOM     17  C   UNL     1      -5.020 -10.662   8.501  0.00  0.00    +0.046 A 
ATOM     18  C   UNL     1      -4.286 -12.380   6.952  0.00  0.00    +0.023 A 
ATOM     20  C   UNL     1      -5.527  -9.940   7.406  0.00  0.00    +0.024 A 
ATOM     21  C   UNL     1      -4.749 -11.628   5.874  0.00  0.00    -0.017 A 
ATOM     22  C   UNL     1      -5.384 -10.413   6.102  0.00  0.00    +0.010 A 
ATOM     36  H   UNL     1      -5.902  -9.327   9.814  0.00  0.00    +0.155 HD
ENDROOT
BRANCH  21  23
ATOM     23  C   UNL     1      -4.593 -12.121   4.523  0.00  0.00    -0.018 A 
ATOM     24  C   UNL     1      -5.717 -12.335   3.724  0.00  0.00    +0.012 A 
ATOM     25  C   UNL     1      -3.319 -12.385   4.020  0.00  0.00    +0.012 A 
ATOM     27  C   UNL     1      -5.565 -12.812   2.422  0.00  0.00    +0.046 A 
ATOM     28  C   UNL     1      -3.169 -12.862   2.718  0.00  0.00    +0.046 A 
ATOM     29  C   UNL     1      -4.291 -13.076   1.919  0.00  0.00    +0.120 A 
BRANCH  29   5
ATOM      5  O   UNL     1      -4.143 -13.542   0.649  0.00  0.00    -0.495 OA
ATOM     35  C   UNL     1      -3.149 -12.917  -0.161  0.00  0.00    +0.277 C 
ENDBRANCH  29   5
ENDBRANCH  21  23
BRANCH  16  19
ATOM     19  C   UNL     1      -2.993 -11.627  15.618  0.00  0.00    +0.324 C 
BRANCH  19   4
ATOM      4  O   UNL     1      -3.207 -10.636  16.592  0.00  0.00    -0.483 OA
BRANCH   4  26
ATOM     26  C   UNL     1      -4.498 -10.455  17.038  0.00  0.00    +0.121 A 
ATOM     30  C   UNL     1      -5.401  -9.762  16.248  0.00  0.00    +0.045 A 
ATOM     31  C   UNL     1      -4.869 -10.968  18.272  0.00  0.00    +0.045 A 
ATOM     32  C   UNL     1      -6.708  -9.578  16.700  0.00  0.00    +0.004 A 
ATOM     33  C   UNL     1      -6.176 -10.785  18.725  0.00  0.00    +0.004 A 
ATOM     34  C   UNL     1      -7.095 -10.089  17.939  0.00  0.00    +0.000 A 
ENDBRANCH   4  26
ENDBRANCH  19   4
ENDBRANCH  16  19
TORSDOF 5
ENDMDL
MODEL 2
REMARK VINA RESULT:      -7.5      3.716      4.847
REMARK  Name = 11884218
REMARK  6 active torsions:
REMARK  status: ('A' for Active; 'I' for Inactive)
REMARK    1  A    between atoms: O_4  and  C_19
REMARK    2  A    between atoms: O_4  and  C_26
REMARK    3  A    between atoms: O_5  and  C_29
REMARK    4  A    between atoms: O_5  and  C_35
REMARK    5  A    between atoms: C_16  and  C_19
REMARK    6  A    between atoms: C_21  and  C_23
REMARK                            x       y       z     vdW  Elec       q    Type
REMARK                         _______ _______ _______ _____ _____    ______ ____
ROOT
ATOM      1  O   UNL     1      -5.354  -8.998  11.619  0.00  0.00    -0.273 OA
ATOM      2  O   UNL     1      -6.377 -11.349   6.997  0.00  0.00    -0.270 OA
ATOM      3  O   UNL     1      -1.527  -9.742  12.231  0.00  0.00    -0.272 OA
ATOM      6  N   UNL     1      -5.063 -10.449   8.674  0.00  0.00    -0.283 N 
ATOM      7  N   UNL     1      -3.045 -10.689  10.747  0.00  0.00    -0.295 N 
ATOM      8  N   UNL     1      -6.800  -8.425   9.957  0.00  0.00    -0.283 N 
ATOM      9  C   UNL     1      -4.560  -9.264   9.355  0.00  0.00    +0.180 C 
ATOM     10  C   UNL     1      -3.158  -9.470   9.943  0.00  0.00    +0.140 C 
ATOM     11  C   UNL     1      -4.338 -11.703   8.885  0.00  0.00    +0.128 C 
ATOM     12  C   UNL     1      -3.845 -11.841  10.318  0.00  0.00    +0.127 C 
ATOM     13  C   UNL     1      -5.597  -8.921  10.413  0.00  0.00    +0.239 C 
ATOM     14  C   UNL     1      -6.072 -10.397   7.716  0.00  0.00    +0.249 C 
ATOM     15  C   UNL     1      -6.851  -9.140   7.559  0.00  0.00    +0.059 A 
ATOM     16  C   UNL     1      -2.204 -10.704  11.861  0.00  0.00    +0.253 C 
ATOM     17  C   UNL     1      -7.250  -8.317   8.624  0.00  0.00    +0.046 A 
ATOM     18  C   UNL     1      -7.356  -8.889   6.269  0.00  0.00    +0.023 A 
ATOM     20  C   UNL     1      -8.197  -7.307   8.386  0.00  0.00    +0.024 A 
ATOM     21  C   UNL     1      -8.256  -7.850   6.041  0.00  0.00    -0.017 A 
ATOM     22  C   UNL     1      -8.690  -7.067   7.104  0.00  0.00    +0.010 A 
ATOM     36  H   UNL     1      -7.391  -7.995  10.664  0.00  0.00    +0.155 HD
ENDROOT
BRANCH  21  23
ATOM     23  C   UNL     1      -8.760  -7.604   4.707  0.00  0.00    -0.018 A 
ATOM     24  C   UNL     1      -7.993  -7.956   3.596  0.00  0.00    +0.012 A 
ATOM     25  C   UNL     1     -10.011  -7.013   4.533  0.00  0.00    +0.012 A 
ATOM     27  C   UNL     1      -8.480  -7.716   2.310  0.00  0.00    +0.046 A 
ATOM     28  C   UNL     1     -10.496  -6.774   3.247  0.00  0.00    +0.046 A 
ATOM     29  C   UNL     1      -9.731  -7.126   2.136  0.00  0.00    +0.120 A 
BRANCH  29   5
ATOM      5  O   UNL     1     -10.204  -6.892   0.882  0.00  0.00    -0.495 OA
ATOM     35  C   UNL     1     -11.315  -6.003   0.762  0.00  0.00    +0.277 C 
ENDBRANCH  29   5
ENDBRANCH  21  23
BRANCH  16  19
ATOM     19  C   UNL     1      -2.144 -11.999  12.633  0.00  0.00    +0.324 C 
BRANCH  19   4
ATOM      4  O   UNL     1      -1.781 -11.665  13.949  0.00  0.00    -0.483 OA
BRANCH   4  26
ATOM     26  C   UNL     1      -2.768 -11.716  14.910  0.00  0.00    +0.121 A 
ATOM     30  C   UNL     1      -2.769 -10.781  15.934  0.00  0.00    +0.045 A 
ATOM     31  C   UNL     1      -3.739 -12.703  14.837  0.00  0.00    +0.045 A 
ATOM     32  C   UNL     1      -3.768 -10.833  16.908  0.00  0.00    +0.004 A 
ATOM     33  C   UNL     1      -4.737 -12.755  15.810  0.00  0.00    +0.004 A 
ATOM     34  C   UNL     1      -4.750 -11.820  16.846  0.00  0.00    +0.000 A 
ENDBRANCH   4  26
ENDBRANCH  19   4
ENDBRANCH  16  19
TORSDOF 5
ENDMDL
MODEL 3
REMARK VINA RESULT:      -7.2      6.673     11.128
REMARK  Name = 11884218
REMARK  6 active torsions:
REMARK  status: ('A' for Active; 'I' for Inactive)
REMARK    1  A    between atoms: O_4  and  C_19
REMARK    2  A    between atoms: O_4  and  C_26
REMARK    3  A    between atoms: O_5  and  C_29
REMARK    4  A    between atoms: O_5  and  C_35
REMARK    5  A    between atoms: C_16  and  C_19
REMARK    6  A    between atoms: C_21  and  C_23
REMARK                            x       y       z     vdW  Elec       q    Type
REMARK                         _______ _______ _______ _____ _____    ______ ____
ROOT
ATOM      1  O   UNL     1      -9.756 -10.697  20.511  0.00  0.00    -0.273 OA
ATOM      2  O   UNL     1      -8.744  -8.654  15.743  0.00  0.00    -0.270 OA
ATOM      3  O   UNL     1     -13.362 -12.252  20.128  0.00  0.00    -0.272 OA
ATOM      6  N   UNL     1      -9.831  -9.979  17.296  0.00  0.00    -0.283 N 
ATOM      7  N   UNL     1     -12.199 -10.751  18.786  0.00  0.00    -0.295 N 
ATOM      8  N   UNL     1      -7.792 -10.486  19.380  0.00  0.00    -0.283 N 
ATOM      9  C   UNL     1      -9.816 -11.163  18.144  0.00  0.00    +0.180 C 
ATOM     10  C   UNL     1     -11.215 -11.751  18.364  0.00  0.00    +0.140 C 
ATOM     11  C   UNL     1     -11.131  -9.364  17.025  0.00  0.00    +0.128 C 
ATOM     12  C   UNL     1     -12.041  -9.398  18.244  0.00  0.00    +0.127 C 
ATOM     13  C   UNL     1      -9.146 -10.736  19.441  0.00  0.00    +0.239 C 
ATOM     14  C   UNL     1      -8.708  -9.531  16.607  0.00  0.00    +0.249 C 
ATOM     15  C   UNL     1      -7.380 -10.112  16.940  0.00  0.00    +0.059 A 
ATOM     16  C   UNL     1     -13.219 -11.118  19.666  0.00  0.00    +0.253 C 
ATOM     17  C   UNL     1      -6.963 -10.442  18.239  0.00  0.00    +0.046 A 
ATOM     18  C   UNL     1      -6.446 -10.148  15.888  0.00  0.00    +0.023 A 
ATOM     20  C   UNL     1      -5.607 -10.734  18.466  0.00  0.00    +0.024 A 
ATOM     21  C   UNL     1      -5.115 -10.490  16.122  0.00  0.00    -0.017 A 
ATOM     22  C   UNL     1      -4.691 -10.768  17.415  0.00  0.00    +0.010 A 
ATOM     36  H   UNL     1      -7.319 -10.422  20.278  0.00  0.00    +0.155 HD
ENDROOT
BRANCH  21  23
ATOM     23  C   UNL     1      -4.171 -10.528  15.026  0.00  0.00    -0.018 A 
ATOM     24  C   UNL     1      -2.800 -10.554  15.286  0.00  0.00    +0.012 A 
ATOM     25  C   UNL     1      -4.631 -10.536  13.710  0.00  0.00    +0.012 A 
ATOM     27  C   UNL     1      -1.891 -10.589  14.229  0.00  0.00    +0.046 A 
ATOM     28  C   UNL     1      -3.721 -10.571  12.653  0.00  0.00    +0.046 A 
ATOM     29  C   UNL     1      -2.351 -10.598  12.912  0.00  0.00    +0.120 A 
BRANCH  29   5
ATOM      5  O   UNL     1      -1.464 -10.632  11.881  0.00  0.00    -0.495 OA
ATOM     35  C   UNL     1      -1.152  -9.389  11.252  0.00  0.00    +0.277 C 
ENDBRANCH  29   5
ENDBRANCH  21  23
BRANCH  16  19
ATOM     19  C   UNL     1     -14.192 -10.029  20.048  0.00  0.00    +0.324 C 
BRANCH  19   4
ATOM      4  O   UNL     1     -15.104 -10.605  20.950  0.00  0.00    -0.483 OA
BRANCH   4  26
ATOM     26  C   UNL     1     -16.195  -9.847  21.319  0.00  0.00    +0.121 A 
ATOM     30  C   UNL     1     -16.136  -8.468  21.202  0.00  0.00    +0.045 A 
ATOM     31  C   UNL     1     -17.331 -10.480  21.802  0.00  0.00    +0.045 A 
ATOM     32  C   UNL     1     -17.240  -7.700  21.576  0.00  0.00    +0.004 A 
ATOM     33  C   UNL     1     -18.434  -9.713  22.175  0.00  0.00    +0.004 A 
ATOM     34  C   UNL     1     -18.388  -8.323  22.063  0.00  0.00    +0.000 A 
ENDBRANCH   4  26
ENDBRANCH  19   4
ENDBRANCH  16  19
TORSDOF 5
ENDMDL
MODEL 4
REMARK VINA RESULT:      -7.1     31.505     34.099
REMARK  Name = 11884218
REMARK  6 active torsions:
REMARK  status: ('A' for Active; 'I' for Inactive)
REMARK    1  A    between atoms: O_4  and  C_19
REMARK    2  A    between atoms: O_4  and  C_26
REMARK    3  A    between atoms: O_5  and  C_29
REMARK    4  A    between atoms: O_5  and  C_35
REMARK    5  A    between atoms: C_16  and  C_19
REMARK    6  A    between atoms: C_21  and  C_23
REMARK                            x       y       z     vdW  Elec       q    Type
REMARK                         _______ _______ _______ _____ _____    ______ ____
ROOT
ATOM      1  O   UNL     1      -3.268  11.730  36.477  0.00  0.00    -0.273 OA
ATOM      2  O   UNL     1      -7.577   9.001  37.863  0.00  0.00    -0.270 OA
ATOM      3  O   UNL     1      -0.289   9.280  37.311  0.00  0.00    -0.272 OA
ATOM      6  N   UNL     1      -5.353   9.319  37.310  0.00  0.00    -0.283 N 
ATOM      7  N   UNL     1      -2.523   9.235  37.950  0.00  0.00    -0.295 N 
ATOM      8  N   UNL     1      -5.364  11.727  35.590  0.00  0.00    -0.283 N 
ATOM      9  C   UNL     1      -4.356   9.584  36.282  0.00  0.00    +0.180 C 
ATOM     10  C   UNL     1      -2.998   8.943  36.595  0.00  0.00    +0.140 C 
ATOM     11  C   UNL     1      -4.879   8.761  38.577  0.00  0.00    +0.128 C 
ATOM     12  C   UNL     1      -3.543   9.358  38.996  0.00  0.00    +0.127 C 
ATOM     13  C   UNL     1      -4.278  11.099  36.162  0.00  0.00    +0.239 C 
ATOM     14  C   UNL     1      -6.722   9.403  37.072  0.00  0.00    +0.249 C 
ATOM     15  C   UNL     1      -7.196  10.036  35.813  0.00  0.00    +0.059 A 
ATOM     16  C   UNL     1      -1.154   9.382  38.183  0.00  0.00    +0.253 C 
ATOM     17  C   UNL     1      -6.603  11.163  35.221  0.00  0.00    +0.046 A 
ATOM     18  C   UNL     1      -8.423   9.561  35.312  0.00  0.00    +0.023 A 
ATOM     20  C   UNL     1      -7.285  11.827  34.187  0.00  0.00    +0.024 A 
ATOM     21  C   UNL     1      -9.061  10.203  34.252  0.00  0.00    -0.017 A 
ATOM     22  C   UNL     1      -8.500  11.346  33.698  0.00  0.00    +0.010 A 
ATOM     36  H   UNL     1      -5.213  12.693  35.313  0.00  0.00    +0.155 HD
ENDROOT
BRANCH  21  23
ATOM     23  C   UNL     1     -10.319   9.696  33.747  0.00  0.00    -0.018 A 
ATOM     24  C   UNL     1     -11.405   9.539  34.608  0.00  0.00    +0.012 A 
ATOM     25  C   UNL     1     -10.444   9.363  32.398  0.00  0.00    +0.012 A 
ATOM     27  C   UNL     1     -12.616   9.049  34.120  0.00  0.00    +0.046 A 
ATOM     28  C   UNL     1     -11.656   8.873  31.911  0.00  0.00    +0.046 A 
ATOM     29  C   UNL     1     -12.742   8.716  32.771  0.00  0.00    +0.120 A 
BRANCH  29   5
ATOM      5  O   UNL     1     -13.923   8.237  32.295  0.00  0.00    -0.495 OA
ATOM     35  C   UNL     1     -14.155   6.834  32.424  0.00  0.00    +0.277 C 
ENDBRANCH  29   5
ENDBRANCH  21  23
BRANCH  16  19
ATOM     19  C   UNL     1      -0.750   9.678  39.606  0.00  0.00    +0.324 C 
BRANCH  19   4
ATOM      4  O   UNL     1       0.043   8.597  40.030  0.00  0.00    -0.483 OA
BRANCH   4  26
ATOM     26  C   UNL     1      -0.607   7.429  40.365  0.00  0.00    +0.121 A 
ATOM     30  C   UNL     1      -1.514   7.431  41.413  0.00  0.00    +0.045 A 
ATOM     31  C   UNL     1      -0.340   6.272  39.648  0.00  0.00    +0.045 A 
ATOM     32  C   UNL     1      -2.172   6.247  41.753  0.00  0.00    +0.004 A 
ATOM     33  C   UNL     1      -0.997   5.089  39.988  0.00  0.00    +0.004 A 
ATOM     34  C   UNL     1      -1.912   5.077  41.041  0.00  0.00    +0.000 A 
ENDBRANCH   4  26
ENDBRANCH  19   4
ENDBRANCH  16  19
TORSDOF 5
ENDMDL
MODEL 5
REMARK VINA RESULT:      -7.1     21.995     27.389
REMARK  Name = 11884218
REMARK  6 active torsions:
REMARK  status: ('A' for Active; 'I' for Inactive)
REMARK    1  A    between atoms: O_4  and  C_19
REMARK    2  A    between atoms: O_4  and  C_26
REMARK    3  A    between atoms: O_5  and  C_29
REMARK    4  A    between atoms: O_5  and  C_35
REMARK    5  A    between atoms: C_16  and  C_19
REMARK    6  A    between atoms: C_21  and  C_23
REMARK                            x       y       z     vdW  Elec       q    Type
REMARK                         _______ _______ _______ _____ _____    ______ ____
ROOT
ATOM      1  O   UNL     1       7.411  -4.812  34.467  0.00  0.00    -0.273 OA
ATOM      2  O   UNL     1       7.390 -10.045  35.207  0.00  0.00    -0.270 OA
ATOM      3  O   UNL     1      10.512  -3.573  36.570  0.00  0.00    -0.272 OA
ATOM      6  N   UNL     1       8.269  -7.906  35.211  0.00  0.00    -0.283 N 
ATOM      7  N   UNL     1       9.373  -5.599  36.585  0.00  0.00    -0.295 N 
ATOM      8  N   UNL     1       6.780  -6.500  33.076  0.00  0.00    -0.283 N 
ATOM      9  C   UNL     1       8.805  -6.783  34.455  0.00  0.00    +0.180 C 
ATOM     10  C   UNL     1       9.839  -5.974  35.248  0.00  0.00    +0.140 C 
ATOM     11  C   UNL     1       8.545  -7.939  36.649  0.00  0.00    +0.128 C 
ATOM     12  C   UNL     1       8.493  -6.551  37.270  0.00  0.00    +0.127 C 
ATOM     13  C   UNL     1       7.602  -5.951  34.037  0.00  0.00    +0.239 C 
ATOM     14  C   UNL     1       7.675  -9.009  34.605  0.00  0.00    +0.249 C 
ATOM     15  C   UNL     1       7.333  -8.939  33.160  0.00  0.00    +0.059 A 
ATOM     16  C   UNL     1       9.773  -4.380  37.137  0.00  0.00    +0.253 C 
ATOM     17  C   UNL     1       6.831  -7.795  32.520  0.00  0.00    +0.046 A 
ATOM     18  C   UNL     1       7.356 -10.163  32.465  0.00  0.00    +0.023 A 
ATOM     20  C   UNL     1       6.300  -7.917  31.224  0.00  0.00    +0.024 A 
ATOM     21  C   UNL     1       6.872 -10.256  31.161  0.00  0.00    -0.017 A 
ATOM     22  C   UNL     1       6.329  -9.135  30.545  0.00  0.00    +0.010 A 
ATOM     36  H   UNL     1       6.119  -5.855  32.648  0.00  0.00    +0.155 HD
ENDROOT
BRANCH  21  23
ATOM     23  C   UNL     1       6.910 -11.521  30.460  0.00  0.00    -0.018 A 
ATOM     24  C   UNL     1       6.027 -12.542  30.814  0.00  0.00    +0.012 A 
ATOM     25  C   UNL     1       7.830 -11.720  29.431  0.00  0.00    +0.012 A 
ATOM     27  C   UNL     1       6.066 -13.762  30.138  0.00  0.00    +0.046 A 
ATOM     28  C   UNL     1       7.868 -12.940  28.756  0.00  0.00    +0.046 A 
ATOM     29  C   UNL     1       6.986 -13.961  29.109  0.00  0.00    +0.120 A 
BRANCH  29   5
ATOM      5  O   UNL     1       7.024 -15.151  28.451  0.00  0.00    -0.495 OA
ATOM     35  C   UNL     1       6.682 -15.138  27.065  0.00  0.00    +0.277 C 
ENDBRANCH  29   5
ENDBRANCH  21  23
BRANCH  16  19
ATOM     19  C   UNL     1       9.250  -4.072  38.518  0.00  0.00    +0.324 C 
BRANCH  19   4
ATOM      4  O   UNL     1       8.664  -2.795  38.449  0.00  0.00    -0.483 OA
BRANCH   4  26
ATOM     26  C   UNL     1       7.321  -2.698  38.741  0.00  0.00    +0.121 A 
ATOM     30  C   UNL     1       6.927  -2.216  39.979  0.00  0.00    +0.045 A 
ATOM     31  C   UNL     1       6.388  -3.086  37.791  0.00  0.00    +0.045 A 
ATOM     32  C   UNL     1       5.566  -2.118  40.276  0.00  0.00    +0.004 A 
ATOM     33  C   UNL     1       5.028  -2.989  38.087  0.00  0.00    +0.004 A 
ATOM     34  C   UNL     1       4.618  -2.505  39.330  0.00  0.00    +0.000 A 
ENDBRANCH   4  26
ENDBRANCH  19   4
ENDBRANCH  16  19
TORSDOF 5
ENDMDL
MODEL 6
REMARK VINA RESULT:      -7.1      7.085     11.963
REMARK  Name = 11884218
REMARK  6 active torsions:
REMARK  status: ('A' for Active; 'I' for Inactive)
REMARK    1  A    between atoms: O_4  and  C_19
REMARK    2  A    between atoms: O_4  and  C_26
REMARK    3  A    between atoms: O_5  and  C_29
REMARK    4  A    between atoms: O_5  and  C_35
REMARK    5  A    between atoms: C_16  and  C_19
REMARK    6  A    between atoms: C_21  and  C_23
REMARK                            x       y       z     vdW  Elec       q    Type
REMARK                         _______ _______ _______ _____ _____    ______ ____
ROOT
ATOM      1  O   UNL     1     -11.835 -10.675  20.363  0.00  0.00    -0.273 OA
ATOM      2  O   UNL     1      -9.615  -8.516  16.080  0.00  0.00    -0.270 OA
ATOM      3  O   UNL     1     -15.304 -12.023  19.051  0.00  0.00    -0.272 OA
ATOM      6  N   UNL     1     -11.100  -9.838  17.262  0.00  0.00    -0.283 N 
ATOM      7  N   UNL     1     -13.789 -10.538  18.102  0.00  0.00    -0.295 N 
ATOM      8  N   UNL     1      -9.649 -10.526  19.747  0.00  0.00    -0.283 N 
ATOM      9  C   UNL     1     -11.341 -11.051  18.030  0.00  0.00    +0.180 C 
ATOM     10  C   UNL     1     -12.776 -11.572  17.880  0.00  0.00    +0.140 C 
ATOM     11  C   UNL     1     -12.269  -9.145  16.717  0.00  0.00    +0.128 C 
ATOM     12  C   UNL     1     -13.448  -9.175  17.679  0.00  0.00    +0.127 C 
ATOM     13  C   UNL     1     -10.987 -10.707  19.469  0.00  0.00    +0.239 C 
ATOM     14  C   UNL     1      -9.826  -9.424  16.885  0.00  0.00    +0.249 C 
ATOM     15  C   UNL     1      -8.644 -10.086  17.498  0.00  0.00    +0.059 A 
ATOM     16  C   UNL     1     -15.006 -10.882  18.692  0.00  0.00    +0.253 C 
ATOM     17  C   UNL     1      -8.568 -10.485  18.842  0.00  0.00    +0.046 A 
ATOM     18  C   UNL     1      -7.485 -10.133  16.700  0.00  0.00    +0.023 A 
ATOM     20  C   UNL     1      -7.321 -10.856  19.373  0.00  0.00    +0.024 A 
ATOM     21  C   UNL     1      -6.266 -10.553  17.230  0.00  0.00    -0.017 A 
ATOM     22  C   UNL     1      -6.180 -10.900  18.572  0.00  0.00    +0.010 A 
ATOM     36  H   UNL     1      -9.405 -10.520  20.734  0.00  0.00    +0.155 HD
ENDROOT
BRANCH  21  23
ATOM     23  C   UNL     1      -5.087 -10.600  16.392  0.00  0.00    -0.018 A 
ATOM     24  C   UNL     1      -5.218 -10.623  15.003  0.00  0.00    +0.012 A 
ATOM     25  C   UNL     1      -3.820 -10.626  16.974  0.00  0.00    +0.012 A 
ATOM     27  C   UNL     1      -4.080 -10.670  14.197  0.00  0.00    +0.046 A 
ATOM     28  C   UNL     1      -2.683 -10.674  16.167  0.00  0.00    +0.046 A 
ATOM     29  C   UNL     1      -2.813 -10.696  14.779  0.00  0.00    +0.120 A 
BRANCH  29   5
ATOM      5  O   UNL     1      -1.704 -10.743  13.992  0.00  0.00    -0.495 OA
ATOM     35  C   UNL     1      -1.869 -10.405  12.615  0.00  0.00    +0.277 C 
ENDBRANCH  29   5
ENDBRANCH  21  23
BRANCH  16  19
ATOM     19  C   UNL     1     -15.995  -9.758  18.882  0.00  0.00    +0.324 C 
BRANCH  19   4
ATOM      4  O   UNL     1     -15.777  -9.246  20.173  0.00  0.00    -0.483 OA
BRANCH   4  26
ATOM     26  C   UNL     1     -16.142  -7.937  20.406  0.00  0.00    +0.121 A 
ATOM     30  C   UNL     1     -16.567  -7.151  19.347  0.00  0.00    +0.045 A 
ATOM     31  C   UNL     1     -16.074  -7.430  21.695  0.00  0.00    +0.045 A 
ATOM     32  C   UNL     1     -16.935  -5.825  19.581  0.00  0.00    +0.004 A 
ATOM     33  C   UNL     1     -16.442  -6.106  21.930  0.00  0.00    +0.004 A 
ATOM     34  C   UNL     1     -16.872  -5.303  20.873  0.00  0.00    +0.000 A 
ENDBRANCH   4  26
ENDBRANCH  19   4
ENDBRANCH  16  19
TORSDOF 5
ENDMDL
MODEL 7
REMARK VINA RESULT:      -6.9     23.349     24.670
REMARK  Name = 11884218
REMARK  6 active torsions:
REMARK  status: ('A' for Active; 'I' for Inactive)
REMARK    1  A    between atoms: O_4  and  C_19
REMARK    2  A    between atoms: O_4  and  C_26
REMARK    3  A    between atoms: O_5  and  C_29
REMARK    4  A    between atoms: O_5  and  C_35
REMARK    5  A    between atoms: C_16  and  C_19
REMARK    6  A    between atoms: C_21  and  C_23
REMARK                            x       y       z     vdW  Elec       q    Type
REMARK                         _______ _______ _______ _____ _____    ______ ____
ROOT
ATOM      1  O   UNL     1      11.783   6.575   5.708  0.00  0.00    -0.273 OA
ATOM      2  O   UNL     1       9.213   7.784   1.252  0.00  0.00    -0.270 OA
ATOM      3  O   UNL     1       9.006   6.830   8.501  0.00  0.00    -0.272 OA
ATOM      6  N   UNL     1       9.440   7.150   3.464  0.00  0.00    -0.283 N 
ATOM      7  N   UNL     1       9.034   7.592   6.305  0.00  0.00    -0.295 N 
ATOM      8  N   UNL     1      12.086   5.830   3.579  0.00  0.00    -0.283 N 
ATOM      9  C   UNL     1       9.788   6.116   4.429  0.00  0.00    +0.180 C 
ATOM     10  C   UNL     1       9.001   6.240   5.740  0.00  0.00    +0.140 C 
ATOM     11  C   UNL     1       8.651   8.283   3.950  0.00  0.00    +0.128 C 
ATOM     12  C   UNL     1       9.066   8.706   5.352  0.00  0.00    +0.127 C 
ATOM     13  C   UNL     1      11.292   6.229   4.633  0.00  0.00    +0.239 C 
ATOM     14  C   UNL     1       9.669   7.014   2.098  0.00  0.00    +0.249 C 
ATOM     15  C   UNL     1      10.530   5.901   1.620  0.00  0.00    +0.059 A 
ATOM     16  C   UNL     1       9.034   7.759   7.691  0.00  0.00    +0.253 C 
ATOM     17  C   UNL     1      11.687   5.455   2.279  0.00  0.00    +0.046 A 
ATOM     18  C   UNL     1      10.239   5.409   0.333  0.00  0.00    +0.023 A 
ATOM     20  C   UNL     1      12.561   4.582   1.607  0.00  0.00    +0.024 A 
ATOM     21  C   UNL     1      11.090   4.504  -0.298  0.00  0.00    -0.017 A 
ATOM     22  C   UNL     1      12.261   4.101   0.333  0.00  0.00    +0.010 A 
ATOM     36  H   UNL     1      13.070   5.698   3.800  0.00  0.00    +0.155 HD
ENDROOT
BRANCH  21  23
ATOM     23  C   UNL     1      10.771   4.005  -1.618  0.00  0.00    -0.018 A 
ATOM     24  C   UNL     1       9.801   4.645  -2.390  0.00  0.00    +0.012 A 
ATOM     25  C   UNL     1      11.433   2.884  -2.118  0.00  0.00    +0.012 A 
ATOM     27  C   UNL     1       9.493   4.162  -3.663  0.00  0.00    +0.046 A 
ATOM     28  C   UNL     1      11.124   2.401  -3.390  0.00  0.00    +0.046 A 
ATOM     29  C   UNL     1      10.155   3.040  -4.162  0.00  0.00    +0.120 A 
BRANCH  29   5
ATOM      5  O   UNL     1       9.854   2.569  -5.403  0.00  0.00    -0.495 OA
ATOM     35  C   UNL     1      10.732   2.934  -6.467  0.00  0.00    +0.277 C 
ENDBRANCH  29   5
ENDBRANCH  21  23
BRANCH  16  19
ATOM     19  C   UNL     1       9.066   9.183   8.189  0.00  0.00    +0.324 C 
BRANCH  19   4
ATOM      4  O   UNL     1      10.422   9.533   8.316  0.00  0.00    -0.483 OA
BRANCH   4  26
ATOM     26  C   UNL     1      10.717  10.672   9.034  0.00  0.00    +0.121 A 
ATOM     30  C   UNL     1      11.975  11.241   8.918  0.00  0.00    +0.045 A 
ATOM     31  C   UNL     1       9.751  11.226   9.860  0.00  0.00    +0.045 A 
ATOM     32  C   UNL     1      12.276  12.394   9.646  0.00  0.00    +0.004 A 
ATOM     33  C   UNL     1      10.051  12.378  10.587  0.00  0.00    +0.004 A 
ATOM     34  C   UNL     1      11.313  12.961  10.480  0.00  0.00    +0.000 A 
ENDBRANCH   4  26
ENDBRANCH  19   4
ENDBRANCH  16  19
TORSDOF 5
ENDMDL
MODEL 8
REMARK VINA RESULT:      -6.9     24.405     27.364
REMARK  Name = 11884218
REMARK  6 active torsions:
REMARK  status: ('A' for Active; 'I' for Inactive)
REMARK    1  A    between atoms: O_4  and  C_19
REMARK    2  A    between atoms: O_4  and  C_26
REMARK    3  A    between atoms: O_5  and  C_29
REMARK    4  A    between atoms: O_5  and  C_35
REMARK    5  A    between atoms: C_16  and  C_19
REMARK    6  A    between atoms: C_21  and  C_23
REMARK                            x       y       z     vdW  Elec       q    Type
REMARK                         _______ _______ _______ _____ _____    ______ ____
ROOT
ATOM      1  O   UNL     1      12.644   7.418   3.815  0.00  0.00    -0.273 OA
ATOM      2  O   UNL     1       9.601   6.892   8.103  0.00  0.00    -0.270 OA
ATOM      3  O   UNL     1      10.368   6.100   0.873  0.00  0.00    -0.272 OA
ATOM      6  N   UNL     1      10.079   7.024   5.844  0.00  0.00    -0.283 N 
ATOM      7  N   UNL     1      10.159   5.880   3.177  0.00  0.00    -0.295 N 
ATOM      8  N   UNL     1      12.532   8.673   5.710  0.00  0.00    -0.283 N 
ATOM      9  C   UNL     1      10.439   7.847   4.699  0.00  0.00    +0.180 C 
ATOM     10  C   UNL     1       9.879   7.304   3.379  0.00  0.00    +0.140 C 
ATOM     11  C   UNL     1       9.515   5.702   5.569  0.00  0.00    +0.128 C 
ATOM     12  C   UNL     1      10.183   5.035   4.376  0.00  0.00    +0.127 C 
ATOM     13  C   UNL     1      11.959   7.924   4.705  0.00  0.00    +0.239 C 
ATOM     14  C   UNL     1      10.082   7.506   7.150  0.00  0.00    +0.249 C 
ATOM     15  C   UNL     1      10.721   8.819   7.431  0.00  0.00    +0.059 A 
ATOM     16  C   UNL     1      10.387   5.399   1.887  0.00  0.00    +0.253 C 
ATOM     17  C   UNL     1      11.901   9.272   6.820  0.00  0.00    +0.046 A 
ATOM     18  C   UNL     1      10.183   9.544   8.511  0.00  0.00    +0.023 A 
ATOM     20  C   UNL     1      12.551  10.401   7.349  0.00  0.00    +0.024 A 
ATOM     21  C   UNL     1      10.814  10.690   8.991  0.00  0.00    -0.017 A 
ATOM     22  C   UNL     1      12.008  11.111   8.419  0.00  0.00    +0.010 A 
ATOM     36  H   UNL     1      13.515   8.900   5.579  0.00  0.00    +0.155 HD
ENDROOT
BRANCH  21  23
ATOM     23  C   UNL     1      10.242  11.425  10.098  0.00  0.00    -0.018 A 
ATOM     24  C   UNL     1       8.864  11.631  10.162  0.00  0.00    +0.012 A 
ATOM     25  C   UNL     1      11.070  11.930  11.100  0.00  0.00    +0.012 A 
ATOM     27  C   UNL     1       8.314  12.342  11.230  0.00  0.00    +0.046 A 
ATOM     28  C   UNL     1      10.520  12.640  12.167  0.00  0.00    +0.046 A 
ATOM     29  C   UNL     1       9.143  12.846  12.232  0.00  0.00    +0.120 A 
BRANCH  29   5
ATOM      5  O   UNL     1       8.606  13.540  13.273  0.00  0.00    -0.495 OA
ATOM     35  C   UNL     1       9.147  14.833  13.539  0.00  0.00    +0.277 C 
ENDBRANCH  29   5
ENDBRANCH  21  23
BRANCH  16  19
ATOM     19  C   UNL     1      10.665   3.920   1.768  0.00  0.00    +0.324 C 
BRANCH  19   4
ATOM      4  O   UNL     1      11.996   3.729   2.181  0.00  0.00    -0.483 OA
BRANCH   4  26
ATOM     26  C   UNL     1      12.977   3.812   1.216  0.00  0.00    +0.121 A 
ATOM     30  C   UNL     1      14.286   4.060   1.597  0.00  0.00    +0.045 A 
ATOM     31  C   UNL     1      12.635   3.649  -0.118  0.00  0.00    +0.045 A 
ATOM     32  C   UNL     1      15.280   4.146   0.621  0.00  0.00    +0.004 A 
ATOM     33  C   UNL     1      13.628   3.734  -1.094  0.00  0.00    +0.004 A 
ATOM     34  C   UNL     1      14.950   3.984  -0.724  0.00  0.00    +0.000 A 
ENDBRANCH   4  26
ENDBRANCH  19   4
ENDBRANCH  16  19
TORSDOF 5
ENDMDL
MODEL 9
REMARK VINA RESULT:      -6.9      5.341     11.926
REMARK  Name = 11884218
REMARK  6 active torsions:
REMARK  status: ('A' for Active; 'I' for Inactive)
REMARK    1  A    between atoms: O_4  and  C_19
REMARK    2  A    between atoms: O_4  and  C_26
REMARK    3  A    between atoms: O_5  and  C_29
REMARK    4  A    between atoms: O_5  and  C_35
REMARK    5  A    between atoms: C_16  and  C_19
REMARK    6  A    between atoms: C_21  and  C_23
REMARK                            x       y       z     vdW  Elec       q    Type
REMARK                         _______ _______ _______ _____ _____    ______ ____
ROOT
ATOM      1  O   UNL     1      -8.375 -10.786   4.919  0.00  0.00    -0.273 OA
ATOM      2  O   UNL     1      -7.497  -7.859   9.231  0.00  0.00    -0.270 OA
ATOM      3  O   UNL     1      -8.243  -8.175   1.962  0.00  0.00    -0.272 OA
ATOM      6  N   UNL     1      -7.521  -8.354   6.972  0.00  0.00    -0.283 N 
ATOM      7  N   UNL     1      -8.431  -7.868   4.258  0.00  0.00    -0.295 N 
ATOM      8  N   UNL     1      -7.319 -11.304   6.867  0.00  0.00    -0.283 N 
ATOM      9  C   UNL     1      -6.939  -9.086   5.856  0.00  0.00    +0.180 C 
ATOM     10  C   UNL     1      -7.069  -8.338   4.524  0.00  0.00    +0.140 C 
ATOM     11  C   UNL     1      -8.369  -7.205   6.651  0.00  0.00    +0.128 C 
ATOM     12  C   UNL     1      -9.227  -7.458   5.420  0.00  0.00    +0.127 C 
ATOM     13  C   UNL     1      -7.634 -10.440   5.841  0.00  0.00    +0.239 C 
ATOM     14  C   UNL     1      -7.164  -8.589   8.297  0.00  0.00    +0.249 C 
ATOM     15  C   UNL     1      -6.362  -9.798   8.622  0.00  0.00    +0.059 A 
ATOM     16  C   UNL     1      -8.903  -7.833   2.945  0.00  0.00    +0.253 C 
ATOM     17  C   UNL     1      -6.534 -11.051   8.012  0.00  0.00    +0.046 A 
ATOM     18  C   UNL     1      -5.514  -9.688   9.741  0.00  0.00    +0.023 A 
ATOM     20  C   UNL     1      -5.908 -12.176   8.576  0.00  0.00    +0.024 A 
ATOM     21  C   UNL     1      -4.861 -10.806  10.257  0.00  0.00    -0.017 A 
ATOM     22  C   UNL     1      -5.070 -12.054   9.684  0.00  0.00    +0.010 A 
ATOM     36  H   UNL     1      -7.609 -12.269   6.729  0.00  0.00    +0.155 HD
ENDROOT
BRANCH  21  23
ATOM     23  C   UNL     1      -3.989 -10.672  11.404  0.00  0.00    -0.018 A 
ATOM     24  C   UNL     1      -2.634 -10.392  11.222  0.00  0.00    +0.012 A 
ATOM     25  C   UNL     1      -4.503 -10.825  12.692  0.00  0.00    +0.012 A 
ATOM     27  C   UNL     1      -1.794 -10.265  12.329  0.00  0.00    +0.046 A 
ATOM     28  C   UNL     1      -3.662 -10.698  13.797  0.00  0.00    +0.046 A 
ATOM     29  C   UNL     1      -2.308 -10.418  13.616  0.00  0.00    +0.120 A 
BRANCH  29   5
ATOM      5  O   UNL     1      -1.488 -10.295  14.695  0.00  0.00    -0.495 OA
ATOM     35  C   UNL     1      -2.013 -10.699  15.959  0.00  0.00    +0.277 C 
ENDBRANCH  29   5
ENDBRANCH  21  23
BRANCH  16  19
ATOM     19  C   UNL     1     -10.315  -7.334   2.759  0.00  0.00    +0.324 C 
BRANCH  19   4
ATOM      4  O   UNL     1     -10.215  -6.060   2.173  0.00  0.00    -0.483 OA
BRANCH   4  26
ATOM     26  C   UNL     1     -10.803  -5.883   0.939  0.00  0.00    +0.121 A 
ATOM     30  C   UNL     1     -11.027  -6.984   0.128  0.00  0.00    +0.045 A 
ATOM     31  C   UNL     1     -11.156  -4.605   0.530  0.00  0.00    +0.045 A 
ATOM     32  C   UNL     1     -11.621  -6.805  -1.123  0.00  0.00    +0.004 A 
ATOM     33  C   UNL     1     -11.749  -4.426  -0.719  0.00  0.00    +0.004 A 
ATOM     34  C   UNL     1     -11.981  -5.526  -1.546  0.00  0.00    +0.000 A 
ENDBRANCH   4  26
ENDBRANCH  19   4
ENDBRANCH  16  19
TORSDOF 5
ENDMDL
MODEL 10
REMARK VINA RESULT:      -6.8     26.525     28.486
REMARK  Name = 11884218
REMARK  6 active torsions:
REMARK  status: ('A' for Active; 'I' for Inactive)
REMARK    1  A    between atoms: O_4  and  C_19
REMARK    2  A    between atoms: O_4  and  C_26
REMARK    3  A    between atoms: O_5  and  C_29
REMARK    4  A    between atoms: O_5  and  C_35
REMARK    5  A    between atoms: C_16  and  C_19
REMARK    6  A    between atoms: C_21  and  C_23
REMARK                            x       y       z     vdW  Elec       q    Type
REMARK                         _______ _______ _______ _____ _____    ______ ____
ROOT
ATOM      1  O   UNL     1      11.580   9.990   6.730  0.00  0.00    -0.273 OA
ATOM      2  O   UNL     1      14.677   7.199   3.482  0.00  0.00    -0.270 OA
ATOM      3  O   UNL     1       8.830   7.400   7.872  0.00  0.00    -0.272 OA
ATOM      6  N   UNL     1      13.081   7.537   5.121  0.00  0.00    -0.283 N 
ATOM      7  N   UNL     1      10.367   7.322   6.130  0.00  0.00    -0.295 N 
ATOM      8  N   UNL     1      13.817  10.134   6.334  0.00  0.00    -0.283 N 
ATOM      9  C   UNL     1      12.774   7.905   6.496  0.00  0.00    +0.180 C 
ATOM     10  C   UNL     1      11.518   7.204   7.030  0.00  0.00    +0.140 C 
ATOM     11  C   UNL     1      12.048   6.822   4.370  0.00  0.00    +0.128 C 
ATOM     12  C   UNL     1      10.652   7.338   4.691  0.00  0.00    +0.127 C 
ATOM     13  C   UNL     1      12.649   9.421   6.502  0.00  0.00    +0.239 C 
ATOM     14  C   UNL     1      14.351   7.677   4.570  0.00  0.00    +0.249 C 
ATOM     15  C   UNL     1      15.374   8.465   5.307  0.00  0.00    +0.059 A 
ATOM     16  C   UNL     1       9.081   7.413   6.665  0.00  0.00    +0.253 C 
ATOM     17  C   UNL     1      15.101   9.643   6.021  0.00  0.00    +0.046 A 
ATOM     18  C   UNL     1      16.711   8.078   5.103  0.00  0.00    +0.023 A 
ATOM     20  C   UNL     1      16.175  10.441   6.454  0.00  0.00    +0.024 A 
ATOM     21  C   UNL     1      17.764   8.855   5.583  0.00  0.00    -0.017 A 
ATOM     22  C   UNL     1      17.496  10.046   6.246  0.00  0.00    +0.010 A 
ATOM     36  H   UNL     1      13.759  11.124   6.560  0.00  0.00    +0.155 HD
ENDROOT
BRANCH  21  23
ATOM     23  C   UNL     1      19.132   8.437   5.368  0.00  0.00    -0.018 A 
ATOM     24  C   UNL     1      19.494   7.815   4.173  0.00  0.00    +0.012 A 
ATOM     25  C   UNL     1      20.091   8.655   6.358  0.00  0.00    +0.012 A 
ATOM     27  C   UNL     1      20.814   7.412   3.968  0.00  0.00    +0.046 A 
ATOM     28  C   UNL     1      21.410   8.251   6.153  0.00  0.00    +0.046 A 
ATOM     29  C   UNL     1      21.772   7.630   4.958  0.00  0.00    +0.120 A 
BRANCH  29   5
ATOM      5  O   UNL     1      23.059   7.236   4.758  0.00  0.00    -0.495 OA
ATOM     35  C   UNL     1      24.064   8.246   4.816  0.00  0.00    +0.277 C 
ENDBRANCH  29   5
ENDBRANCH  21  23
BRANCH  16  19
ATOM     19  C   UNL     1       7.953   7.528   5.669  0.00  0.00    +0.324 C 
BRANCH  19   4
ATOM      4  O   UNL     1       7.757   8.902   5.444  0.00  0.00    -0.483 OA
BRANCH   4  26
ATOM     26  C   UNL     1       7.292   9.280   4.202  0.00  0.00    +0.121 A 
ATOM     30  C   UNL     1       6.174  10.095   4.113  0.00  0.00    +0.045 A 
ATOM     31  C   UNL     1       7.950   8.836   3.065  0.00  0.00    +0.045 A 
ATOM     32  C   UNL     1       5.703  10.477   2.856  0.00  0.00    +0.004 A 
ATOM     33  C   UNL     1       7.479   9.218   1.809  0.00  0.00    +0.004 A 
ATOM     34  C   UNL     1       6.355  10.038   1.705  0.00  0.00    +0.000 A 
ENDBRANCH   4  26
ENDBRANCH  19   4
ENDBRANCH  16  19
TORSDOF 5
ENDMDL
