MODEL 1
REMARK VINA RESULT:      -6.9      0.000      0.000
REMARK  Name = 51138059
REMARK  10 active torsions:
REMARK  status: ('A' for Active; 'I' for Inactive)
REMARK    1  A    between atoms: N_3  and  C_19
REMARK    2  A    between atoms: N_4  and  C_23
REMARK    3  A    between atoms: C_6  and  C_10
REMARK    4  A    between atoms: C_8  and  C_17
REMARK    5  A    between atoms: C_10  and  C_14
REMARK    6  A    between atoms: C_14  and  C_21
REMARK    7  A    between atoms: C_14  and  C_22
REMARK    8  A    between atoms: C_19  and  C_24
REMARK    9  A    between atoms: C_23  and  C_25
REMARK   10  A    between atoms: C_23  and  C_26
REMARK                            x       y       z     vdW  Elec       q    Type
REMARK                         _______ _______ _______ _____ _____    ______ ____
ROOT
ATOM      2  N   UNL     1      19.699   8.308  21.344  0.00  0.00    -0.299 NA
ATOM      3  N   UNL     1      15.063   7.554  19.487  0.00  0.00    -0.341 N 
ATOM      6  C   UNL     1      18.965   9.558  21.584  0.00  0.00    +0.085 C 
ATOM      7  C   UNL     1      17.576   9.652  20.944  0.00  0.00    -0.021 A 
ATOM      8  C   UNL     1      19.076   7.119  21.908  0.00  0.00    +0.145 C 
ATOM      9  C   UNL     1      16.825   8.548  20.448  0.00  0.00    +0.008 A 
ATOM     11  C   UNL     1      18.245   6.372  20.867  0.00  0.00    +0.065 C 
ATOM     12  C   UNL     1      17.053   7.129  20.386  0.00  0.00    -0.020 A 
ATOM     13  C   UNL     1      15.557   8.769  19.898  0.00  0.00    +0.050 A 
ATOM     15  C   UNL     1      15.952   6.561  19.780  0.00  0.00    +0.091 A 
ATOM     16  C   UNL     1      16.934  10.916  20.899  0.00  0.00    +0.006 A 
ATOM     18  C   UNL     1      14.962  10.028  19.820  0.00  0.00    +0.026 A 
ATOM     20  C   UNL     1      15.670  11.101  20.345  0.00  0.00    +0.002 A 
ATOM     31  H   UNL     1      19.894   8.185  20.352  0.00  0.00    +0.123 HD
ENDROOT
BRANCH   8  17
ATOM      1  O   UNL     1      20.532   6.142  23.527  0.00  0.00    -0.274 OA
ATOM      4  N   UNL     1      20.840   5.629  21.276  0.00  0.00    -0.312 N 
ATOM     17  C   UNL     1      20.215   6.248  22.345  0.00  0.00    +0.231 C 
ATOM     32  H   UNL     1      20.450   5.740  20.345  0.00  0.00    +0.149 HD
BRANCH   4  23
ATOM     23  C   UNL     1      21.981   4.754  21.428  0.00  0.00    +0.067 C 
ATOM     25  C   UNL     1      21.576   3.304  21.197  0.00  0.00    +0.027 C 
ATOM     26  C   UNL     1      23.098   5.173  20.480  0.00  0.00    +0.027 C 
ENDBRANCH   4  23
ENDBRANCH   8  17
BRANCH   6  10
ATOM     10  C   UNL     1      19.916  10.666  21.097  0.00  0.00    +0.026 C 
BRANCH  10  14
ATOM     14  C   UNL     1      20.343  11.622  22.216  0.00  0.00    -0.015 C 
ATOM     21  C   UNL     1      19.802  13.038  22.018  0.00  0.00    +0.007 C 
ATOM     22  C   UNL     1      19.865  11.070  23.561  0.00  0.00    +0.007 C 
ENDBRANCH  10  14
ENDBRANCH   6  10
BRANCH   3  19
ATOM     19  C   UNL     1      13.782   7.335  18.851  0.00  0.00    +0.177 C 
BRANCH  19  24
ATOM      5  N   UNL     1      12.526   6.321  20.675  0.00  0.00    -0.258 NA
ATOM     24  C   UNL     1      12.623   7.361  19.817  0.00  0.00    +0.061 A 
ATOM     27  C   UNL     1      11.735   8.423  19.781  0.00  0.00    +0.025 A 
ATOM     28  C   UNL     1      10.678   8.417  20.685  0.00  0.00    +0.003 A 
ATOM     29  C   UNL     1      11.486   6.350  21.539  0.00  0.00    +0.111 A 
ATOM     30  C   UNL     1      10.544   7.366  21.584  0.00  0.00    +0.020 A 
ENDBRANCH  19  24
ENDBRANCH   3  19
TORSDOF 6
ENDMDL
MODEL 2
REMARK VINA RESULT:      -6.9      4.546      7.825
REMARK  Name = 51138059
REMARK  10 active torsions:
REMARK  status: ('A' for Active; 'I' for Inactive)
REMARK    1  A    between atoms: N_3  and  C_19
REMARK    2  A    between atoms: N_4  and  C_23
REMARK    3  A    between atoms: C_6  and  C_10
REMARK    4  A    between atoms: C_8  and  C_17
REMARK    5  A    between atoms: C_10  and  C_14
REMARK    6  A    between atoms: C_14  and  C_21
REMARK    7  A    between atoms: C_14  and  C_22
REMARK    8  A    between atoms: C_19  and  C_24
REMARK    9  A    between atoms: C_23  and  C_25
REMARK   10  A    between atoms: C_23  and  C_26
REMARK                            x       y       z     vdW  Elec       q    Type
REMARK                         _______ _______ _______ _____ _____    ______ ____
ROOT
ATOM      2  N   UNL     1      14.179   9.337  18.765  0.00  0.00    -0.299 NA
ATOM      3  N   UNL     1      11.339  10.771  22.687  0.00  0.00    -0.341 N 
ATOM      6  C   UNL     1      13.251   8.226  19.013  0.00  0.00    +0.085 C 
ATOM      7  C   UNL     1      12.395   8.337  20.279  0.00  0.00    -0.021 A 
ATOM      8  C   UNL     1      13.539  10.623  18.529  0.00  0.00    +0.145 C 
ATOM      9  C   UNL     1      12.181   9.534  21.021  0.00  0.00    +0.008 A 
ATOM     11  C   UNL     1      13.487  11.467  19.801  0.00  0.00    +0.065 C 
ATOM     12  C   UNL     1      12.617  10.896  20.870  0.00  0.00    -0.020 A 
ATOM     13  C   UNL     1      11.362   9.503  22.157  0.00  0.00    +0.050 A 
ATOM     15  C   UNL     1      12.085  11.617  21.920  0.00  0.00    +0.091 A 
ATOM     16  C   UNL     1      11.689   7.191  20.723  0.00  0.00    +0.006 A 
ATOM     18  C   UNL     1      10.713   8.353  22.605  0.00  0.00    +0.026 A 
ATOM     20  C   UNL     1      10.881   7.195  21.858  0.00  0.00    +0.002 A 
ATOM     31  H   UNL     1      14.874   9.403  19.508  0.00  0.00    +0.123 HD
ENDROOT
BRANCH   8  17
ATOM      1  O   UNL     1      15.424  11.915  17.841  0.00  0.00    -0.274 OA
ATOM      4  N   UNL     1      13.900  11.198  16.233  0.00  0.00    -0.312 N 
ATOM     17  C   UNL     1      14.404  11.313  17.518  0.00  0.00    +0.231 C 
ATOM     32  H   UNL     1      13.080  10.619  16.075  0.00  0.00    +0.149 HD
BRANCH   4  23
ATOM     23  C   UNL     1      14.535  11.794  15.079  0.00  0.00    +0.067 C 
ATOM     25  C   UNL     1      15.565  10.842  14.485  0.00  0.00    +0.027 C 
ATOM     26  C   UNL     1      13.488  12.190  14.045  0.00  0.00    +0.027 C 
ENDBRANCH   4  23
ENDBRANCH   8  17
BRANCH   6  10
ATOM     10  C   UNL     1      14.140   6.969  19.009  0.00  0.00    +0.026 C 
BRANCH  10  14
ATOM     14  C   UNL     1      15.491   7.189  19.697  0.00  0.00    -0.015 C 
ATOM     21  C   UNL     1      15.418   6.997  21.212  0.00  0.00    +0.007 C 
ATOM     22  C   UNL     1      16.522   6.226  19.103  0.00  0.00    +0.007 C 
ENDBRANCH  10  14
ENDBRANCH   6  10
BRANCH   3  19
ATOM     19  C   UNL     1      10.618  11.175  23.876  0.00  0.00    +0.177 C 
BRANCH  19  24
ATOM      5  N   UNL     1      12.506  11.821  25.273  0.00  0.00    -0.258 NA
ATOM     24  C   UNL     1      11.347  12.210  24.695  0.00  0.00    +0.061 A 
ATOM     27  C   UNL     1      10.810  13.482  24.814  0.00  0.00    +0.025 A 
ATOM     28  C   UNL     1      11.507  14.413  25.576  0.00  0.00    +0.003 A 
ATOM     29  C   UNL     1      13.155  12.753  26.005  0.00  0.00    +0.111 A 
ATOM     30  C   UNL     1      12.703  14.050  26.185  0.00  0.00    +0.020 A 
ENDBRANCH  19  24
ENDBRANCH   3  19
TORSDOF 6
ENDMDL
MODEL 3
REMARK VINA RESULT:      -6.8     28.014     30.770
REMARK  Name = 51138059
REMARK  10 active torsions:
REMARK  status: ('A' for Active; 'I' for Inactive)
REMARK    1  A    between atoms: N_3  and  C_19
REMARK    2  A    between atoms: N_4  and  C_23
REMARK    3  A    between atoms: C_6  and  C_10
REMARK    4  A    between atoms: C_8  and  C_17
REMARK    5  A    between atoms: C_10  and  C_14
REMARK    6  A    between atoms: C_14  and  C_21
REMARK    7  A    between atoms: C_14  and  C_22
REMARK    8  A    between atoms: C_19  and  C_24
REMARK    9  A    between atoms: C_23  and  C_25
REMARK   10  A    between atoms: C_23  and  C_26
REMARK                            x       y       z     vdW  Elec       q    Type
REMARK                         _______ _______ _______ _____ _____    ______ ____
ROOT
ATOM      2  N   UNL     1      -6.679 -10.915  16.699  0.00  0.00    -0.299 NA
ATOM      3  N   UNL     1      -3.619 -10.381  12.717  0.00  0.00    -0.341 N 
ATOM      6  C   UNL     1      -5.326 -10.775  17.253  0.00  0.00    +0.085 C 
ATOM      7  C   UNL     1      -4.182 -10.781  16.234  0.00  0.00    -0.021 A 
ATOM      8  C   UNL     1      -7.099  -9.821  15.835  0.00  0.00    +0.145 C 
ATOM      9  C   UNL     1      -4.330 -10.572  14.832  0.00  0.00    +0.008 A 
ATOM     11  C   UNL     1      -6.886 -10.155  14.360  0.00  0.00    +0.065 C 
ATOM     12  C   UNL     1      -5.452 -10.301  13.974  0.00  0.00    -0.020 A 
ATOM     13  C   UNL     1      -3.197 -10.589  14.009  0.00  0.00    +0.050 A 
ATOM     15  C   UNL     1      -4.970 -10.201  12.685  0.00  0.00    +0.091 A 
ATOM     16  C   UNL     1      -2.853 -10.928  16.706  0.00  0.00    +0.006 A 
ATOM     18  C   UNL     1      -1.902 -10.782  14.489  0.00  0.00    +0.026 A 
ATOM     20  C   UNL     1      -1.747 -10.939  15.860  0.00  0.00    +0.002 A 
ATOM     31  H   UNL     1      -6.791 -11.815  16.233  0.00  0.00    +0.123 HD
ENDROOT
BRANCH   8  17
ATOM      1  O   UNL     1      -9.217 -10.508  16.695  0.00  0.00    -0.274 OA
ATOM      4  N   UNL     1      -9.063  -8.478  15.565  0.00  0.00    -0.312 N 
ATOM     17  C   UNL     1      -8.567  -9.657  16.094  0.00  0.00    +0.231 C 
ATOM     32  H   UNL     1      -8.417  -7.816  15.143  0.00  0.00    +0.149 HD
BRANCH   4  23
ATOM     23  C   UNL     1     -10.453  -8.093  15.659  0.00  0.00    +0.067 C 
ATOM     25  C   UNL     1     -10.578  -6.592  15.881  0.00  0.00    +0.027 C 
ATOM     26  C   UNL     1     -11.208  -8.531  14.410  0.00  0.00    +0.027 C 
ENDBRANCH   4  23
ENDBRANCH   8  17
BRANCH   6  10
ATOM     10  C   UNL     1      -5.207 -11.914  18.281  0.00  0.00    +0.026 C 
BRANCH  10  14
ATOM     14  C   UNL     1      -5.933 -11.611  19.596  0.00  0.00    -0.015 C 
ATOM     21  C   UNL     1      -6.204 -10.119  19.787  0.00  0.00    +0.007 C 
ATOM     22  C   UNL     1      -7.253 -12.386  19.633  0.00  0.00    +0.007 C 
ENDBRANCH  10  14
ENDBRANCH   6  10
BRANCH   3  19
ATOM     19  C   UNL     1      -2.765 -10.335  11.549  0.00  0.00    +0.177 C 
BRANCH  19  24
ATOM      5  N   UNL     1      -3.797 -11.643   9.772  0.00  0.00    -0.258 NA
ATOM     24  C   UNL     1      -3.526 -10.407  10.249  0.00  0.00    +0.061 A 
ATOM     27  C   UNL     1      -3.905  -9.233   9.619  0.00  0.00    +0.025 A 
ATOM     28  C   UNL     1      -4.606  -9.334   8.422  0.00  0.00    +0.003 A 
ATOM     29  C   UNL     1      -4.480 -11.701   8.607  0.00  0.00    +0.111 A 
ATOM     30  C   UNL     1      -4.903 -10.587   7.900  0.00  0.00    +0.020 A 
ENDBRANCH  19  24
ENDBRANCH   3  19
TORSDOF 6
ENDMDL
MODEL 4
REMARK VINA RESULT:      -6.6     26.941     30.655
REMARK  Name = 51138059
REMARK  10 active torsions:
REMARK  status: ('A' for Active; 'I' for Inactive)
REMARK    1  A    between atoms: N_3  and  C_19
REMARK    2  A    between atoms: N_4  and  C_23
REMARK    3  A    between atoms: C_6  and  C_10
REMARK    4  A    between atoms: C_8  and  C_17
REMARK    5  A    between atoms: C_10  and  C_14
REMARK    6  A    between atoms: C_14  and  C_21
REMARK    7  A    between atoms: C_14  and  C_22
REMARK    8  A    between atoms: C_19  and  C_24
REMARK    9  A    between atoms: C_23  and  C_25
REMARK   10  A    between atoms: C_23  and  C_26
REMARK                            x       y       z     vdW  Elec       q    Type
REMARK                         _______ _______ _______ _____ _____    ______ ____
ROOT
ATOM      2  N   UNL     1      -4.647 -10.559  14.575  0.00  0.00    -0.299 NA
ATOM      3  N   UNL     1      -8.884  -9.662  17.173  0.00  0.00    -0.341 N 
ATOM      6  C   UNL     1      -4.447 -11.181  15.891  0.00  0.00    +0.085 C 
ATOM      7  C   UNL     1      -5.526 -10.892  16.939  0.00  0.00    -0.021 A 
ATOM      8  C   UNL     1      -5.828 -11.016  13.859  0.00  0.00    +0.145 C 
ATOM      9  C   UNL     1      -6.825 -10.378  16.659  0.00  0.00    +0.008 A 
ATOM     11  C   UNL     1      -7.007 -10.063  14.052  0.00  0.00    +0.065 C 
ATOM     12  C   UNL     1      -7.515 -10.006  15.453  0.00  0.00    -0.020 A 
ATOM     13  C   UNL     1      -7.726 -10.171  17.711  0.00  0.00    +0.050 A 
ATOM     15  C   UNL     1      -8.770  -9.563  15.817  0.00  0.00    +0.091 A 
ATOM     16  C   UNL     1      -5.264 -11.225  18.292  0.00  0.00    +0.006 A 
ATOM     18  C   UNL     1      -7.432 -10.462  19.043  0.00  0.00    +0.026 A 
ATOM     20  C   UNL     1      -6.184 -11.007  19.315  0.00  0.00    +0.002 A 
ATOM     31  H   UNL     1      -4.631  -9.542  14.647  0.00  0.00    +0.123 HD
ENDROOT
BRANCH   8  17
ATOM      1  O   UNL     1      -5.546 -12.027  11.716  0.00  0.00    -0.274 OA
ATOM      4  N   UNL     1      -4.928  -9.800  12.003  0.00  0.00    -0.312 N 
ATOM     17  C   UNL     1      -5.434 -11.023  12.413  0.00  0.00    +0.231 C 
ATOM     32  H   UNL     1      -4.943  -9.018  12.651  0.00  0.00    +0.149 HD
BRANCH   4  23
ATOM     23  C   UNL     1      -4.457  -9.551  10.659  0.00  0.00    +0.067 C 
ATOM     25  C   UNL     1      -4.994  -8.224  10.142  0.00  0.00    +0.027 C 
ATOM     26  C   UNL     1      -2.934  -9.585  10.619  0.00  0.00    +0.027 C 
ENDBRANCH   4  23
ENDBRANCH   8  17
BRANCH   6  10
ATOM     10  C   UNL     1      -3.050 -10.711  16.336  0.00  0.00    +0.026 C 
BRANCH  10  14
ATOM     14  C   UNL     1      -2.061 -10.589  15.173  0.00  0.00    -0.015 C 
ATOM     21  C   UNL     1      -0.761  -9.892  15.576  0.00  0.00    +0.007 C 
ATOM     22  C   UNL     1      -1.751 -11.986  14.627  0.00  0.00    +0.007 C 
ENDBRANCH  10  14
ENDBRANCH   6  10
BRANCH   3  19
ATOM     19  C   UNL     1     -10.069  -9.295  17.917  0.00  0.00    +0.177 C 
BRANCH  19  24
ATOM      5  N   UNL     1     -10.473  -7.073  17.007  0.00  0.00    -0.258 NA
ATOM     24  C   UNL     1     -10.959  -8.321  17.185  0.00  0.00    +0.061 A 
ATOM     27  C   UNL     1     -12.201  -8.742  16.739  0.00  0.00    +0.025 A 
ATOM     28  C   UNL     1     -12.996  -7.820  16.067  0.00  0.00    +0.003 A 
ATOM     29  C   UNL     1     -11.273  -6.204  16.349  0.00  0.00    +0.111 A 
ATOM     30  C   UNL     1     -12.531  -6.526  15.863  0.00  0.00    +0.020 A 
ENDBRANCH  19  24
ENDBRANCH   3  19
TORSDOF 6
ENDMDL
MODEL 5
REMARK VINA RESULT:      -6.4     28.564     31.523
REMARK  Name = 51138059
REMARK  10 active torsions:
REMARK  status: ('A' for Active; 'I' for Inactive)
REMARK    1  A    between atoms: N_3  and  C_19
REMARK    2  A    between atoms: N_4  and  C_23
REMARK    3  A    between atoms: C_6  and  C_10
REMARK    4  A    between atoms: C_8  and  C_17
REMARK    5  A    between atoms: C_10  and  C_14
REMARK    6  A    between atoms: C_14  and  C_21
REMARK    7  A    between atoms: C_14  and  C_22
REMARK    8  A    between atoms: C_19  and  C_24
REMARK    9  A    between atoms: C_23  and  C_25
REMARK   10  A    between atoms: C_23  and  C_26
REMARK                            x       y       z     vdW  Elec       q    Type
REMARK                         _______ _______ _______ _____ _____    ______ ____
ROOT
ATOM      2  N   UNL     1      -8.781 -10.343  18.042  0.00  0.00    -0.299 NA
ATOM      3  N   UNL     1      -4.143 -10.566  16.055  0.00  0.00    -0.341 N 
ATOM      6  C   UNL     1      -7.895 -10.748  19.142  0.00  0.00    +0.085 C 
ATOM      7  C   UNL     1      -6.448 -11.067  18.753  0.00  0.00    -0.021 A 
ATOM      8  C   UNL     1      -8.410  -9.095  17.391  0.00  0.00    +0.145 C 
ATOM      9  C   UNL     1      -5.825 -10.688  17.528  0.00  0.00    +0.008 A 
ATOM     11  C   UNL     1      -7.597  -9.344  16.121  0.00  0.00    +0.065 C 
ATOM     12  C   UNL     1      -6.259  -9.955  16.370  0.00  0.00    -0.020 A 
ATOM     13  C   UNL     1      -4.486 -11.032  17.302  0.00  0.00    +0.050 A 
ATOM     15  C   UNL     1      -5.199  -9.914  15.488  0.00  0.00    +0.091 A 
ATOM     16  C   UNL     1      -5.620 -11.723  19.699  0.00  0.00    +0.006 A 
ATOM     18  C   UNL     1      -3.702 -11.719  18.228  0.00  0.00    +0.026 A 
ATOM     20  C   UNL     1      -4.290 -12.048  19.442  0.00  0.00    +0.002 A 
ATOM     31  H   UNL     1      -8.885 -11.095  17.362  0.00  0.00    +0.123 HD
ENDROOT
BRANCH   8  17
ATOM      1  O   UNL     1     -10.733  -8.629  17.671  0.00  0.00    -0.274 OA
ATOM      4  N   UNL     1      -9.595  -7.658  15.887  0.00  0.00    -0.312 N 
ATOM     17  C   UNL     1      -9.708  -8.443  17.022  0.00  0.00    +0.231 C 
ATOM     32  H   UNL     1      -8.679  -7.525  15.468  0.00  0.00    +0.149 HD
BRANCH   4  23
ATOM     23  C   UNL     1     -10.709  -6.938  15.311  0.00  0.00    +0.067 C 
ATOM     25  C   UNL     1     -11.756  -7.908  14.781  0.00  0.00    +0.027 C 
ATOM     26  C   UNL     1     -11.308  -5.983  16.336  0.00  0.00    +0.027 C 
ENDBRANCH   4  23
ENDBRANCH   8  17
BRANCH   6  10
ATOM     10  C   UNL     1      -8.609 -11.946  19.795  0.00  0.00    +0.026 C 
BRANCH  10  14
ATOM     14  C   UNL     1      -9.386 -12.800  18.788  0.00  0.00    -0.015 C 
ATOM     21  C   UNL     1      -8.580 -14.000  18.289  0.00  0.00    +0.007 C 
ATOM     22  C   UNL     1     -10.686 -13.284  19.436  0.00  0.00    +0.007 C 
ENDBRANCH  10  14
ENDBRANCH   6  10
BRANCH   3  19
ATOM     19  C   UNL     1      -2.849 -10.719  15.424  0.00  0.00    +0.177 C 
BRANCH  19  24
ATOM      5  N   UNL     1      -3.520 -12.459  13.857  0.00  0.00    -0.258 NA
ATOM     24  C   UNL     1      -2.929 -11.253  14.016  0.00  0.00    +0.061 A 
ATOM     27  C   UNL     1      -2.408 -10.502  12.975  0.00  0.00    +0.025 A 
ATOM     28  C   UNL     1      -2.498 -11.022  11.689  0.00  0.00    +0.003 A 
ATOM     29  C   UNL     1      -3.590 -12.932  12.593  0.00  0.00    +0.111 A 
ATOM     30  C   UNL     1      -3.099 -12.259  11.485  0.00  0.00    +0.020 A 
ENDBRANCH  19  24
ENDBRANCH   3  19
TORSDOF 6
ENDMDL
MODEL 6
REMARK VINA RESULT:      -6.4     16.038     18.454
REMARK  Name = 51138059
REMARK  10 active torsions:
REMARK  status: ('A' for Active; 'I' for Inactive)
REMARK    1  A    between atoms: N_3  and  C_19
REMARK    2  A    between atoms: N_4  and  C_23
REMARK    3  A    between atoms: C_6  and  C_10
REMARK    4  A    between atoms: C_8  and  C_17
REMARK    5  A    between atoms: C_10  and  C_14
REMARK    6  A    between atoms: C_14  and  C_21
REMARK    7  A    between atoms: C_14  and  C_22
REMARK    8  A    between atoms: C_19  and  C_24
REMARK    9  A    between atoms: C_23  and  C_25
REMARK   10  A    between atoms: C_23  and  C_26
REMARK                            x       y       z     vdW  Elec       q    Type
REMARK                         _______ _______ _______ _____ _____    ______ ____
ROOT
ATOM      2  N   UNL     1      15.264   6.129   2.448  0.00  0.00    -0.299 NA
ATOM      3  N   UNL     1      10.643   6.439   4.462  0.00  0.00    -0.341 N 
ATOM      6  C   UNL     1      14.371   5.445   1.503  0.00  0.00    +0.085 C 
ATOM      7  C   UNL     1      12.928   5.240   1.975  0.00  0.00    -0.021 A 
ATOM      8  C   UNL     1      14.895   7.504   2.747  0.00  0.00    +0.145 C 
ATOM      9  C   UNL     1      12.313   5.930   3.060  0.00  0.00    +0.008 A 
ATOM     11  C   UNL     1      14.092   7.602   4.043  0.00  0.00    +0.065 C 
ATOM     12  C   UNL     1      12.755   6.945   3.977  0.00  0.00    -0.020 A 
ATOM     13  C   UNL     1      10.978   5.659   3.381  0.00  0.00    +0.050 A 
ATOM     15  C   UNL     1      11.701   7.219   4.825  0.00  0.00    +0.091 A 
ATOM     16  C   UNL     1      12.094   4.355   1.244  0.00  0.00    +0.006 A 
ATOM     18  C   UNL     1      10.188   4.749   2.677  0.00  0.00    +0.026 A 
ATOM     20  C   UNL     1      10.768   4.109   1.590  0.00  0.00    +0.002 A 
ATOM     31  H   UNL     1      15.377   5.584   3.302  0.00  0.00    +0.123 HD
ENDROOT
BRANCH   8  17
ATOM      1  O   UNL     1      16.679   8.911   2.017  0.00  0.00    -0.274 OA
ATOM      4  N   UNL     1      16.752   8.021   4.167  0.00  0.00    -0.312 N 
ATOM     17  C   UNL     1      16.194   8.232   2.918  0.00  0.00    +0.231 C 
ATOM     32  H   UNL     1      16.228   7.491   4.858  0.00  0.00    +0.149 HD
BRANCH   4  23
ATOM     23  C   UNL     1      18.015   8.593   4.576  0.00  0.00    +0.067 C 
ATOM     25  C   UNL     1      18.044   8.804   6.084  0.00  0.00    +0.027 C 
ATOM     26  C   UNL     1      19.168   7.709   4.120  0.00  0.00    +0.027 C 
ENDBRANCH   4  23
ENDBRANCH   8  17
BRANCH   6  10
ATOM     10  C   UNL     1      15.083   4.117   1.187  0.00  0.00    +0.026 C 
BRANCH  10  14
ATOM     14  C   UNL     1      15.567   4.029  -0.264  0.00  0.00    -0.015 C 
ATOM     21  C   UNL     1      14.416   4.051  -1.271  0.00  0.00    +0.007 C 
ATOM     22  C   UNL     1      16.524   5.190  -0.548  0.00  0.00    +0.007 C 
ENDBRANCH  10  14
ENDBRANCH   6  10
BRANCH   3  19
ATOM     19  C   UNL     1       9.355   6.458   5.121  0.00  0.00    +0.177 C 
BRANCH  19  24
ATOM      5  N   UNL     1       9.042   6.858   7.503  0.00  0.00    -0.258 NA
ATOM     24  C   UNL     1       9.406   5.973   6.548  0.00  0.00    +0.061 A 
ATOM     27  C   UNL     1       9.811   4.674   6.809  0.00  0.00    +0.025 A 
ATOM     28  C   UNL     1       9.847   4.258   8.135  0.00  0.00    +0.003 A 
ATOM     29  C   UNL     1       9.088   6.418   8.780  0.00  0.00    +0.111 A 
ATOM     30  C   UNL     1       9.479   5.139   9.145  0.00  0.00    +0.020 A 
ENDBRANCH  19  24
ENDBRANCH   3  19
TORSDOF 6
ENDMDL
MODEL 7
REMARK VINA RESULT:      -6.3     33.391     35.111
REMARK  Name = 51138059
REMARK  10 active torsions:
REMARK  status: ('A' for Active; 'I' for Inactive)
REMARK    1  A    between atoms: N_3  and  C_19
REMARK    2  A    between atoms: N_4  and  C_23
REMARK    3  A    between atoms: C_6  and  C_10
REMARK    4  A    between atoms: C_8  and  C_17
REMARK    5  A    between atoms: C_10  and  C_14
REMARK    6  A    between atoms: C_14  and  C_21
REMARK    7  A    between atoms: C_14  and  C_22
REMARK    8  A    between atoms: C_19  and  C_24
REMARK    9  A    between atoms: C_23  and  C_25
REMARK   10  A    between atoms: C_23  and  C_26
REMARK                            x       y       z     vdW  Elec       q    Type
REMARK                         _______ _______ _______ _____ _____    ______ ____
ROOT
ATOM      2  N   UNL     1       1.440 -13.476  -1.437  0.00  0.00    -0.299 NA
ATOM      3  N   UNL     1      -1.986 -14.950   1.968  0.00  0.00    -0.341 N 
ATOM      6  C   UNL     1       2.146 -14.395  -0.534  0.00  0.00    +0.085 C 
ATOM      7  C   UNL     1       1.367 -14.845   0.706  0.00  0.00    -0.021 A 
ATOM      8  C   UNL     1       0.254 -14.036  -2.069  0.00  0.00    +0.145 C 
ATOM      9  C   UNL     1      -0.044 -14.730   0.875  0.00  0.00    +0.008 A 
ATOM     11  C   UNL     1      -1.019 -13.649  -1.318  0.00  0.00    +0.065 C 
ATOM     12  C   UNL     1      -1.112 -14.231   0.053  0.00  0.00    -0.020 A 
ATOM     13  C   UNL     1      -0.636 -15.194   2.056  0.00  0.00    +0.050 A 
ATOM     15  C   UNL     1      -2.284 -14.377   0.767  0.00  0.00    +0.091 A 
ATOM     16  C   UNL     1       2.070 -15.500   1.749  0.00  0.00    +0.006 A 
ATOM     18  C   UNL     1       0.081 -15.793   3.092  0.00  0.00    +0.026 A 
ATOM     20  C   UNL     1       1.449 -15.951   2.911  0.00  0.00    +0.002 A 
ATOM     31  H   UNL     1       1.227 -12.597  -0.968  0.00  0.00    +0.123 HD
ENDROOT
BRANCH   8  17
ATOM      1  O   UNL     1      -0.548 -13.843  -4.308  0.00  0.00    -0.274 OA
ATOM      4  N   UNL     1       1.140 -12.411  -3.588  0.00  0.00    -0.312 N 
ATOM     17  C   UNL     1       0.217 -13.432  -3.440  0.00  0.00    +0.231 C 
ATOM     32  H   UNL     1       1.678 -12.111  -2.779  0.00  0.00    +0.149 HD
BRANCH   4  23
ATOM     23  C   UNL     1       1.320 -11.680  -4.822  0.00  0.00    +0.067 C 
ATOM     25  C   UNL     1       1.756 -10.249  -4.538  0.00  0.00    +0.027 C 
ATOM     26  C   UNL     1       2.323 -12.395  -5.719  0.00  0.00    +0.027 C 
ENDBRANCH   4  23
ENDBRANCH   8  17
BRANCH   6  10
ATOM     10  C   UNL     1       3.452 -13.663  -0.177  0.00  0.00    +0.026 C 
BRANCH  10  14
ATOM     14  C   UNL     1       4.700 -14.365  -0.723  0.00  0.00    -0.015 C 
ATOM     21  C   UNL     1       5.439 -15.168   0.348  0.00  0.00    +0.007 C 
ATOM     22  C   UNL     1       4.295 -15.290  -1.874  0.00  0.00    +0.007 C 
ENDBRANCH  10  14
ENDBRANCH   6  10
BRANCH   3  19
ATOM     19  C   UNL     1      -2.968 -15.266   2.983  0.00  0.00    +0.177 C 
BRANCH  19  24
ATOM      5  N   UNL     1      -4.803 -13.703   3.331  0.00  0.00    -0.258 NA
ATOM     24  C   UNL     1      -3.539 -14.047   3.664  0.00  0.00    +0.061 A 
ATOM     27  C   UNL     1      -2.761 -13.354   4.577  0.00  0.00    +0.025 A 
ATOM     28  C   UNL     1      -3.317 -12.235   5.187  0.00  0.00    +0.003 A 
ATOM     29  C   UNL     1      -5.310 -12.611   3.944  0.00  0.00    +0.111 A 
ATOM     30  C   UNL     1      -4.615 -11.850   4.871  0.00  0.00    +0.020 A 
ENDBRANCH  19  24
ENDBRANCH   3  19
TORSDOF 6
ENDMDL
MODEL 8
REMARK VINA RESULT:      -6.3     17.801     20.415
REMARK  Name = 51138059
REMARK  10 active torsions:
REMARK  status: ('A' for Active; 'I' for Inactive)
REMARK    1  A    between atoms: N_3  and  C_19
REMARK    2  A    between atoms: N_4  and  C_23
REMARK    3  A    between atoms: C_6  and  C_10
REMARK    4  A    between atoms: C_8  and  C_17
REMARK    5  A    between atoms: C_10  and  C_14
REMARK    6  A    between atoms: C_14  and  C_21
REMARK    7  A    between atoms: C_14  and  C_22
REMARK    8  A    between atoms: C_19  and  C_24
REMARK    9  A    between atoms: C_23  and  C_25
REMARK   10  A    between atoms: C_23  and  C_26
REMARK                            x       y       z     vdW  Elec       q    Type
REMARK                         _______ _______ _______ _____ _____    ______ ____
ROOT
ATOM      2  N   UNL     1      11.195   5.517   3.966  0.00  0.00    -0.299 NA
ATOM      3  N   UNL     1       8.536   9.033   1.501  0.00  0.00    -0.341 N 
ATOM      6  C   UNL     1      10.154   5.960   4.904  0.00  0.00    +0.085 C 
ATOM      7  C   UNL     1       9.319   7.164   4.457  0.00  0.00    -0.021 A 
ATOM      8  C   UNL     1      10.695   5.023   2.691  0.00  0.00    +0.145 C 
ATOM      9  C   UNL     1       9.236   7.655   3.122  0.00  0.00    +0.008 A 
ATOM     11  C   UNL     1      10.737   6.105   1.614  0.00  0.00    +0.065 C 
ATOM     12  C   UNL     1       9.814   7.249   1.869  0.00  0.00    -0.020 A 
ATOM     13  C   UNL     1       8.422   8.760   2.844  0.00  0.00    +0.050 A 
ATOM     15  C   UNL     1       9.365   8.128   0.905  0.00  0.00    +0.091 A 
ATOM     16  C   UNL     1       8.496   7.811   5.413  0.00  0.00    +0.006 A 
ATOM     18  C   UNL     1       7.656   9.412   3.809  0.00  0.00    +0.026 A 
ATOM     20  C   UNL     1       7.696   8.908   5.103  0.00  0.00    +0.002 A 
ATOM     31  H   UNL     1      11.895   6.244   3.829  0.00  0.00    +0.123 HD
ENDROOT
BRANCH   8  17
ATOM      1  O   UNL     1      11.502   2.779   2.763  0.00  0.00    -0.274 OA
ATOM      4  N   UNL     1      12.607   4.333   1.427  0.00  0.00    -0.312 N 
ATOM     17  C   UNL     1      11.625   3.912   2.308  0.00  0.00    +0.231 C 
ATOM     32  H   UNL     1      12.572   5.282   1.066  0.00  0.00    +0.149 HD
BRANCH   4  23
ATOM     23  C   UNL     1      13.641   3.458   0.921  0.00  0.00    +0.067 C 
ATOM     25  C   UNL     1      13.881   3.717  -0.561  0.00  0.00    +0.027 C 
ATOM     26  C   UNL     1      14.922   3.633   1.727  0.00  0.00    +0.027 C 
ENDBRANCH   4  23
ENDBRANCH   8  17
BRANCH   6  10
ATOM     10  C   UNL     1      10.904   6.217   6.223  0.00  0.00    +0.026 C 
BRANCH  10  14
ATOM     14  C   UNL     1      10.416   5.329   7.372  0.00  0.00    -0.015 C 
ATOM     21  C   UNL     1       9.504   6.075   8.346  0.00  0.00    +0.007 C 
ATOM     22  C   UNL     1       9.675   4.120   6.795  0.00  0.00    +0.007 C 
ENDBRANCH  10  14
ENDBRANCH   6  10
BRANCH   3  19
ATOM     19  C   UNL     1       7.866  10.106   0.799  0.00  0.00    +0.177 C 
BRANCH  19  24
ATOM      5  N   UNL     1       6.860   9.415  -1.308  0.00  0.00    -0.258 NA
ATOM     24  C   UNL     1       6.666   9.647   0.009  0.00  0.00    +0.061 A 
ATOM     27  C   UNL     1       5.450   9.487   0.654  0.00  0.00    +0.025 A 
ATOM     28  C   UNL     1       4.364   9.062  -0.103  0.00  0.00    +0.003 A 
ATOM     29  C   UNL     1       5.782   9.003  -2.012  0.00  0.00    +0.111 A 
ATOM     30  C   UNL     1       4.524   8.813  -1.461  0.00  0.00    +0.020 A 
ENDBRANCH  19  24
ENDBRANCH   3  19
TORSDOF 6
ENDMDL
MODEL 9
REMARK VINA RESULT:      -6.2     26.172     29.576
REMARK  Name = 51138059
REMARK  10 active torsions:
REMARK  status: ('A' for Active; 'I' for Inactive)
REMARK    1  A    between atoms: N_3  and  C_19
REMARK    2  A    between atoms: N_4  and  C_23
REMARK    3  A    between atoms: C_6  and  C_10
REMARK    4  A    between atoms: C_8  and  C_17
REMARK    5  A    between atoms: C_10  and  C_14
REMARK    6  A    between atoms: C_14  and  C_21
REMARK    7  A    between atoms: C_14  and  C_22
REMARK    8  A    between atoms: C_19  and  C_24
REMARK    9  A    between atoms: C_23  and  C_25
REMARK   10  A    between atoms: C_23  and  C_26
REMARK                            x       y       z     vdW  Elec       q    Type
REMARK                         _______ _______ _______ _____ _____    ______ ____
ROOT
ATOM      2  N   UNL     1     -12.876   9.161  21.569  0.00  0.00    -0.299 NA
ATOM      3  N   UNL     1     -11.226  12.183  17.875  0.00  0.00    -0.341 N 
ATOM      6  C   UNL     1     -11.971   8.338  20.755  0.00  0.00    +0.085 C 
ATOM      7  C   UNL     1     -11.474   8.976  19.454  0.00  0.00    -0.021 A 
ATOM      8  C   UNL     1     -12.282  10.382  22.093  0.00  0.00    +0.145 C 
ATOM      9  C   UNL     1     -11.534  10.366  19.146  0.00  0.00    +0.008 A 
ATOM     11  C   UNL     1     -12.609  11.588  21.215  0.00  0.00    +0.065 C 
ATOM     12  C   UNL     1     -12.005  11.527  19.853  0.00  0.00    -0.020 A 
ATOM     13  C   UNL     1     -11.031  10.823  17.922  0.00  0.00    +0.050 A 
ATOM     15  C   UNL     1     -11.805  12.617  19.031  0.00  0.00    +0.091 A 
ATOM     16  C   UNL     1     -10.832   8.151  18.496  0.00  0.00    +0.006 A 
ATOM     18  C   UNL     1     -10.444   9.987  16.972  0.00  0.00    +0.026 A 
ATOM     20  C   UNL     1     -10.340   8.639  17.287  0.00  0.00    +0.002 A 
ATOM     31  H   UNL     1     -13.740   9.359  21.066  0.00  0.00    +0.123 HD
ENDROOT
BRANCH   8  17
ATOM      1  O   UNL     1     -14.117  10.495  23.614  0.00  0.00    -0.274 OA
ATOM      4  N   UNL     1     -11.962  10.862  24.417  0.00  0.00    -0.312 N 
ATOM     17  C   UNL     1     -12.903  10.574  23.443  0.00  0.00    +0.231 C 
ATOM     32  H   UNL     1     -10.976  10.837  24.172  0.00  0.00    +0.149 HD
BRANCH   4  23
ATOM     23  C   UNL     1     -12.305  11.112  25.798  0.00  0.00    +0.067 C 
ATOM     25  C   UNL     1     -11.241  10.542  26.726  0.00  0.00    +0.027 C 
ATOM     26  C   UNL     1     -12.500  12.605  26.033  0.00  0.00    +0.027 C 
ENDBRANCH   4  23
ENDBRANCH   8  17
BRANCH   6  10
ATOM     10  C   UNL     1     -12.746   7.030  20.514  0.00  0.00    +0.026 C 
BRANCH  10  14
ATOM     14  C   UNL     1     -14.087   6.984  21.253  0.00  0.00    -0.015 C 
ATOM     21  C   UNL     1     -15.280   6.885  20.302  0.00  0.00    +0.007 C 
ATOM     22  C   UNL     1     -14.092   5.792  22.215  0.00  0.00    +0.007 C 
ENDBRANCH  10  14
ENDBRANCH   6  10
BRANCH   3  19
ATOM     19  C   UNL     1     -10.858  13.049  16.775  0.00  0.00    +0.177 C 
BRANCH  19  24
ATOM      5  N   UNL     1      -9.476  14.914  17.511  0.00  0.00    -0.258 NA
ATOM     24  C   UNL     1      -9.502  13.688  16.943  0.00  0.00    +0.061 A 
ATOM     27  C   UNL     1      -8.374  13.004  16.520  0.00  0.00    +0.025 A 
ATOM     28  C   UNL     1      -7.139  13.620  16.690  0.00  0.00    +0.003 A 
ATOM     29  C   UNL     1      -8.257  15.481  17.660  0.00  0.00    +0.111 A 
ATOM     30  C   UNL     1      -7.071  14.881  17.270  0.00  0.00    +0.020 A 
ENDBRANCH  19  24
ENDBRANCH   3  19
TORSDOF 6
ENDMDL
MODEL 10
REMARK VINA RESULT:      -6.2     17.332     19.992
REMARK  Name = 51138059
REMARK  10 active torsions:
REMARK  status: ('A' for Active; 'I' for Inactive)
REMARK    1  A    between atoms: N_3  and  C_19
REMARK    2  A    between atoms: N_4  and  C_23
REMARK    3  A    between atoms: C_6  and  C_10
REMARK    4  A    between atoms: C_8  and  C_17
REMARK    5  A    between atoms: C_10  and  C_14
REMARK    6  A    between atoms: C_14  and  C_21
REMARK    7  A    between atoms: C_14  and  C_22
REMARK    8  A    between atoms: C_19  and  C_24
REMARK    9  A    between atoms: C_23  and  C_25
REMARK   10  A    between atoms: C_23  and  C_26
REMARK                            x       y       z     vdW  Elec       q    Type
REMARK                         _______ _______ _______ _____ _____    ______ ____
ROOT
ATOM      2  N   UNL     1      12.103   6.249   4.931  0.00  0.00    -0.299 NA
ATOM      3  N   UNL     1      13.032   4.288   0.371  0.00  0.00    -0.341 N 
ATOM      6  C   UNL     1      12.952   7.230   4.241  0.00  0.00    +0.085 C 
ATOM      7  C   UNL     1      13.528   6.786   2.893  0.00  0.00    -0.021 A 
ATOM      8  C   UNL     1      10.875   5.907   4.229  0.00  0.00    +0.145 C 
ATOM      9  C   UNL     1      13.055   5.685   2.121  0.00  0.00    +0.008 A 
ATOM     11  C   UNL     1      11.030   4.619   3.422  0.00  0.00    +0.065 C 
ATOM     12  C   UNL     1      11.997   4.726   2.291  0.00  0.00    -0.020 A 
ATOM     13  C   UNL     1      13.663   5.392   0.895  0.00  0.00    +0.050 A 
ATOM     15  C   UNL     1      12.027   3.883   1.199  0.00  0.00    +0.091 A 
ATOM     16  C   UNL     1      14.564   7.558   2.310  0.00  0.00    +0.006 A 
ATOM     18  C   UNL     1      14.713   6.138   0.360  0.00  0.00    +0.026 A 
ATOM     20  C   UNL     1      15.147   7.239   1.086  0.00  0.00    +0.002 A 
ATOM     31  H   UNL     1      12.634   5.414   5.173  0.00  0.00    +0.123 HD
ENDROOT
BRANCH   8  17
ATOM      1  O   UNL     1       8.911   4.919   5.156  0.00  0.00    -0.274 OA
ATOM      4  N   UNL     1      10.099   6.471   6.422  0.00  0.00    -0.312 N 
ATOM     17  C   UNL     1       9.853   5.693   5.304  0.00  0.00    +0.231 C 
ATOM     32  H   UNL     1      10.948   7.029   6.458  0.00  0.00    +0.149 HD
BRANCH   4  23
ATOM     23  C   UNL     1       9.248   6.466   7.590  0.00  0.00    +0.067 C 
ATOM     25  C   UNL     1       9.876   5.642   8.706  0.00  0.00    +0.027 C 
ATOM     26  C   UNL     1       8.970   7.893   8.048  0.00  0.00    +0.027 C 
ENDBRANCH   4  23
ENDBRANCH   8  17
BRANCH   6  10
ATOM     10  C   UNL     1      14.047   7.584   5.264  0.00  0.00    +0.026 C 
BRANCH  10  14
ATOM     14  C   UNL     1      13.912   9.007   5.816  0.00  0.00    -0.015 C 
ATOM     21  C   UNL     1      12.948   9.089   7.001  0.00  0.00    +0.007 C 
ATOM     22  C   UNL     1      15.293   9.517   6.237  0.00  0.00    +0.007 C 
ENDBRANCH  10  14
ENDBRANCH   6  10
BRANCH   3  19
ATOM     19  C   UNL     1      13.360   3.646  -0.884  0.00  0.00    +0.177 C 
BRANCH  19  24
ATOM      5  N   UNL     1      11.582   4.666  -2.199  0.00  0.00    -0.258 NA
ATOM     24  C   UNL     1      12.181   3.517  -1.816  0.00  0.00    +0.061 A 
ATOM     27  C   UNL     1      11.777   2.257  -2.227  0.00  0.00    +0.025 A 
ATOM     28  C   UNL     1      10.687   2.172  -3.086  0.00  0.00    +0.003 A 
ATOM     29  C   UNL     1      10.527   4.544  -3.035  0.00  0.00    +0.111 A 
ATOM     30  C   UNL     1      10.045   3.332  -3.503  0.00  0.00    +0.020 A 
ENDBRANCH  19  24
ENDBRANCH   3  19
TORSDOF 6
ENDMDL
