MODEL 1
REMARK VINA RESULT:      -6.3      0.000      0.000
REMARK  Name = 56775116
REMARK  8 active torsions:
REMARK  status: ('A' for Active; 'I' for Inactive)
REMARK    1  A    between atoms: O_3  and  C_15
REMARK    2  A    between atoms: O_3  and  C_20
REMARK    3  A    between atoms: N_4  and  C_10
REMARK    4  A    between atoms: N_5  and  C_13
REMARK    5  A    between atoms: C_10  and  C_14
REMARK    6  A    between atoms: C_13  and  C_15
REMARK    7  A    between atoms: C_14  and  C_16
REMARK    8  A    between atoms: C_16  and  C_17
REMARK                            x       y       z     vdW  Elec       q    Type
REMARK                         _______ _______ _______ _____ _____    ______ ____
ROOT
ATOM      1  O   UNL     1      14.140   7.688  21.922  0.00  0.00    -0.364 OA
ATOM      2  O   UNL     1      10.979   7.329  20.406  0.00  0.00    -0.273 OA
ATOM      4  N   UNL     1      16.623   7.372  19.780  0.00  0.00    -0.298 NA
ATOM      5  N   UNL     1      13.021   7.835  19.409  0.00  0.00    -0.291 N 
ATOM      6  C   UNL     1      14.445   8.114  19.566  0.00  0.00    +0.120 C 
ATOM      7  C   UNL     1      14.880   8.467  20.985  0.00  0.00    +0.154 C 
ATOM      8  C   UNL     1      15.340   6.920  19.245  0.00  0.00    +0.109 C 
ATOM      9  C   UNL     1      16.346   8.026  21.066  0.00  0.00    +0.118 C 
ATOM     11  C   UNL     1      12.164   7.657  20.492  0.00  0.00    +0.242 C 
ATOM     12  C   UNL     1      12.764   7.979  21.843  0.00  0.00    +0.256 C 
ENDROOT
BRANCH   4  10
ATOM     10  C   UNL     1      17.596   6.297  19.891  0.00  0.00    +0.085 C 
BRANCH  10  14
ATOM     14  C   UNL     1      18.494   6.518  21.108  0.00  0.00    +0.020 C 
BRANCH  14  16
ATOM     16  C   UNL     1      19.963   6.646  20.693  0.00  0.00    +0.036 C 
BRANCH  16  17
ATOM     17  C   UNL     1      20.811   5.561  21.305  0.00  0.00    -0.047 A 
ATOM     18  C   UNL     1      20.936   4.328  20.664  0.00  0.00    +0.003 A 
ATOM     19  C   UNL     1      21.469   5.790  22.513  0.00  0.00    +0.003 A 
ATOM     21  C   UNL     1      21.720   3.324  21.232  0.00  0.00    +0.000 A 
ATOM     22  C   UNL     1      22.254   4.785  23.080  0.00  0.00    +0.000 A 
ATOM     23  C   UNL     1      22.379   3.553  22.440  0.00  0.00    +0.000 A 
ENDBRANCH  16  17
ENDBRANCH  14  16
ENDBRANCH  10  14
ENDBRANCH   4  10
BRANCH   5  13
ATOM     13  C   UNL     1      12.529   7.647  18.050  0.00  0.00    +0.136 C 
BRANCH  13  15
ATOM     15  C   UNL     1      12.716   8.898  17.212  0.00  0.00    +0.178 C 
BRANCH  15   3
ATOM      3  O   UNL     1      11.890   8.821  16.057  0.00  0.00    -0.381 OA
ATOM     20  C   UNL     1      10.528   8.616  16.404  0.00  0.00    +0.194 C 
ENDBRANCH  15   3
ENDBRANCH  13  15
ENDBRANCH   5  13
TORSDOF 7
ENDMDL
MODEL 2
REMARK VINA RESULT:      -5.8     27.142     28.837
REMARK  Name = 56775116
REMARK  8 active torsions:
REMARK  status: ('A' for Active; 'I' for Inactive)
REMARK    1  A    between atoms: O_3  and  C_15
REMARK    2  A    between atoms: O_3  and  C_20
REMARK    3  A    between atoms: N_4  and  C_10
REMARK    4  A    between atoms: N_5  and  C_13
REMARK    5  A    between atoms: C_10  and  C_14
REMARK    6  A    between atoms: C_13  and  C_15
REMARK    7  A    between atoms: C_14  and  C_16
REMARK    8  A    between atoms: C_16  and  C_17
REMARK                            x       y       z     vdW  Elec       q    Type
REMARK                         _______ _______ _______ _____ _____    ______ ____
ROOT
ATOM      1  O   UNL     1      -6.302 -10.813  14.644  0.00  0.00    -0.364 OA
ATOM      2  O   UNL     1      -7.595  -9.135  17.460  0.00  0.00    -0.273 OA
ATOM      4  N   UNL     1      -3.316 -12.096  15.185  0.00  0.00    -0.298 NA
ATOM      5  N   UNL     1      -5.906 -10.734  17.368  0.00  0.00    -0.291 N 
ATOM      6  C   UNL     1      -5.118 -11.665  16.566  0.00  0.00    +0.120 C 
ATOM      7  C   UNL     1      -5.699 -11.982  15.191  0.00  0.00    +0.154 C 
ATOM      8  C   UNL     1      -3.729 -11.142  16.213  0.00  0.00    +0.109 C 
ATOM      9  C   UNL     1      -4.484 -12.331  14.325  0.00  0.00    +0.118 C 
ATOM     11  C   UNL     1      -6.965  -9.998  16.845  0.00  0.00    +0.242 C 
ATOM     12  C   UNL     1      -7.380 -10.381  15.442  0.00  0.00    +0.256 C 
ENDROOT
BRANCH   4  10
ATOM     10  C   UNL     1      -2.147 -11.652  14.442  0.00  0.00    +0.085 C 
BRANCH  10  14
ATOM     14  C   UNL     1      -2.515 -10.488  13.521  0.00  0.00    +0.020 C 
BRANCH  14  16
ATOM     16  C   UNL     1      -1.815 -10.616  12.166  0.00  0.00    +0.036 C 
BRANCH  16  17
ATOM     17  C   UNL     1      -2.786 -10.471  11.021  0.00  0.00    -0.047 A 
ATOM     18  C   UNL     1      -2.962  -9.229  10.409  0.00  0.00    +0.003 A 
ATOM     19  C   UNL     1      -3.508 -11.577  10.577  0.00  0.00    +0.003 A 
ATOM     21  C   UNL     1      -3.861  -9.095   9.352  0.00  0.00    +0.000 A 
ATOM     22  C   UNL     1      -4.407 -11.443   9.518  0.00  0.00    +0.000 A 
ATOM     23  C   UNL     1      -4.584 -10.202   8.906  0.00  0.00    +0.000 A 
ENDBRANCH  16  17
ENDBRANCH  14  16
ENDBRANCH  10  14
ENDBRANCH   4  10
BRANCH   5  13
ATOM     13  C   UNL     1      -5.478 -10.521  18.745  0.00  0.00    +0.136 C 
BRANCH  13  15
ATOM     15  C   UNL     1      -5.890 -11.674  19.642  0.00  0.00    +0.178 C 
BRANCH  15   3
ATOM      3  O   UNL     1      -7.221 -11.466  20.096  0.00  0.00    -0.381 OA
ATOM     20  C   UNL     1      -8.072 -12.541  19.724  0.00  0.00    +0.194 C 
ENDBRANCH  15   3
ENDBRANCH  13  15
ENDBRANCH   5  13
TORSDOF 7
ENDMDL
MODEL 3
REMARK VINA RESULT:      -5.8      2.298      3.982
REMARK  Name = 56775116
REMARK  8 active torsions:
REMARK  status: ('A' for Active; 'I' for Inactive)
REMARK    1  A    between atoms: O_3  and  C_15
REMARK    2  A    between atoms: O_3  and  C_20
REMARK    3  A    between atoms: N_4  and  C_10
REMARK    4  A    between atoms: N_5  and  C_13
REMARK    5  A    between atoms: C_10  and  C_14
REMARK    6  A    between atoms: C_13  and  C_15
REMARK    7  A    between atoms: C_14  and  C_16
REMARK    8  A    between atoms: C_16  and  C_17
REMARK                            x       y       z     vdW  Elec       q    Type
REMARK                         _______ _______ _______ _____ _____    ______ ____
ROOT
ATOM      1  O   UNL     1      13.847  10.651  19.588  0.00  0.00    -0.364 OA
ATOM      2  O   UNL     1      11.520  10.583  22.234  0.00  0.00    -0.273 OA
ATOM      4  N   UNL     1      13.855   7.866  17.828  0.00  0.00    -0.298 NA
ATOM      5  N   UNL     1      11.580   9.265  20.316  0.00  0.00    -0.291 N 
ATOM      6  C   UNL     1      12.218   8.957  19.040  0.00  0.00    +0.120 C 
ATOM      7  C   UNL     1      13.148  10.041  18.505  0.00  0.00    +0.154 C 
ATOM      8  C   UNL     1      13.142   7.743  19.098  0.00  0.00    +0.109 C 
ATOM      9  C   UNL     1      14.175   9.289  17.652  0.00  0.00    +0.118 C 
ATOM     11  C   UNL     1      11.967  10.341  21.111  0.00  0.00    +0.242 C 
ATOM     12  C   UNL     1      12.952  11.292  20.468  0.00  0.00    +0.256 C 
ENDROOT
BRANCH   4  10
ATOM     10  C   UNL     1      15.029   7.010  17.757  0.00  0.00    +0.085 C 
BRANCH  10  14
ATOM     14  C   UNL     1      15.633   6.823  19.149  0.00  0.00    +0.020 C 
BRANCH  14  16
ATOM     16  C   UNL     1      16.911   5.982  19.086  0.00  0.00    +0.036 C 
BRANCH  16  17
ATOM     17  C   UNL     1      17.935   6.450  20.088  0.00  0.00    -0.047 A 
ATOM     18  C   UNL     1      17.721   7.626  20.808  0.00  0.00    +0.003 A 
ATOM     19  C   UNL     1      19.098   5.708  20.294  0.00  0.00    +0.003 A 
ATOM     21  C   UNL     1      18.670   8.059  21.734  0.00  0.00    +0.000 A 
ATOM     22  C   UNL     1      20.046   6.140  21.222  0.00  0.00    +0.000 A 
ATOM     23  C   UNL     1      19.832   7.316  21.941  0.00  0.00    +0.000 A 
ENDBRANCH  16  17
ENDBRANCH  14  16
ENDBRANCH  10  14
ENDBRANCH   4  10
BRANCH   5  13
ATOM     13  C   UNL     1      10.565   8.334  20.791  0.00  0.00    +0.136 C 
BRANCH  13  15
ATOM     15  C   UNL     1      10.965   7.696  22.109  0.00  0.00    +0.178 C 
BRANCH  15   3
ATOM      3  O   UNL     1      11.805   6.577  21.856  0.00  0.00    -0.381 OA
ATOM     20  C   UNL     1      11.044   5.406  21.590  0.00  0.00    +0.194 C 
ENDBRANCH  15   3
ENDBRANCH  13  15
ENDBRANCH   5  13
TORSDOF 7
ENDMDL
MODEL 4
REMARK VINA RESULT:      -5.6     13.873     17.951
REMARK  Name = 56775116
REMARK  8 active torsions:
REMARK  status: ('A' for Active; 'I' for Inactive)
REMARK    1  A    between atoms: O_3  and  C_15
REMARK    2  A    between atoms: O_3  and  C_20
REMARK    3  A    between atoms: N_4  and  C_10
REMARK    4  A    between atoms: N_5  and  C_13
REMARK    5  A    between atoms: C_10  and  C_14
REMARK    6  A    between atoms: C_13  and  C_15
REMARK    7  A    between atoms: C_14  and  C_16
REMARK    8  A    between atoms: C_16  and  C_17
REMARK                            x       y       z     vdW  Elec       q    Type
REMARK                         _______ _______ _______ _____ _____    ______ ____
ROOT
ATOM      1  O   UNL     1      11.308   8.199   3.955  0.00  0.00    -0.364 OA
ATOM      2  O   UNL     1      12.752   8.525   7.153  0.00  0.00    -0.273 OA
ATOM      4  N   UNL     1      10.053   5.200   3.423  0.00  0.00    -0.298 NA
ATOM      5  N   UNL     1      11.200   6.957   6.411  0.00  0.00    -0.291 N 
ATOM      6  C   UNL     1      10.345   6.468   5.333  0.00  0.00    +0.120 C 
ATOM      7  C   UNL     1      10.115   7.457   4.194  0.00  0.00    +0.154 C 
ATOM      8  C   UNL     1      10.923   5.262   4.597  0.00  0.00    +0.109 C 
ATOM      9  C   UNL     1       9.856   6.581   2.963  0.00  0.00    +0.118 C 
ATOM     11  C   UNL     1      11.949   8.126   6.307  0.00  0.00    +0.242 C 
ATOM     12  C   UNL     1      11.658   8.967   5.083  0.00  0.00    +0.256 C 
ENDROOT
BRANCH   4  10
ATOM     10  C   UNL     1      10.574   4.327   2.383  0.00  0.00    +0.085 C 
BRANCH  10  14
ATOM     14  C   UNL     1      12.091   4.481   2.272  0.00  0.00    +0.020 C 
BRANCH  14  16
ATOM     16  C   UNL     1      12.725   3.242   1.633  0.00  0.00    +0.036 C 
BRANCH  16  17
ATOM     17  C   UNL     1      13.768   3.616   0.610  0.00  0.00    -0.047 A 
ATOM     18  C   UNL     1      13.402   3.799  -0.724  0.00  0.00    +0.003 A 
ATOM     19  C   UNL     1      15.097   3.777   0.998  0.00  0.00    +0.003 A 
ATOM     21  C   UNL     1      14.367   4.143  -1.670  0.00  0.00    +0.000 A 
ATOM     22  C   UNL     1      16.062   4.123   0.051  0.00  0.00    +0.000 A 
ATOM     23  C   UNL     1      15.697   4.305  -1.282  0.00  0.00    +0.000 A 
ENDBRANCH  16  17
ENDBRANCH  14  16
ENDBRANCH  10  14
ENDBRANCH   4  10
BRANCH   5  13
ATOM     13  C   UNL     1      11.323   6.113   7.592  0.00  0.00    +0.136 C 
BRANCH  13  15
ATOM     15  C   UNL     1       9.966   5.786   8.188  0.00  0.00    +0.178 C 
BRANCH  15   3
ATOM      3  O   UNL     1      10.047   4.558   8.900  0.00  0.00    -0.381 OA
ATOM     20  C   UNL     1       9.189   4.556  10.033  0.00  0.00    +0.194 C 
ENDBRANCH  15   3
ENDBRANCH  13  15
ENDBRANCH   5  13
TORSDOF 7
ENDMDL
MODEL 5
REMARK VINA RESULT:      -5.6     14.212     17.454
REMARK  Name = 56775116
REMARK  8 active torsions:
REMARK  status: ('A' for Active; 'I' for Inactive)
REMARK    1  A    between atoms: O_3  and  C_15
REMARK    2  A    between atoms: O_3  and  C_20
REMARK    3  A    between atoms: N_4  and  C_10
REMARK    4  A    between atoms: N_5  and  C_13
REMARK    5  A    between atoms: C_10  and  C_14
REMARK    6  A    between atoms: C_13  and  C_15
REMARK    7  A    between atoms: C_14  and  C_16
REMARK    8  A    between atoms: C_16  and  C_17
REMARK                            x       y       z     vdW  Elec       q    Type
REMARK                         _______ _______ _______ _____ _____    ______ ____
ROOT
ATOM      1  O   UNL     1       8.757   6.420   6.642  0.00  0.00    -0.364 OA
ATOM      2  O   UNL     1       9.940   9.417   8.068  0.00  0.00    -0.273 OA
ATOM      4  N   UNL     1      10.858   5.134   4.455  0.00  0.00    -0.298 NA
ATOM      5  N   UNL     1      11.147   7.744   6.990  0.00  0.00    -0.291 N 
ATOM      6  C   UNL     1      11.151   6.437   6.341  0.00  0.00    +0.120 C 
ATOM      7  C   UNL     1       9.912   5.585   6.597  0.00  0.00    +0.154 C 
ATOM      8  C   UNL     1      11.175   6.514   4.816  0.00  0.00    +0.109 C 
ATOM      9  C   UNL     1       9.791   4.688   5.361  0.00  0.00    +0.118 C 
ATOM     11  C   UNL     1      10.013   8.283   7.591  0.00  0.00    +0.242 C 
ATOM     12  C   UNL     1       8.839   7.336   7.709  0.00  0.00    +0.256 C 
ENDROOT
BRANCH   4  10
ATOM     10  C   UNL     1      10.505   4.987   3.051  0.00  0.00    +0.085 C 
BRANCH  10  14
ATOM     14  C   UNL     1      11.209   3.769   2.453  0.00  0.00    +0.020 C 
BRANCH  14  16
ATOM     16  C   UNL     1      11.489   3.973   0.961  0.00  0.00    +0.036 C 
BRANCH  16  17
ATOM     17  C   UNL     1      12.968   3.969   0.667  0.00  0.00    -0.047 A 
ATOM     18  C   UNL     1      13.875   3.584   1.655  0.00  0.00    +0.003 A 
ATOM     19  C   UNL     1      13.428   4.351  -0.592  0.00  0.00    +0.003 A 
ATOM     21  C   UNL     1      15.242   3.582   1.382  0.00  0.00    +0.000 A 
ATOM     22  C   UNL     1      14.796   4.348  -0.865  0.00  0.00    +0.000 A 
ATOM     23  C   UNL     1      15.703   3.964   0.122  0.00  0.00    +0.000 A 
ENDBRANCH  16  17
ENDBRANCH  14  16
ENDBRANCH  10  14
ENDBRANCH   4  10
BRANCH   5  13
ATOM     13  C   UNL     1      12.372   8.529   6.905  0.00  0.00    +0.136 C 
BRANCH  13  15
ATOM     15  C   UNL     1      13.602   7.642   6.871  0.00  0.00    +0.178 C 
BRANCH  15   3
ATOM      3  O   UNL     1      14.630   8.288   6.130  0.00  0.00    -0.381 OA
ATOM     20  C   UNL     1      15.285   7.384   5.251  0.00  0.00    +0.194 C 
ENDBRANCH  15   3
ENDBRANCH  13  15
ENDBRANCH   5  13
TORSDOF 7
ENDMDL
MODEL 6
REMARK VINA RESULT:      -5.5     26.646     28.555
REMARK  Name = 56775116
REMARK  8 active torsions:
REMARK  status: ('A' for Active; 'I' for Inactive)
REMARK    1  A    between atoms: O_3  and  C_15
REMARK    2  A    between atoms: O_3  and  C_20
REMARK    3  A    between atoms: N_4  and  C_10
REMARK    4  A    between atoms: N_5  and  C_13
REMARK    5  A    between atoms: C_10  and  C_14
REMARK    6  A    between atoms: C_13  and  C_15
REMARK    7  A    between atoms: C_14  and  C_16
REMARK    8  A    between atoms: C_16  and  C_17
REMARK                            x       y       z     vdW  Elec       q    Type
REMARK                         _______ _______ _______ _____ _____    ______ ____
ROOT
ATOM      1  O   UNL     1      -3.851 -11.282  17.827  0.00  0.00    -0.364 OA
ATOM      2  O   UNL     1      -7.301 -11.887  18.223  0.00  0.00    -0.273 OA
ATOM      4  N   UNL     1      -2.924 -11.221  14.667  0.00  0.00    -0.298 NA
ATOM      5  N   UNL     1      -6.165 -11.119  16.342  0.00  0.00    -0.291 N 
ATOM      6  C   UNL     1      -4.906 -10.700  15.735  0.00  0.00    +0.120 C 
ATOM      7  C   UNL     1      -3.789 -10.381  16.725  0.00  0.00    +0.154 C 
ATOM      8  C   UNL     1      -4.262 -11.776  14.864  0.00  0.00    +0.109 C 
ATOM      9  C   UNL     1      -2.493 -10.670  15.958  0.00  0.00    +0.118 C 
ATOM     11  C   UNL     1      -6.282 -11.443  17.691  0.00  0.00    +0.242 C 
ATOM     12  C   UNL     1      -5.063 -11.133  18.531  0.00  0.00    +0.256 C 
ENDROOT
BRANCH   4  10
ATOM     10  C   UNL     1      -1.986 -12.193  14.126  0.00  0.00    +0.085 C 
BRANCH  10  14
ATOM     14  C   UNL     1      -1.834 -12.001  12.617  0.00  0.00    +0.020 C 
BRANCH  14  16
ATOM     16  C   UNL     1      -2.017 -10.531  12.229  0.00  0.00    +0.036 C 
BRANCH  16  17
ATOM     17  C   UNL     1      -2.950 -10.378  11.054  0.00  0.00    -0.047 A 
ATOM     18  C   UNL     1      -3.772 -11.439  10.672  0.00  0.00    +0.003 A 
ATOM     19  C   UNL     1      -2.989  -9.176  10.348  0.00  0.00    +0.003 A 
ATOM     21  C   UNL     1      -4.633 -11.297   9.585  0.00  0.00    +0.000 A 
ATOM     22  C   UNL     1      -3.851  -9.034   9.261  0.00  0.00    +0.000 A 
ATOM     23  C   UNL     1      -4.673 -10.094   8.879  0.00  0.00    +0.000 A 
ENDBRANCH  16  17
ENDBRANCH  14  16
ENDBRANCH  10  14
ENDBRANCH   4  10
BRANCH   5  13
ATOM     13  C   UNL     1      -7.307 -11.283  15.451  0.00  0.00    +0.136 C 
BRANCH  13  15
ATOM     15  C   UNL     1      -7.890  -9.944  15.038  0.00  0.00    +0.178 C 
BRANCH  15   3
ATOM      3  O   UNL     1      -9.055  -9.679  15.808  0.00  0.00    -0.381 OA
ATOM     20  C   UNL     1      -8.775  -8.801  16.891  0.00  0.00    +0.194 C 
ENDBRANCH  15   3
ENDBRANCH  13  15
ENDBRANCH   5  13
TORSDOF 7
ENDMDL
MODEL 7
REMARK VINA RESULT:      -5.5      2.273      7.736
REMARK  Name = 56775116
REMARK  8 active torsions:
REMARK  status: ('A' for Active; 'I' for Inactive)
REMARK    1  A    between atoms: O_3  and  C_15
REMARK    2  A    between atoms: O_3  and  C_20
REMARK    3  A    between atoms: N_4  and  C_10
REMARK    4  A    between atoms: N_5  and  C_13
REMARK    5  A    between atoms: C_10  and  C_14
REMARK    6  A    between atoms: C_13  and  C_15
REMARK    7  A    between atoms: C_14  and  C_16
REMARK    8  A    between atoms: C_16  and  C_17
REMARK                            x       y       z     vdW  Elec       q    Type
REMARK                         _______ _______ _______ _____ _____    ______ ____
ROOT
ATOM      1  O   UNL     1      14.886   9.627  21.609  0.00  0.00    -0.364 OA
ATOM      2  O   UNL     1      18.344   9.754  20.938  0.00  0.00    -0.273 OA
ATOM      4  N   UNL     1      13.501   6.804  20.627  0.00  0.00    -0.298 NA
ATOM      5  N   UNL     1      16.957   7.890  21.079  0.00  0.00    -0.291 N 
ATOM      6  C   UNL     1      15.630   7.346  21.347  0.00  0.00    +0.120 C 
ATOM      7  C   UNL     1      14.678   8.294  22.070  0.00  0.00    +0.154 C 
ATOM      8  C   UNL     1      14.843   7.008  20.083  0.00  0.00    +0.109 C 
ATOM      9  C   UNL     1      13.278   7.859  21.624  0.00  0.00    +0.118 C 
ATOM     11  C   UNL     1      17.266   9.238  21.239  0.00  0.00    +0.242 C 
ATOM     12  C   UNL     1      16.191  10.066  21.909  0.00  0.00    +0.256 C 
ENDROOT
BRANCH   4  10
ATOM     10  C   UNL     1      12.475   6.774  19.596  0.00  0.00    +0.085 C 
BRANCH  10  14
ATOM     14  C   UNL     1      11.832   8.153  19.449  0.00  0.00    +0.020 C 
BRANCH  14  16
ATOM     16  C   UNL     1      11.656   8.523  17.973  0.00  0.00    +0.036 C 
BRANCH  16  17
ATOM     17  C   UNL     1      12.772   9.411  17.486  0.00  0.00    -0.047 A 
ATOM     18  C   UNL     1      13.544  10.128  18.401  0.00  0.00    +0.003 A 
ATOM     19  C   UNL     1      13.031   9.518  16.120  0.00  0.00    +0.003 A 
ATOM     21  C   UNL     1      14.575  10.951  17.949  0.00  0.00    +0.000 A 
ATOM     22  C   UNL     1      14.064  10.340  15.668  0.00  0.00    +0.000 A 
ATOM     23  C   UNL     1      14.835  11.057  16.582  0.00  0.00    +0.000 A 
ENDBRANCH  16  17
ENDBRANCH  14  16
ENDBRANCH  10  14
ENDBRANCH   4  10
BRANCH   5  13
ATOM     13  C   UNL     1      17.950   6.974  20.532  0.00  0.00    +0.136 C 
BRANCH  13  15
ATOM     15  C   UNL     1      18.953   6.544  21.588  0.00  0.00    +0.178 C 
BRANCH  15   3
ATOM      3  O   UNL     1      20.256   6.521  21.019  0.00  0.00    -0.381 OA
ATOM     20  C   UNL     1      20.615   5.215  20.590  0.00  0.00    +0.194 C 
ENDBRANCH  15   3
ENDBRANCH  13  15
ENDBRANCH   5  13
TORSDOF 7
ENDMDL
MODEL 8
REMARK VINA RESULT:      -5.4     13.200     15.269
REMARK  Name = 56775116
REMARK  8 active torsions:
REMARK  status: ('A' for Active; 'I' for Inactive)
REMARK    1  A    between atoms: O_3  and  C_15
REMARK    2  A    between atoms: O_3  and  C_20
REMARK    3  A    between atoms: N_4  and  C_10
REMARK    4  A    between atoms: N_5  and  C_13
REMARK    5  A    between atoms: C_10  and  C_14
REMARK    6  A    between atoms: C_13  and  C_15
REMARK    7  A    between atoms: C_14  and  C_16
REMARK    8  A    between atoms: C_16  and  C_17
REMARK                            x       y       z     vdW  Elec       q    Type
REMARK                         _______ _______ _______ _____ _____    ______ ____
ROOT
ATOM      1  O   UNL     1      11.284   7.585   3.445  0.00  0.00    -0.364 OA
ATOM      2  O   UNL     1       8.263   7.039   5.176  0.00  0.00    -0.273 OA
ATOM      4  N   UNL     1      13.901   7.664   5.444  0.00  0.00    -0.298 NA
ATOM      5  N   UNL     1      10.439   6.588   5.870  0.00  0.00    -0.291 N 
ATOM      6  C   UNL     1      11.865   6.577   5.560  0.00  0.00    +0.120 C 
ATOM      7  C   UNL     1      12.203   6.697   4.076  0.00  0.00    +0.154 C 
ATOM      8  C   UNL     1      12.628   7.756   6.157  0.00  0.00    +0.109 C 
ATOM      9  C   UNL     1      13.586   7.356   4.043  0.00  0.00    +0.118 C 
ATOM     11  C   UNL     1       9.467   6.928   4.933  0.00  0.00    +0.242 C 
ATOM     12  C   UNL     1       9.970   7.082   3.515  0.00  0.00    +0.256 C 
ENDROOT
BRANCH   4  10
ATOM     10  C   UNL     1      14.716   8.861   5.591  0.00  0.00    +0.085 C 
BRANCH  10  14
ATOM     14  C   UNL     1      16.137   8.487   6.012  0.00  0.00    +0.020 C 
BRANCH  14  16
ATOM     16  C   UNL     1      17.114   8.632   4.842  0.00  0.00    +0.036 C 
BRANCH  16  17
ATOM     17  C   UNL     1      18.533   8.350   5.264  0.00  0.00    -0.047 A 
ATOM     18  C   UNL     1      18.957   8.679   6.552  0.00  0.00    +0.003 A 
ATOM     19  C   UNL     1      19.423   7.762   4.366  0.00  0.00    +0.003 A 
ATOM     21  C   UNL     1      20.271   8.419   6.941  0.00  0.00    +0.000 A 
ATOM     22  C   UNL     1      20.737   7.501   4.756  0.00  0.00    +0.000 A 
ATOM     23  C   UNL     1      21.161   7.830   6.043  0.00  0.00    +0.000 A 
ENDBRANCH  16  17
ENDBRANCH  14  16
ENDBRANCH  10  14
ENDBRANCH   4  10
BRANCH   5  13
ATOM     13  C   UNL     1      10.060   6.319   7.251  0.00  0.00    +0.136 C 
BRANCH  13  15
ATOM     15  C   UNL     1       9.830   4.838   7.488  0.00  0.00    +0.178 C 
BRANCH  15   3
ATOM      3  O   UNL     1      10.316   4.485   8.777  0.00  0.00    -0.381 OA
ATOM     20  C   UNL     1       9.303   4.607   9.767  0.00  0.00    +0.194 C 
ENDBRANCH  15   3
ENDBRANCH  13  15
ENDBRANCH   5  13
TORSDOF 7
ENDMDL
MODEL 9
REMARK VINA RESULT:      -5.3     26.936     28.854
REMARK  Name = 56775116
REMARK  8 active torsions:
REMARK  status: ('A' for Active; 'I' for Inactive)
REMARK    1  A    between atoms: O_3  and  C_15
REMARK    2  A    between atoms: O_3  and  C_20
REMARK    3  A    between atoms: N_4  and  C_10
REMARK    4  A    between atoms: N_5  and  C_13
REMARK    5  A    between atoms: C_10  and  C_14
REMARK    6  A    between atoms: C_13  and  C_15
REMARK    7  A    between atoms: C_14  and  C_16
REMARK    8  A    between atoms: C_16  and  C_17
REMARK                            x       y       z     vdW  Elec       q    Type
REMARK                         _______ _______ _______ _____ _____    ______ ____
ROOT
ATOM      1  O   UNL     1      -3.049  -9.236  10.314  0.00  0.00    -0.364 OA
ATOM      2  O   UNL     1      -6.239  -8.146   9.285  0.00  0.00    -0.273 OA
ATOM      4  N   UNL     1      -3.160 -11.155  12.989  0.00  0.00    -0.298 NA
ATOM      5  N   UNL     1      -5.688  -9.953  10.646  0.00  0.00    -0.291 N 
ATOM      6  C   UNL     1      -4.650 -10.772  11.265  0.00  0.00    +0.120 C 
ATOM      7  C   UNL     1      -3.255 -10.600  10.671  0.00  0.00    +0.154 C 
ATOM      8  C   UNL     1      -4.413 -10.445  12.736  0.00  0.00    +0.109 C 
ATOM      9  C   UNL     1      -2.298 -10.931  11.821  0.00  0.00    +0.118 C 
ATOM     11  C   UNL     1      -5.403  -8.919   9.758  0.00  0.00    +0.242 C 
ATOM     12  C   UNL     1      -3.959  -8.835   9.315  0.00  0.00    +0.256 C 
ENDROOT
BRANCH   4  10
ATOM     10  C   UNL     1      -2.532 -10.759  14.240  0.00  0.00    +0.085 C 
BRANCH  10  14
ATOM     14  C   UNL     1      -3.200 -11.471  15.417  0.00  0.00    +0.020 C 
BRANCH  14  16
ATOM     16  C   UNL     1      -3.271 -10.558  16.644  0.00  0.00    +0.036 C 
BRANCH  16  17
ATOM     17  C   UNL     1      -4.693 -10.335  17.091  0.00  0.00    -0.047 A 
ATOM     18  C   UNL     1      -5.099 -10.754  18.359  0.00  0.00    +0.003 A 
ATOM     19  C   UNL     1      -5.603  -9.713  16.237  0.00  0.00    +0.003 A 
ATOM     21  C   UNL     1      -6.416 -10.549  18.772  0.00  0.00    +0.000 A 
ATOM     22  C   UNL     1      -6.919  -9.508  16.651  0.00  0.00    +0.000 A 
ATOM     23  C   UNL     1      -7.326  -9.926  17.918  0.00  0.00    +0.000 A 
ENDBRANCH  16  17
ENDBRANCH  14  16
ENDBRANCH  10  14
ENDBRANCH   4  10
BRANCH   5  13
ATOM     13  C   UNL     1      -7.061 -10.194  11.069  0.00  0.00    +0.136 C 
BRANCH  13  15
ATOM     15  C   UNL     1      -7.566 -11.541  10.586  0.00  0.00    +0.178 C 
BRANCH  15   3
ATOM      3  O   UNL     1      -7.686 -11.520   9.169  0.00  0.00    -0.381 OA
ATOM     20  C   UNL     1      -7.093 -12.669   8.580  0.00  0.00    +0.194 C 
ENDBRANCH  15   3
ENDBRANCH  13  15
ENDBRANCH   5  13
TORSDOF 7
ENDMDL
MODEL 10
REMARK VINA RESULT:      -5.2     26.900     28.813
REMARK  Name = 56775116
REMARK  8 active torsions:
REMARK  status: ('A' for Active; 'I' for Inactive)
REMARK    1  A    between atoms: O_3  and  C_15
REMARK    2  A    between atoms: O_3  and  C_20
REMARK    3  A    between atoms: N_4  and  C_10
REMARK    4  A    between atoms: N_5  and  C_13
REMARK    5  A    between atoms: C_10  and  C_14
REMARK    6  A    between atoms: C_13  and  C_15
REMARK    7  A    between atoms: C_14  and  C_16
REMARK    8  A    between atoms: C_16  and  C_17
REMARK                            x       y       z     vdW  Elec       q    Type
REMARK                         _______ _______ _______ _____ _____    ______ ____
ROOT
ATOM      1  O   UNL     1      -6.029 -12.159  19.054  0.00  0.00    -0.364 OA
ATOM      2  O   UNL     1      -9.540 -12.113  18.748  0.00  0.00    -0.273 OA
ATOM      4  N   UNL     1      -4.503 -10.954  16.394  0.00  0.00    -0.298 NA
ATOM      5  N   UNL     1      -7.960 -10.879  17.564  0.00  0.00    -0.291 N 
ATOM      6  C   UNL     1      -6.559 -10.525  17.358  0.00  0.00    +0.120 C 
ATOM      7  C   UNL     1      -5.623 -10.910  18.500  0.00  0.00    +0.154 C 
ATOM      8  C   UNL     1      -5.920 -11.236  16.168  0.00  0.00    +0.109 C 
ATOM      9  C   UNL     1      -4.258 -11.117  17.833  0.00  0.00    +0.118 C 
ATOM     11  C   UNL     1      -8.383 -11.715  18.593  0.00  0.00    +0.242 C 
ATOM     12  C   UNL     1      -7.320 -12.067  19.611  0.00  0.00    +0.256 C 
ENDROOT
BRANCH   4  10
ATOM     10  C   UNL     1      -3.628 -11.779  15.576  0.00  0.00    +0.085 C 
BRANCH  10  14
ATOM     14  C   UNL     1      -2.564 -10.915  14.899  0.00  0.00    +0.020 C 
BRANCH  14  16
ATOM     16  C   UNL     1      -2.118 -11.530  13.570  0.00  0.00    +0.036 C 
BRANCH  16  17
ATOM     17  C   UNL     1      -2.545 -10.687  12.395  0.00  0.00    -0.047 A 
ATOM     18  C   UNL     1      -1.601  -9.930  11.700  0.00  0.00    +0.003 A 
ATOM     19  C   UNL     1      -3.884 -10.662  12.006  0.00  0.00    +0.003 A 
ATOM     21  C   UNL     1      -1.997  -9.150  10.614  0.00  0.00    +0.000 A 
ATOM     22  C   UNL     1      -4.279  -9.881  10.919  0.00  0.00    +0.000 A 
ATOM     23  C   UNL     1      -3.336  -9.125  10.224  0.00  0.00    +0.000 A 
ENDBRANCH  16  17
ENDBRANCH  14  16
ENDBRANCH  10  14
ENDBRANCH   4  10
BRANCH   5  13
ATOM     13  C   UNL     1      -8.917 -10.395  16.576  0.00  0.00    +0.136 C 
BRANCH  13  15
ATOM     15  C   UNL     1      -8.823  -8.891  16.399  0.00  0.00    +0.178 C 
BRANCH  15   3
ATOM      3  O   UNL     1      -9.500  -8.246  17.471  0.00  0.00    -0.381 OA
ATOM     20  C   UNL     1     -10.889  -8.546  17.464  0.00  0.00    +0.194 C 
ENDBRANCH  15   3
ENDBRANCH  13  15
ENDBRANCH   5  13
TORSDOF 7
ENDMDL
