REMARK  Name = 45783817
REMARK  8 active torsions:
REMARK  status: ('A' for Active; 'I' for Inactive)
REMARK    1  A    between atoms: N_2  and  C_11
REMARK    2  A    between atoms: N_6  and  C_25
REMARK    3  A    between atoms: N_6  and  C_26
REMARK    4  A    between atoms: N_6  and  C_27
REMARK    5  A    between atoms: C_7  and  C_12
REMARK    6  A    between atoms: C_11  and  C_13
REMARK    7  A    between atoms: C_16  and  C_20
REMARK    8  A    between atoms: C_19  and  C_21
REMARK                            x       y       z     vdW  Elec       q    Type
REMARK                         _______ _______ _______ _____ _____    ______ ____
ROOT
ATOM      1  O   UNL     1      -1.517  -1.529   1.968  0.00  0.00    -0.336 OA
ATOM      3  N   UNL     1      -0.808  -0.997  -0.088  0.00  0.00    -0.190 NA
ATOM      4  N   UNL     1      -0.121  -1.440   2.049  0.00  0.00    -0.056 NA
ATOM     12  C   UNL     1      -1.838  -1.254   0.677  0.00  0.00    +0.245 A 
ATOM     16  C   UNL     1       0.223  -1.123   0.797  0.00  0.00    +0.204 A 
ENDROOT
BRANCH  16  20
ATOM      5  N   UNL     1       3.928  -0.885   0.999  0.00  0.00    -0.240 NA
ATOM     20  C   UNL     1       1.587  -0.926   0.398  0.00  0.00    +0.041 A 
ATOM     22  C   UNL     1       1.910  -0.598  -0.913  0.00  0.00    +0.016 A 
ATOM     23  C   UNL     1       2.624  -1.057   1.308  0.00  0.00    +0.124 A 
ATOM     24  C   UNL     1       3.241  -0.413  -1.271  0.00  0.00    +0.044 A 
ATOM     25  C   UNL     1       4.204  -0.566  -0.286  0.00  0.00    +0.121 A 
BRANCH  25   6
ATOM      6  N   UNL     1       5.555  -0.376  -0.666  0.00  0.00    -0.321 N 
ATOM     26  C   UNL     1       5.886  -0.035  -2.032  0.00  0.00    +0.130 C 
ATOM     27  C   UNL     1       6.612  -0.513   0.312  0.00  0.00    +0.130 C 
ENDBRANCH  25   6
ENDBRANCH  16  20
BRANCH  12   7
ATOM      2  N   UNL     1      -3.643  -0.403  -0.810  0.00  0.00    -0.287 NA
ATOM      7  C   UNL     1      -3.311  -1.286   0.326  0.00  0.00    +0.146 C 
ATOM      8  C   UNL     1      -3.788  -2.683  -0.112  0.00  0.00    +0.030 C 
ATOM      9  C   UNL     1      -4.428  -2.474  -1.477  0.00  0.00    +0.017 C 
ATOM     10  C   UNL     1      -4.797  -1.005  -1.478  0.00  0.00    +0.085 C 
BRANCH   2  11
ATOM     11  C   UNL     1      -3.898   0.975  -0.410  0.00  0.00    +0.120 C 
BRANCH  11  13
ATOM     13  C   UNL     1      -2.620   1.737  -0.177  0.00  0.00    -0.033 A 
ATOM     14  C   UNL     1      -2.370   2.314   1.067  0.00  0.00    +0.005 A 
ATOM     15  C   UNL     1      -1.689   1.869  -1.207  0.00  0.00    +0.005 A 
ATOM     17  C   UNL     1      -1.188   3.023   1.282  0.00  0.00    +0.003 A 
ATOM     18  C   UNL     1      -0.507   2.577  -0.992  0.00  0.00    +0.003 A 
ATOM     19  C   UNL     1      -0.256   3.154   0.253  0.00  0.00    -0.050 A 
ATOM     21  C   UNL     1       1.008   3.912   0.483  0.00  0.00    +0.044 C 
ENDBRANCH  11  13
ENDBRANCH   2  11
ENDBRANCH  12   7
TORSDOF 5
