MODEL 1
REMARK VINA RESULT:      -6.4      0.000      0.000
REMARK  Name = 38027120
REMARK  14 active torsions:
REMARK  status: ('A' for Active; 'I' for Inactive)
REMARK    1  A    between atoms: O_4  and  C_24
REMARK    2  A    between atoms: O_4  and  C_29
REMARK    3  A    between atoms: N_5  and  C_15
REMARK    4  A    between atoms: N_6  and  C_22
REMARK    5  A    between atoms: N_7  and  C_23
REMARK    6  A    between atoms: C_8  and  C_12
REMARK    7  A    between atoms: C_9  and  C_15
REMARK    8  A    between atoms: C_11  and  C_16
REMARK    9  A    between atoms: C_12  and  C_17
REMARK   10  A    between atoms: C_12  and  C_18
REMARK   11  A    between atoms: C_13  and  C_19
REMARK   12  A    between atoms: C_16  and  C_20
REMARK   13  A    between atoms: C_21  and  C_24
REMARK   14  A    between atoms: C_22  and  C_23
REMARK                            x       y       z     vdW  Elec       q    Type
REMARK                         _______ _______ _______ _____ _____    ______ ____
ROOT
ATOM      8  C   UNL     1      13.876   9.378  19.053  0.00  0.00    +0.000 C 
ATOM      9  C   UNL     1      13.914   7.899  18.591  0.00  0.00    +0.032 C 
ATOM     10  C   UNL     1      15.282   9.854  19.447  0.00  0.00    +0.012 C 
ATOM     11  C   UNL     1      15.888   9.004  20.580  0.00  0.00    +0.023 C 
ATOM     13  C   UNL     1      15.723   7.520  20.322  0.00  0.00    -0.073 C 
ATOM     14  C   UNL     1      14.846   7.046  19.420  0.00  0.00    -0.022 C 
ATOM     19  C   UNL     1      16.624   6.594  21.092  0.00  0.00    +0.039 C 
ENDROOT
BRANCH   8  12
ATOM     12  C   UNL     1      13.302  10.297  17.970  0.00  0.00    -0.013 C 
ATOM     17  C   UNL     1      13.514  11.759  18.347  0.00  0.00    +0.007 C 
ATOM     18  C   UNL     1      13.938   9.989  16.619  0.00  0.00    +0.007 C 
ENDBRANCH   8  12
BRANCH   9  15
ATOM     15  C   UNL     1      12.512   7.281  18.599  0.00  0.00    +0.112 C 
BRANCH  15   5
ATOM      2  O   UNL     1      11.958   6.144  21.201  0.00  0.00    -0.272 OA
ATOM      5  N   UNL     1      11.711   7.850  19.638  0.00  0.00    -0.312 N 
ATOM     21  C   UNL     1      11.495   7.231  20.868  0.00  0.00    +0.251 C 
ATOM     35  H   UNL     1      11.325   8.778  19.490  0.00  0.00    +0.149 HD
BRANCH  21  24
ATOM     24  C   UNL     1      10.609   8.057  21.777  0.00  0.00    +0.324 C 
BRANCH  24   4
ATOM      4  O   UNL     1      11.387   8.780  22.708  0.00  0.00    -0.483 OA
BRANCH   4  29
ATOM     29  C   UNL     1      11.278  10.150  22.687  0.00  0.00    +0.121 A 
ATOM     30  C   UNL     1      11.612  10.859  21.534  0.00  0.00    +0.045 A 
ATOM     31  C   UNL     1      10.835  10.831  23.820  0.00  0.00    +0.045 A 
ATOM     32  C   UNL     1      11.502  12.249  21.512  0.00  0.00    +0.004 A 
ATOM     33  C   UNL     1      10.723  12.221  23.799  0.00  0.00    +0.004 A 
ATOM     34  C   UNL     1      11.057  12.931  22.646  0.00  0.00    +0.000 A 
ENDBRANCH   4  29
ENDBRANCH  24   4
ENDBRANCH  21  24
ENDBRANCH  15   5
ENDBRANCH   9  15
BRANCH  11  16
ATOM     16  C   UNL     1      15.296   9.393  21.939  0.00  0.00    +0.103 C 
BRANCH  16  20
ATOM      1  O   UNL     1      17.017  11.053  22.306  0.00  0.00    -0.276 OA
ATOM      6  N   UNL     1      14.862  11.450  23.078  0.00  0.00    -0.314 N 
ATOM     20  C   UNL     1      15.847  10.707  22.445  0.00  0.00    +0.214 C 
ATOM     36  H   UNL     1      13.917  11.080  23.133  0.00  0.00    +0.149 HD
BRANCH   6  22
ATOM     22  C   UNL     1      15.105  12.749  23.661  0.00  0.00    +0.119 C 
BRANCH  22  23
ATOM     23  C   UNL     1      14.099  13.058  24.761  0.00  0.00    +0.103 C 
BRANCH  23   7
ATOM      3  O   UNL     1      14.771  11.938  28.749  0.00  0.00    -0.377 OA
ATOM      7  N   UNL     1      14.723  12.909  26.075  0.00  0.00    -0.297 NA
ATOM     25  C   UNL     1      14.978  11.494  26.373  0.00  0.00    +0.112 C 
ATOM     26  C   UNL     1      13.879  13.500  27.122  0.00  0.00    +0.112 C 
ATOM     27  C   UNL     1      15.618  11.362  27.753  0.00  0.00    +0.175 C 
ATOM     28  C   UNL     1      14.544  13.323  28.484  0.00  0.00    +0.175 C 
ENDBRANCH  23   7
ENDBRANCH  22  23
ENDBRANCH   6  22
ENDBRANCH  16  20
ENDBRANCH  11  16
TORSDOF 11
ENDMDL
MODEL 2
REMARK VINA RESULT:      -6.4     27.311     30.319
REMARK  Name = 38027120
REMARK  14 active torsions:
REMARK  status: ('A' for Active; 'I' for Inactive)
REMARK    1  A    between atoms: O_4  and  C_24
REMARK    2  A    between atoms: O_4  and  C_29
REMARK    3  A    between atoms: N_5  and  C_15
REMARK    4  A    between atoms: N_6  and  C_22
REMARK    5  A    between atoms: N_7  and  C_23
REMARK    6  A    between atoms: C_8  and  C_12
REMARK    7  A    between atoms: C_9  and  C_15
REMARK    8  A    between atoms: C_11  and  C_16
REMARK    9  A    between atoms: C_12  and  C_17
REMARK   10  A    between atoms: C_12  and  C_18
REMARK   11  A    between atoms: C_13  and  C_19
REMARK   12  A    between atoms: C_16  and  C_20
REMARK   13  A    between atoms: C_21  and  C_24
REMARK   14  A    between atoms: C_22  and  C_23
REMARK                            x       y       z     vdW  Elec       q    Type
REMARK                         _______ _______ _______ _____ _____    ______ ____
ROOT
ATOM      8  C   UNL     1      -5.762 -10.648  17.848  0.00  0.00    +0.000 C 
ATOM      9  C   UNL     1      -5.157 -11.019  16.471  0.00  0.00    +0.032 C 
ATOM     10  C   UNL     1      -7.273 -10.930  17.863  0.00  0.00    +0.012 C 
ATOM     11  C   UNL     1      -8.022 -10.143  16.772  0.00  0.00    +0.023 C 
ATOM     13  C   UNL     1      -7.329 -10.242  15.428  0.00  0.00    -0.073 C 
ATOM     14  C   UNL     1      -6.053 -10.648  15.312  0.00  0.00    -0.022 C 
ATOM     19  C   UNL     1      -8.152  -9.907  14.215  0.00  0.00    +0.039 C 
ENDROOT
BRANCH   8  12
ATOM     12  C   UNL     1      -5.082 -11.407  18.991  0.00  0.00    -0.013 C 
ATOM     17  C   UNL     1      -5.960 -11.390  20.238  0.00  0.00    +0.007 C 
ATOM     18  C   UNL     1      -4.771 -12.839  18.568  0.00  0.00    +0.007 C 
ENDBRANCH   8  12
BRANCH   9  15
ATOM     15  C   UNL     1      -3.781 -10.372  16.279  0.00  0.00    +0.112 C 
BRANCH  15   5
ATOM      2  O   UNL     1      -1.090 -10.340  15.218  0.00  0.00    -0.272 OA
ATOM      5  N   UNL     1      -3.395 -10.395  14.903  0.00  0.00    -0.312 N 
ATOM     21  C   UNL     1      -2.068 -10.376  14.476  0.00  0.00    +0.251 C 
ATOM     35  H   UNL     1      -4.126 -10.483  14.202  0.00  0.00    +0.149 HD
BRANCH  21  24
ATOM     24  C   UNL     1      -1.951 -10.408  12.967  0.00  0.00    +0.324 C 
BRANCH  24   4
ATOM      4  O   UNL     1      -3.134 -10.915  12.387  0.00  0.00    -0.483 OA
BRANCH   4  29
ATOM     29  C   UNL     1      -3.803 -10.096  11.508  0.00  0.00    +0.121 A 
ATOM     30  C   UNL     1      -5.089  -9.649  11.813  0.00  0.00    +0.045 A 
ATOM     31  C   UNL     1      -3.197  -9.711  10.313  0.00  0.00    +0.045 A 
ATOM     32  C   UNL     1      -5.769  -8.818  10.922  0.00  0.00    +0.004 A 
ATOM     33  C   UNL     1      -3.875  -8.879   9.423  0.00  0.00    +0.004 A 
ATOM     34  C   UNL     1      -5.161  -8.433   9.727  0.00  0.00    +0.000 A 
ENDBRANCH   4  29
ENDBRANCH  24   4
ENDBRANCH  21  24
ENDBRANCH  15   5
ENDBRANCH   9  15
BRANCH  11  16
ATOM     16  C   UNL     1      -8.218  -8.679  17.182  0.00  0.00    +0.103 C 
BRANCH  16  20
ATOM      1  O   UNL     1     -10.475  -8.900  18.023  0.00  0.00    -0.276 OA
ATOM      6  N   UNL     1      -9.988  -7.234  16.479  0.00  0.00    -0.314 N 
ATOM     20  C   UNL     1      -9.680  -8.311  17.297  0.00  0.00    +0.214 C 
ATOM     36  H   UNL     1      -9.254  -6.806  15.922  0.00  0.00    +0.149 HD
BRANCH   6  22
ATOM     22  C   UNL     1     -11.313  -6.668  16.385  0.00  0.00    +0.119 C 
BRANCH  22  23
ATOM     23  C   UNL     1     -12.140  -7.372  15.318  0.00  0.00    +0.103 C 
BRANCH  23   7
ATOM      3  O   UNL     1     -13.069  -5.218  11.838  0.00  0.00    -0.377 OA
ATOM      7  N   UNL     1     -12.007  -6.681  14.037  0.00  0.00    -0.297 NA
ATOM     25  C   UNL     1     -12.387  -5.267  14.166  0.00  0.00    +0.112 C 
ATOM     26  C   UNL     1     -12.830  -7.331  13.007  0.00  0.00    +0.112 C 
ATOM     27  C   UNL     1     -12.253  -4.570  12.815  0.00  0.00    +0.175 C 
ATOM     28  C   UNL     1     -12.685  -6.585  11.683  0.00  0.00    +0.175 C 
ENDBRANCH  23   7
ENDBRANCH  22  23
ENDBRANCH   6  22
ENDBRANCH  16  20
ENDBRANCH  11  16
TORSDOF 11
ENDMDL
MODEL 3
REMARK VINA RESULT:      -5.9      5.215      8.094
REMARK  Name = 38027120
REMARK  14 active torsions:
REMARK  status: ('A' for Active; 'I' for Inactive)
REMARK    1  A    between atoms: O_4  and  C_24
REMARK    2  A    between atoms: O_4  and  C_29
REMARK    3  A    between atoms: N_5  and  C_15
REMARK    4  A    between atoms: N_6  and  C_22
REMARK    5  A    between atoms: N_7  and  C_23
REMARK    6  A    between atoms: C_8  and  C_12
REMARK    7  A    between atoms: C_9  and  C_15
REMARK    8  A    between atoms: C_11  and  C_16
REMARK    9  A    between atoms: C_12  and  C_17
REMARK   10  A    between atoms: C_12  and  C_18
REMARK   11  A    between atoms: C_13  and  C_19
REMARK   12  A    between atoms: C_16  and  C_20
REMARK   13  A    between atoms: C_21  and  C_24
REMARK   14  A    between atoms: C_22  and  C_23
REMARK                            x       y       z     vdW  Elec       q    Type
REMARK                         _______ _______ _______ _____ _____    ______ ____
ROOT
ATOM      8  C   UNL     1      17.249   8.315  21.582  0.00  0.00    +0.000 C 
ATOM      9  C   UNL     1      16.664   7.185  20.699  0.00  0.00    +0.032 C 
ATOM     10  C   UNL     1      18.671   8.673  21.123  0.00  0.00    +0.012 C 
ATOM     11  C   UNL     1      19.623   7.464  21.183  0.00  0.00    +0.023 C 
ATOM     13  C   UNL     1      19.004   6.227  20.564  0.00  0.00    -0.073 C 
ATOM     14  C   UNL     1      17.682   6.126  20.343  0.00  0.00    -0.022 C 
ATOM     19  C   UNL     1      19.947   5.126  20.163  0.00  0.00    +0.039 C 
ENDROOT
BRANCH   8  12
ATOM     12  C   UNL     1      16.367   9.567  21.562  0.00  0.00    -0.013 C 
ATOM     17  C   UNL     1      17.149  10.778  22.060  0.00  0.00    +0.007 C 
ATOM     18  C   UNL     1      15.827   9.814  20.157  0.00  0.00    +0.007 C 
ENDBRANCH   8  12
BRANCH   9  15
ATOM     15  C   UNL     1      15.456   6.526  21.373  0.00  0.00    +0.112 C 
BRANCH  15   5
ATOM      2  O   UNL     1      12.786   7.552  21.802  0.00  0.00    -0.272 OA
ATOM      5  N   UNL     1      14.348   6.454  20.472  0.00  0.00    -0.312 N 
ATOM     21  C   UNL     1      13.088   6.977  20.760  0.00  0.00    +0.251 C 
ATOM     35  H   UNL     1      14.503   6.048  19.553  0.00  0.00    +0.149 HD
BRANCH  21  24
ATOM     24  C   UNL     1      12.106   6.761  19.629  0.00  0.00    +0.324 C 
BRANCH  24   4
ATOM      4  O   UNL     1      11.452   7.969  19.300  0.00  0.00    -0.483 OA
BRANCH   4  29
ATOM     29  C   UNL     1      11.720   8.513  18.066  0.00  0.00    +0.121 A 
ATOM     30  C   UNL     1      12.963   9.093  17.815  0.00  0.00    +0.045 A 
ATOM     31  C   UNL     1      10.749   8.484  17.065  0.00  0.00    +0.045 A 
ATOM     32  C   UNL     1      13.236   9.645  16.564  0.00  0.00    +0.004 A 
ATOM     33  C   UNL     1      11.022   9.035  15.814  0.00  0.00    +0.004 A 
ATOM     34  C   UNL     1      12.265   9.616  15.562  0.00  0.00    +0.000 A 
ENDBRANCH   4  29
ENDBRANCH  24   4
ENDBRANCH  21  24
ENDBRANCH  15   5
ENDBRANCH   9  15
BRANCH  11  16
ATOM     16  C   UNL     1      20.078   7.190  22.621  0.00  0.00    +0.103 C 
BRANCH  16  20
ATOM      1  O   UNL     1      22.406   7.464  22.024  0.00  0.00    -0.276 OA
ATOM      6  N   UNL     1      21.815   5.895  23.633  0.00  0.00    -0.314 N 
ATOM     20  C   UNL     1      21.558   6.891  22.702  0.00  0.00    +0.214 C 
ATOM     36  H   UNL     1      21.043   5.490  24.154  0.00  0.00    +0.149 HD
BRANCH   6  22
ATOM     22  C   UNL     1      23.143   5.406  23.919  0.00  0.00    +0.119 C 
BRANCH  22  23
ATOM     23  C   UNL     1      23.351   4.009  23.350  0.00  0.00    +0.103 C 
BRANCH  23   7
ATOM      3  O   UNL     1      25.495   5.273  19.971  0.00  0.00    -0.377 OA
ATOM      7  N   UNL     1      24.316   4.047  22.253  0.00  0.00    -0.297 NA
ATOM     25  C   UNL     1      25.203   5.212  22.379  0.00  0.00    +0.112 C 
ATOM     26  C   UNL     1      23.629   4.075  20.955  0.00  0.00    +0.112 C 
ATOM     27  C   UNL     1      26.192   5.238  21.217  0.00  0.00    +0.175 C 
ATOM     28  C   UNL     1      24.655   4.126  19.827  0.00  0.00    +0.175 C 
ENDBRANCH  23   7
ENDBRANCH  22  23
ENDBRANCH   6  22
ENDBRANCH  16  20
ENDBRANCH  11  16
TORSDOF 11
ENDMDL
MODEL 4
REMARK VINA RESULT:      -5.9      3.311      7.143
REMARK  Name = 38027120
REMARK  14 active torsions:
REMARK  status: ('A' for Active; 'I' for Inactive)
REMARK    1  A    between atoms: O_4  and  C_24
REMARK    2  A    between atoms: O_4  and  C_29
REMARK    3  A    between atoms: N_5  and  C_15
REMARK    4  A    between atoms: N_6  and  C_22
REMARK    5  A    between atoms: N_7  and  C_23
REMARK    6  A    between atoms: C_8  and  C_12
REMARK    7  A    between atoms: C_9  and  C_15
REMARK    8  A    between atoms: C_11  and  C_16
REMARK    9  A    between atoms: C_12  and  C_17
REMARK   10  A    between atoms: C_12  and  C_18
REMARK   11  A    between atoms: C_13  and  C_19
REMARK   12  A    between atoms: C_16  and  C_20
REMARK   13  A    between atoms: C_21  and  C_24
REMARK   14  A    between atoms: C_22  and  C_23
REMARK                            x       y       z     vdW  Elec       q    Type
REMARK                         _______ _______ _______ _____ _____    ______ ____
ROOT
ATOM      8  C   UNL     1      13.974  11.457  23.498  0.00  0.00    +0.000 C 
ATOM      9  C   UNL     1      12.929  11.845  22.422  0.00  0.00    +0.032 C 
ATOM     10  C   UNL     1      15.381  11.891  23.061  0.00  0.00    +0.012 C 
ATOM     11  C   UNL     1      15.798  11.252  21.723  0.00  0.00    +0.023 C 
ATOM     13  C   UNL     1      14.702  11.359  20.681  0.00  0.00    -0.073 C 
ATOM     14  C   UNL     1      13.429  11.638  21.011  0.00  0.00    -0.022 C 
ATOM     19  C   UNL     1      15.113  11.184  19.245  0.00  0.00    +0.039 C 
ENDROOT
BRANCH   8  12
ATOM     12  C   UNL     1      13.642  12.072  24.861  0.00  0.00    -0.013 C 
ATOM     17  C   UNL     1      14.689  11.671  25.895  0.00  0.00    +0.007 C 
ATOM     18  C   UNL     1      13.544  13.590  24.750  0.00  0.00    +0.007 C 
ENDBRANCH   8  12
BRANCH   9  15
ATOM     15  C   UNL     1      11.620  11.072  22.618  0.00  0.00    +0.112 C 
BRANCH  15   5
ATOM      2  O   UNL     1      10.837   8.289  22.684  0.00  0.00    -0.272 OA
ATOM      5  N   UNL     1      11.359  10.222  21.499  0.00  0.00    -0.312 N 
ATOM     21  C   UNL     1      10.986   8.884  21.621  0.00  0.00    +0.251 C 
ATOM     35  H   UNL     1      11.397  10.629  20.569  0.00  0.00    +0.149 HD
BRANCH  21  24
ATOM     24  C   UNL     1      10.773   8.224  20.276  0.00  0.00    +0.324 C 
BRANCH  24   4
ATOM      4  O   UNL     1      11.490   7.009  20.198  0.00  0.00    -0.483 OA
BRANCH   4  29
ATOM     29  C   UNL     1      12.814   7.084  19.836  0.00  0.00    +0.121 A 
ATOM     30  C   UNL     1      13.804   6.656  20.720  0.00  0.00    +0.045 A 
ATOM     31  C   UNL     1      13.168   7.587  18.584  0.00  0.00    +0.045 A 
ATOM     32  C   UNL     1      15.148   6.731  20.354  0.00  0.00    +0.004 A 
ATOM     33  C   UNL     1      14.511   7.662  18.217  0.00  0.00    +0.004 A 
ATOM     34  C   UNL     1      15.501   7.234  19.101  0.00  0.00    +0.000 A 
ENDBRANCH   4  29
ENDBRANCH  24   4
ENDBRANCH  21  24
ENDBRANCH  15   5
ENDBRANCH   9  15
BRANCH  11  16
ATOM     16  C   UNL     1      16.229   9.794  21.917  0.00  0.00    +0.103 C 
BRANCH  16  20
ATOM      1  O   UNL     1      18.366  10.411  20.968  0.00  0.00    -0.276 OA
ATOM      6  N   UNL     1      18.110   8.319  21.946  0.00  0.00    -0.314 N 
ATOM     20  C   UNL     1      17.678   9.575  21.547  0.00  0.00    +0.214 C 
ATOM     36  H   UNL     1      17.465   7.701  22.430  0.00  0.00    +0.149 HD
BRANCH   6  22
ATOM     22  C   UNL     1      19.453   7.838  21.720  0.00  0.00    +0.119 C 
BRANCH  22  23
ATOM     23  C   UNL     1      19.445   6.500  20.994  0.00  0.00    +0.103 C 
BRANCH  23   7
ATOM      3  O   UNL     1      23.062   4.413  20.579  0.00  0.00    -0.377 OA
ATOM      7  N   UNL     1      20.655   5.744  21.310  0.00  0.00    -0.297 NA
ATOM     25  C   UNL     1      21.856   6.491  20.912  0.00  0.00    +0.112 C 
ATOM     26  C   UNL     1      20.637   4.431  20.650  0.00  0.00    +0.112 C 
ATOM     27  C   UNL     1      23.105   5.678  21.241  0.00  0.00    +0.175 C 
ATOM     28  C   UNL     1      21.914   3.666  20.985  0.00  0.00    +0.175 C 
ENDBRANCH  23   7
ENDBRANCH  22  23
ENDBRANCH   6  22
ENDBRANCH  16  20
ENDBRANCH  11  16
TORSDOF 11
ENDMDL
MODEL 5
REMARK VINA RESULT:      -5.8     27.709     30.405
REMARK  Name = 38027120
REMARK  14 active torsions:
REMARK  status: ('A' for Active; 'I' for Inactive)
REMARK    1  A    between atoms: O_4  and  C_24
REMARK    2  A    between atoms: O_4  and  C_29
REMARK    3  A    between atoms: N_5  and  C_15
REMARK    4  A    between atoms: N_6  and  C_22
REMARK    5  A    between atoms: N_7  and  C_23
REMARK    6  A    between atoms: C_8  and  C_12
REMARK    7  A    between atoms: C_9  and  C_15
REMARK    8  A    between atoms: C_11  and  C_16
REMARK    9  A    between atoms: C_12  and  C_17
REMARK   10  A    between atoms: C_12  and  C_18
REMARK   11  A    between atoms: C_13  and  C_19
REMARK   12  A    between atoms: C_16  and  C_20
REMARK   13  A    between atoms: C_21  and  C_24
REMARK   14  A    between atoms: C_22  and  C_23
REMARK                            x       y       z     vdW  Elec       q    Type
REMARK                         _______ _______ _______ _____ _____    ______ ____
ROOT
ATOM      8  C   UNL     1      -5.666 -10.416  10.404  0.00  0.00    +0.000 C 
ATOM      9  C   UNL     1      -4.970  -9.548   9.325  0.00  0.00    +0.032 C 
ATOM     10  C   UNL     1      -5.213  -9.990  11.809  0.00  0.00    +0.012 C 
ATOM     11  C   UNL     1      -3.689 -10.114  11.991  0.00  0.00    +0.023 C 
ATOM     13  C   UNL     1      -2.931  -9.513  10.825  0.00  0.00    -0.073 C 
ATOM     14  C   UNL     1      -3.523  -9.255   9.646  0.00  0.00    -0.022 C 
ATOM     19  C   UNL     1      -1.485  -9.172  11.060  0.00  0.00    +0.039 C 
ENDROOT
BRANCH   8  12
ATOM     12  C   UNL     1      -7.192 -10.331  10.303  0.00  0.00    -0.013 C 
ATOM     17  C   UNL     1      -7.844 -11.065  11.471  0.00  0.00    +0.007 C 
ATOM     18  C   UNL     1      -7.644  -8.875  10.261  0.00  0.00    +0.007 C 
ENDBRANCH   8  12
BRANCH   9  15
ATOM     15  C   UNL     1      -5.064 -10.204   7.943  0.00  0.00    +0.112 C 
BRANCH  15   5
ATOM      2  O   UNL     1      -7.533 -11.120   6.746  0.00  0.00    -0.272 OA
ATOM      5  N   UNL     1      -5.936  -9.462   7.087  0.00  0.00    -0.312 N 
ATOM     21  C   UNL     1      -7.113  -9.983   6.550  0.00  0.00    +0.251 C 
ATOM     35  H   UNL     1      -5.714  -8.487   6.904  0.00  0.00    +0.149 HD
BRANCH  21  24
ATOM     24  C   UNL     1      -7.840  -8.980   5.681  0.00  0.00    +0.324 C 
BRANCH  24   4
ATOM      4  O   UNL     1      -7.584  -7.662   6.120  0.00  0.00    -0.483 OA
BRANCH   4  29
ATOM     29  C   UNL     1      -8.597  -7.014   6.784  0.00  0.00    +0.121 A 
ATOM     30  C   UNL     1      -9.920  -7.187   6.378  0.00  0.00    +0.045 A 
ATOM     31  C   UNL     1      -8.303  -6.182   7.864  0.00  0.00    +0.045 A 
ATOM     32  C   UNL     1     -10.949  -6.530   7.052  0.00  0.00    +0.004 A 
ATOM     33  C   UNL     1      -9.332  -5.524   8.539  0.00  0.00    +0.004 A 
ATOM     34  C   UNL     1     -10.655  -5.698   8.133  0.00  0.00    +0.000 A 
ENDBRANCH   4  29
ENDBRANCH  24   4
ENDBRANCH  21  24
ENDBRANCH  15   5
ENDBRANCH   9  15
BRANCH  11  16
ATOM     16  C   UNL     1      -3.277 -11.572  12.221  0.00  0.00    +0.103 C 
BRANCH  16  20
ATOM      1  O   UNL     1      -4.420 -13.159  13.645  0.00  0.00    -0.276 OA
ATOM      6  N   UNL     1      -3.464 -11.260  14.584  0.00  0.00    -0.314 N 
ATOM     20  C   UNL     1      -3.793 -12.109  13.537  0.00  0.00    +0.214 C 
ATOM     36  H   UNL     1      -2.931 -10.417  14.392  0.00  0.00    +0.149 HD
BRANCH   6  22
ATOM     22  C   UNL     1      -3.831 -11.521  15.956  0.00  0.00    +0.119 C 
BRANCH  22  23
ATOM     23  C   UNL     1      -4.664 -10.384  16.531  0.00  0.00    +0.103 C 
BRANCH  23   7
ATOM      3  O   UNL     1      -7.246 -10.697  19.824  0.00  0.00    -0.377 OA
ATOM      7  N   UNL     1      -5.647 -10.905  17.479  0.00  0.00    -0.297 NA
ATOM     25  C   UNL     1      -6.835 -10.041  17.525  0.00  0.00    +0.112 C 
ATOM     26  C   UNL     1      -5.062 -11.028  18.821  0.00  0.00    +0.112 C 
ATOM     27  C   UNL     1      -7.841 -10.597  18.529  0.00  0.00    +0.175 C 
ATOM     28  C   UNL     1      -6.109 -11.561  19.795  0.00  0.00    +0.175 C 
ENDBRANCH  23   7
ENDBRANCH  22  23
ENDBRANCH   6  22
ENDBRANCH  16  20
ENDBRANCH  11  16
TORSDOF 11
ENDMDL
MODEL 6
REMARK VINA RESULT:      -5.7      4.903      7.818
REMARK  Name = 38027120
REMARK  14 active torsions:
REMARK  status: ('A' for Active; 'I' for Inactive)
REMARK    1  A    between atoms: O_4  and  C_24
REMARK    2  A    between atoms: O_4  and  C_29
REMARK    3  A    between atoms: N_5  and  C_15
REMARK    4  A    between atoms: N_6  and  C_22
REMARK    5  A    between atoms: N_7  and  C_23
REMARK    6  A    between atoms: C_8  and  C_12
REMARK    7  A    between atoms: C_9  and  C_15
REMARK    8  A    between atoms: C_11  and  C_16
REMARK    9  A    between atoms: C_12  and  C_17
REMARK   10  A    between atoms: C_12  and  C_18
REMARK   11  A    between atoms: C_13  and  C_19
REMARK   12  A    between atoms: C_16  and  C_20
REMARK   13  A    between atoms: C_21  and  C_24
REMARK   14  A    between atoms: C_22  and  C_23
REMARK                            x       y       z     vdW  Elec       q    Type
REMARK                         _______ _______ _______ _____ _____    ______ ____
ROOT
ATOM      8  C   UNL     1      16.655   9.134  21.825  0.00  0.00    +0.000 C 
ATOM      9  C   UNL     1      15.740   8.173  21.024  0.00  0.00    +0.032 C 
ATOM     10  C   UNL     1      18.042   9.224  21.172  0.00  0.00    +0.012 C 
ATOM     11  C   UNL     1      18.734   7.850  21.085  0.00  0.00    +0.023 C 
ATOM     13  C   UNL     1      17.802   6.782  20.550  0.00  0.00    -0.073 C 
ATOM     14  C   UNL     1      16.468   6.949  20.518  0.00  0.00    -0.022 C 
ATOM     19  C   UNL     1      18.442   5.533  20.009  0.00  0.00    +0.039 C 
ENDROOT
BRANCH   8  12
ATOM     12  C   UNL     1      16.045  10.534  21.941  0.00  0.00    -0.013 C 
ATOM     17  C   UNL     1      17.037  11.495  22.588  0.00  0.00    +0.007 C 
ATOM     18  C   UNL     1      15.617  11.044  20.568  0.00  0.00    +0.007 C 
ENDBRANCH   8  12
BRANCH   9  15
ATOM     15  C   UNL     1      14.530   7.739  21.857  0.00  0.00    +0.112 C 
BRANCH  15   5
ATOM      2  O   UNL     1      12.042   6.349  21.362  0.00  0.00    -0.272 OA
ATOM      5  N   UNL     1      13.323   8.292  21.325  0.00  0.00    -0.312 N 
ATOM     21  C   UNL     1      12.163   7.546  21.117  0.00  0.00    +0.251 C 
ATOM     35  H   UNL     1      13.294   9.290  21.140  0.00  0.00    +0.149 HD
BRANCH  21  24
ATOM     24  C   UNL     1      11.039   8.384  20.546  0.00  0.00    +0.324 C 
BRANCH  24   4
ATOM      4  O   UNL     1      10.967   8.233  19.144  0.00  0.00    -0.483 OA
BRANCH   4  29
ATOM     29  C   UNL     1      12.089   8.559  18.420  0.00  0.00    +0.121 A 
ATOM     30  C   UNL     1      12.843   7.555  17.811  0.00  0.00    +0.045 A 
ATOM     31  C   UNL     1      12.475   9.893  18.293  0.00  0.00    +0.045 A 
ATOM     32  C   UNL     1      13.981   7.884  17.076  0.00  0.00    +0.004 A 
ATOM     33  C   UNL     1      13.613  10.223  17.557  0.00  0.00    +0.004 A 
ATOM     34  C   UNL     1      14.366   9.219  16.949  0.00  0.00    +0.000 A 
ENDBRANCH   4  29
ENDBRANCH  24   4
ENDBRANCH  21  24
ENDBRANCH  15   5
ENDBRANCH   9  15
BRANCH  11  16
ATOM     16  C   UNL     1      19.318   7.439  22.441  0.00  0.00    +0.103 C 
BRANCH  16  20
ATOM      1  O   UNL     1      20.914   5.725  23.047  0.00  0.00    -0.276 OA
ATOM      6  N   UNL     1      21.332   7.076  21.203  0.00  0.00    -0.314 N 
ATOM     20  C   UNL     1      20.592   6.638  22.292  0.00  0.00    +0.214 C 
ATOM     36  H   UNL     1      20.973   7.834  20.631  0.00  0.00    +0.149 HD
BRANCH   6  22
ATOM     22  C   UNL     1      22.597   6.492  20.823  0.00  0.00    +0.119 C 
BRANCH  22  23
ATOM     23  C   UNL     1      22.414   5.074  20.298  0.00  0.00    +0.103 C 
BRANCH  23   7
ATOM      3  O   UNL     1      24.993   2.558  22.451  0.00  0.00    -0.377 OA
ATOM      7  N   UNL     1      23.565   4.248  20.660  0.00  0.00    -0.297 NA
ATOM     25  C   UNL     1      23.153   2.858  20.898  0.00  0.00    +0.112 C 
ATOM     26  C   UNL     1      24.237   4.785  21.852  0.00  0.00    +0.112 C 
ATOM     27  C   UNL     1      24.366   2.017  21.287  0.00  0.00    +0.175 C 
ATOM     28  C   UNL     1      25.425   3.900  22.218  0.00  0.00    +0.175 C 
ENDBRANCH  23   7
ENDBRANCH  22  23
ENDBRANCH   6  22
ENDBRANCH  16  20
ENDBRANCH  11  16
TORSDOF 11
ENDMDL
MODEL 7
REMARK VINA RESULT:      -5.6     27.375     30.022
REMARK  Name = 38027120
REMARK  14 active torsions:
REMARK  status: ('A' for Active; 'I' for Inactive)
REMARK    1  A    between atoms: O_4  and  C_24
REMARK    2  A    between atoms: O_4  and  C_29
REMARK    3  A    between atoms: N_5  and  C_15
REMARK    4  A    between atoms: N_6  and  C_22
REMARK    5  A    between atoms: N_7  and  C_23
REMARK    6  A    between atoms: C_8  and  C_12
REMARK    7  A    between atoms: C_9  and  C_15
REMARK    8  A    between atoms: C_11  and  C_16
REMARK    9  A    between atoms: C_12  and  C_17
REMARK   10  A    between atoms: C_12  and  C_18
REMARK   11  A    between atoms: C_13  and  C_19
REMARK   12  A    between atoms: C_16  and  C_20
REMARK   13  A    between atoms: C_21  and  C_24
REMARK   14  A    between atoms: C_22  and  C_23
REMARK                            x       y       z     vdW  Elec       q    Type
REMARK                         _______ _______ _______ _____ _____    ______ ____
ROOT
ATOM      8  C   UNL     1      -3.925 -12.660  13.011  0.00  0.00    +0.000 C 
ATOM      9  C   UNL     1      -2.457 -12.502  12.542  0.00  0.00    +0.032 C 
ATOM     10  C   UNL     1      -4.892 -12.188  11.915  0.00  0.00    +0.012 C 
ATOM     11  C   UNL     1      -4.659 -10.716  11.528  0.00  0.00    +0.023 C 
ATOM     13  C   UNL     1      -3.190 -10.416  11.309  0.00  0.00    -0.073 C 
ATOM     14  C   UNL     1      -2.220 -11.233  11.757  0.00  0.00    -0.022 C 
ATOM     19  C   UNL     1      -2.861  -9.178  10.521  0.00  0.00    +0.039 C 
ENDROOT
BRANCH   8  12
ATOM     12  C   UNL     1      -4.246 -14.107  13.397  0.00  0.00    -0.013 C 
ATOM     17  C   UNL     1      -5.617 -14.190  14.059  0.00  0.00    +0.007 C 
ATOM     18  C   UNL     1      -4.182 -15.012  12.171  0.00  0.00    +0.007 C 
ENDBRANCH   8  12
BRANCH   9  15
ATOM     15  C   UNL     1      -1.488 -12.557  13.728  0.00  0.00    +0.112 C 
BRANCH  15   5
ATOM      2  O   UNL     1      -1.196 -10.028  15.101  0.00  0.00    -0.272 OA
ATOM      5  N   UNL     1      -2.138 -12.149  14.934  0.00  0.00    -0.312 N 
ATOM     21  C   UNL     1      -1.939 -10.905  15.532  0.00  0.00    +0.251 C 
ATOM     35  H   UNL     1      -2.821 -12.778  15.347  0.00  0.00    +0.149 HD
BRANCH  21  24
ATOM     24  C   UNL     1      -2.753 -10.740  16.797  0.00  0.00    +0.324 C 
BRANCH  24   4
ATOM      4  O   UNL     1      -3.876 -11.596  16.782  0.00  0.00    -0.483 OA
BRANCH   4  29
ATOM     29  C   UNL     1      -4.921 -11.276  17.616  0.00  0.00    +0.121 A 
ATOM     30  C   UNL     1      -4.835 -11.554  18.980  0.00  0.00    +0.045 A 
ATOM     31  C   UNL     1      -6.068 -10.673  17.099  0.00  0.00    +0.045 A 
ATOM     32  C   UNL     1      -5.894 -11.230  19.827  0.00  0.00    +0.004 A 
ATOM     33  C   UNL     1      -7.127 -10.348  17.945  0.00  0.00    +0.004 A 
ATOM     34  C   UNL     1      -7.041 -10.626  19.309  0.00  0.00    +0.000 A 
ENDBRANCH   4  29
ENDBRANCH  24   4
ENDBRANCH  21  24
ENDBRANCH  15   5
ENDBRANCH   9  15
BRANCH  11  16
ATOM     16  C   UNL     1      -5.263  -9.768  12.571  0.00  0.00    +0.103 C 
BRANCH  16  20
ATOM      1  O   UNL     1      -7.209  -9.226  11.240  0.00  0.00    -0.276 OA
ATOM      6  N   UNL     1      -7.463  -9.682  13.504  0.00  0.00    -0.314 N 
ATOM     20  C   UNL     1      -6.736  -9.525  12.333  0.00  0.00    +0.214 C 
ATOM     36  H   UNL     1      -6.979  -9.942  14.359  0.00  0.00    +0.149 HD
BRANCH   6  22
ATOM     22  C   UNL     1      -8.894  -9.509  13.573  0.00  0.00    +0.119 C 
BRANCH  22  23
ATOM     23  C   UNL     1      -9.341  -9.166  14.988  0.00  0.00    +0.103 C 
BRANCH  23   7
ATOM      3  O   UNL     1     -12.430  -6.584  16.173  0.00  0.00    -0.377 OA
ATOM      7  N   UNL     1     -10.376  -8.134  14.957  0.00  0.00    -0.297 NA
ATOM     25  C   UNL     1     -10.065  -7.056  15.907  0.00  0.00    +0.112 C 
ATOM     26  C   UNL     1     -11.693  -8.709  15.261  0.00  0.00    +0.112 C 
ATOM     27  C   UNL     1     -11.164  -5.998  15.866  0.00  0.00    +0.175 C 
ATOM     28  C   UNL     1     -12.754  -7.612  15.235  0.00  0.00    +0.175 C 
ENDBRANCH  23   7
ENDBRANCH  22  23
ENDBRANCH   6  22
ENDBRANCH  16  20
ENDBRANCH  11  16
TORSDOF 11
ENDMDL
MODEL 8
REMARK VINA RESULT:      -5.6     27.433     30.641
REMARK  Name = 38027120
REMARK  14 active torsions:
REMARK  status: ('A' for Active; 'I' for Inactive)
REMARK    1  A    between atoms: O_4  and  C_24
REMARK    2  A    between atoms: O_4  and  C_29
REMARK    3  A    between atoms: N_5  and  C_15
REMARK    4  A    between atoms: N_6  and  C_22
REMARK    5  A    between atoms: N_7  and  C_23
REMARK    6  A    between atoms: C_8  and  C_12
REMARK    7  A    between atoms: C_9  and  C_15
REMARK    8  A    between atoms: C_11  and  C_16
REMARK    9  A    between atoms: C_12  and  C_17
REMARK   10  A    between atoms: C_12  and  C_18
REMARK   11  A    between atoms: C_13  and  C_19
REMARK   12  A    between atoms: C_16  and  C_20
REMARK   13  A    between atoms: C_21  and  C_24
REMARK   14  A    between atoms: C_22  and  C_23
REMARK                            x       y       z     vdW  Elec       q    Type
REMARK                         _______ _______ _______ _____ _____    ______ ____
ROOT
ATOM      8  C   UNL     1      -5.958 -10.766  17.196  0.00  0.00    +0.000 C 
ATOM      9  C   UNL     1      -4.810 -11.604  16.580  0.00  0.00    +0.032 C 
ATOM     10  C   UNL     1      -7.319 -11.403  16.877  0.00  0.00    +0.012 C 
ATOM     11  C   UNL     1      -7.564 -11.524  15.362  0.00  0.00    +0.023 C 
ATOM     13  C   UNL     1      -6.361 -12.100  14.641  0.00  0.00    -0.073 C 
ATOM     14  C   UNL     1      -5.142 -12.140  15.206  0.00  0.00    -0.022 C 
ATOM     19  C   UNL     1      -6.603 -12.672  13.271  0.00  0.00    +0.039 C 
ENDROOT
BRANCH   8  12
ATOM     12  C   UNL     1      -5.799 -10.614  18.712  0.00  0.00    -0.013 C 
ATOM     17  C   UNL     1      -7.165 -10.495  19.381  0.00  0.00    +0.007 C 
ATOM     18  C   UNL     1      -5.017 -11.791  19.286  0.00  0.00    +0.007 C 
ENDBRANCH   8  12
BRANCH   9  15
ATOM     15  C   UNL     1      -3.510 -10.796  16.512  0.00  0.00    +0.112 C 
BRANCH  15   5
ATOM      2  O   UNL     1      -0.947 -11.170  15.224  0.00  0.00    -0.272 OA
ATOM      5  N   UNL     1      -3.172 -10.490  15.157  0.00  0.00    -0.312 N 
ATOM     21  C   UNL     1      -1.905 -10.702  14.614  0.00  0.00    +0.251 C 
ATOM     35  H   UNL     1      -3.908 -10.149  14.545  0.00  0.00    +0.149 HD
BRANCH  21  24
ATOM     24  C   UNL     1      -1.829 -10.289  13.160  0.00  0.00    +0.324 C 
BRANCH  24   4
ATOM      4  O   UNL     1      -2.843 -10.922  12.408  0.00  0.00    -0.483 OA
BRANCH   4  29
ATOM     29  C   UNL     1      -3.619 -10.122  11.604  0.00  0.00    +0.121 A 
ATOM     30  C   UNL     1      -4.895  -9.742  12.021  0.00  0.00    +0.045 A 
ATOM     31  C   UNL     1      -3.133  -9.692  10.370  0.00  0.00    +0.045 A 
ATOM     32  C   UNL     1      -5.684  -8.931  11.205  0.00  0.00    +0.004 A 
ATOM     33  C   UNL     1      -3.921  -8.881   9.554  0.00  0.00    +0.004 A 
ATOM     34  C   UNL     1      -5.196  -8.500   9.971  0.00  0.00    +0.000 A 
ENDBRANCH   4  29
ENDBRANCH  24   4
ENDBRANCH  21  24
ENDBRANCH  15   5
ENDBRANCH   9  15
BRANCH  11  16
ATOM     16  C   UNL     1      -7.971 -10.175  14.758  0.00  0.00    +0.103 C 
BRANCH  16  20
ATOM      1  O   UNL     1      -9.276  -8.571  16.013  0.00  0.00    -0.276 OA
ATOM      6  N   UNL     1     -10.308 -10.474  15.168  0.00  0.00    -0.314 N 
ATOM     20  C   UNL     1      -9.231  -9.627  15.389  0.00  0.00    +0.214 C 
ATOM     36  H   UNL     1     -10.170 -11.323  14.627  0.00  0.00    +0.149 HD
BRANCH   6  22
ATOM     22  C   UNL     1     -11.639 -10.202  15.658  0.00  0.00    +0.119 C 
BRANCH  22  23
ATOM     23  C   UNL     1     -12.595  -9.889  14.515  0.00  0.00    +0.103 C 
BRANCH  23   7
ATOM      3  O   UNL     1     -12.288  -5.720  14.891  0.00  0.00    -0.377 OA
ATOM      7  N   UNL     1     -12.932  -8.467  14.512  0.00  0.00    -0.297 NA
ATOM     25  C   UNL     1     -12.094  -7.735  13.552  0.00  0.00    +0.112 C 
ATOM     26  C   UNL     1     -12.779  -7.892  15.855  0.00  0.00    +0.112 C 
ATOM     27  C   UNL     1     -12.455  -6.252  13.575  0.00  0.00    +0.175 C 
ATOM     28  C   UNL     1     -13.124  -6.406  15.825  0.00  0.00    +0.175 C 
ENDBRANCH  23   7
ENDBRANCH  22  23
ENDBRANCH   6  22
ENDBRANCH  16  20
ENDBRANCH  11  16
TORSDOF 11
ENDMDL
MODEL 9
REMARK VINA RESULT:      -5.6     27.504     30.271
REMARK  Name = 38027120
REMARK  14 active torsions:
REMARK  status: ('A' for Active; 'I' for Inactive)
REMARK    1  A    between atoms: O_4  and  C_24
REMARK    2  A    between atoms: O_4  and  C_29
REMARK    3  A    between atoms: N_5  and  C_15
REMARK    4  A    between atoms: N_6  and  C_22
REMARK    5  A    between atoms: N_7  and  C_23
REMARK    6  A    between atoms: C_8  and  C_12
REMARK    7  A    between atoms: C_9  and  C_15
REMARK    8  A    between atoms: C_11  and  C_16
REMARK    9  A    between atoms: C_12  and  C_17
REMARK   10  A    between atoms: C_12  and  C_18
REMARK   11  A    between atoms: C_13  and  C_19
REMARK   12  A    between atoms: C_16  and  C_20
REMARK   13  A    between atoms: C_21  and  C_24
REMARK   14  A    between atoms: C_22  and  C_23
REMARK                            x       y       z     vdW  Elec       q    Type
REMARK                         _______ _______ _______ _____ _____    ______ ____
ROOT
ATOM      8  C   UNL     1      -4.283 -12.607  13.019  0.00  0.00    +0.000 C 
ATOM      9  C   UNL     1      -2.832 -12.642  12.476  0.00  0.00    +0.032 C 
ATOM     10  C   UNL     1      -5.240 -12.044  11.957  0.00  0.00    +0.012 C 
ATOM     11  C   UNL     1      -4.848 -10.620  11.519  0.00  0.00    +0.023 C 
ATOM     13  C   UNL     1      -3.367 -10.508  11.222  0.00  0.00    -0.073 C 
ATOM     14  C   UNL     1      -2.483 -11.428  11.646  0.00  0.00    -0.022 C 
ATOM     19  C   UNL     1      -2.929  -9.337  10.385  0.00  0.00    +0.039 C 
ENDROOT
BRANCH   8  12
ATOM     12  C   UNL     1      -4.758 -13.995  13.460  0.00  0.00    -0.013 C 
ATOM     17  C   UNL     1      -6.264 -13.992  13.696  0.00  0.00    +0.007 C 
ATOM     18  C   UNL     1      -4.376 -15.044  12.420  0.00  0.00    +0.007 C 
ENDBRANCH   8  12
BRANCH   9  15
ATOM     15  C   UNL     1      -1.819 -12.790  13.616  0.00  0.00    +0.112 C 
BRANCH  15   5
ATOM      2  O   UNL     1      -1.340 -10.171  14.748  0.00  0.00    -0.272 OA
ATOM      5  N   UNL     1      -2.347 -12.267  14.837  0.00  0.00    -0.312 N 
ATOM     21  C   UNL     1      -2.063 -10.987  15.312  0.00  0.00    +0.251 C 
ATOM     35  H   UNL     1      -3.006 -12.839  15.358  0.00  0.00    +0.149 HD
BRANCH  21  24
ATOM     24  C   UNL     1      -2.756 -10.697  16.626  0.00  0.00    +0.324 C 
BRANCH  24   4
ATOM      4  O   UNL     1      -4.141 -10.505  16.427  0.00  0.00    -0.483 OA
BRANCH   4  29
ATOM     29  C   UNL     1      -4.995 -11.147  17.292  0.00  0.00    +0.121 A 
ATOM     30  C   UNL     1      -5.263 -10.595  18.545  0.00  0.00    +0.045 A 
ATOM     31  C   UNL     1      -5.593 -12.350  16.919  0.00  0.00    +0.045 A 
ATOM     32  C   UNL     1      -6.129 -11.245  19.424  0.00  0.00    +0.004 A 
ATOM     33  C   UNL     1      -6.459 -13.001  17.797  0.00  0.00    +0.004 A 
ATOM     34  C   UNL     1      -6.727 -12.448  19.050  0.00  0.00    +0.000 A 
ENDBRANCH   4  29
ENDBRANCH  24   4
ENDBRANCH  21  24
ENDBRANCH  15   5
ENDBRANCH   9  15
BRANCH  11  16
ATOM     16  C   UNL     1      -5.278  -9.583  12.562  0.00  0.00    +0.103 C 
BRANCH  16  20
ATOM      1  O   UNL     1      -7.628  -9.561  11.987  0.00  0.00    -0.276 OA
ATOM      6  N   UNL     1      -6.997  -9.815  14.209  0.00  0.00    -0.314 N 
ATOM     20  C   UNL     1      -6.761  -9.648  12.852  0.00  0.00    +0.214 C 
ATOM     36  H   UNL     1      -6.209  -9.888  14.845  0.00  0.00    +0.149 HD
BRANCH   6  22
ATOM     22  C   UNL     1      -8.322  -9.909  14.773  0.00  0.00    +0.119 C 
BRANCH  22  23
ATOM     23  C   UNL     1      -8.346  -9.412  16.212  0.00  0.00    +0.103 C 
BRANCH  23   7
ATOM      3  O   UNL     1     -10.975 -11.913  18.322  0.00  0.00    -0.377 OA
ATOM      7  N   UNL     1      -8.857 -10.454  17.101  0.00  0.00    -0.297 NA
ATOM     25  C   UNL     1      -9.646 -11.439  16.348  0.00  0.00    +0.112 C 
ATOM     26  C   UNL     1      -9.673  -9.870  18.174  0.00  0.00    +0.112 C 
ATOM     27  C   UNL     1     -10.180 -12.509  17.296  0.00  0.00    +0.175 C 
ATOM     28  C   UNL     1     -10.206 -10.977  19.079  0.00  0.00    +0.175 C 
ENDBRANCH  23   7
ENDBRANCH  22  23
ENDBRANCH   6  22
ENDBRANCH  16  20
ENDBRANCH  11  16
TORSDOF 11
ENDMDL
MODEL 10
REMARK VINA RESULT:      -5.5     27.415     30.660
REMARK  Name = 38027120
REMARK  14 active torsions:
REMARK  status: ('A' for Active; 'I' for Inactive)
REMARK    1  A    between atoms: O_4  and  C_24
REMARK    2  A    between atoms: O_4  and  C_29
REMARK    3  A    between atoms: N_5  and  C_15
REMARK    4  A    between atoms: N_6  and  C_22
REMARK    5  A    between atoms: N_7  and  C_23
REMARK    6  A    between atoms: C_8  and  C_12
REMARK    7  A    between atoms: C_9  and  C_15
REMARK    8  A    between atoms: C_11  and  C_16
REMARK    9  A    between atoms: C_12  and  C_17
REMARK   10  A    between atoms: C_12  and  C_18
REMARK   11  A    between atoms: C_13  and  C_19
REMARK   12  A    between atoms: C_16  and  C_20
REMARK   13  A    between atoms: C_21  and  C_24
REMARK   14  A    between atoms: C_22  and  C_23
REMARK                            x       y       z     vdW  Elec       q    Type
REMARK                         _______ _______ _______ _____ _____    ______ ____
ROOT
ATOM      8  C   UNL     1      -3.868 -12.894  12.960  0.00  0.00    +0.000 C 
ATOM      9  C   UNL     1      -2.391 -12.627  12.577  0.00  0.00    +0.032 C 
ATOM     10  C   UNL     1      -4.805 -12.456  11.824  0.00  0.00    +0.012 C 
ATOM     11  C   UNL     1      -4.650 -10.961  11.487  0.00  0.00    +0.023 C 
ATOM     13  C   UNL     1      -3.195 -10.559  11.357  0.00  0.00    -0.073 C 
ATOM     14  C   UNL     1      -2.198 -11.323  11.838  0.00  0.00    -0.022 C 
ATOM     19  C   UNL     1      -2.908  -9.281  10.619  0.00  0.00    +0.039 C 
ENDROOT
BRANCH   8  12
ATOM     12  C   UNL     1      -4.111 -14.370  13.292  0.00  0.00    -0.013 C 
ATOM     17  C   UNL     1      -5.028 -14.498  14.504  0.00  0.00    +0.007 C 
ATOM     18  C   UNL     1      -4.702 -15.096  12.088  0.00  0.00    +0.007 C 
ENDBRANCH   8  12
BRANCH   9  15
ATOM     15  C   UNL     1      -1.486 -12.652  13.813  0.00  0.00    +0.112 C 
BRANCH  15   5
ATOM      2  O   UNL     1      -1.228 -10.058  15.067  0.00  0.00    -0.272 OA
ATOM      5  N   UNL     1      -2.186 -12.176  14.965  0.00  0.00    -0.312 N 
ATOM     21  C   UNL     1      -2.000 -10.905  15.507  0.00  0.00    +0.251 C 
ATOM     35  H   UNL     1      -2.894 -12.777  15.378  0.00  0.00    +0.149 HD
BRANCH  21  24
ATOM     24  C   UNL     1      -2.870 -10.667  16.723  0.00  0.00    +0.324 C 
BRANCH  24   4
ATOM      4  O   UNL     1      -4.193 -10.359  16.336  0.00  0.00    -0.483 OA
BRANCH   4  29
ATOM     29  C   UNL     1      -5.169 -10.462  17.299  0.00  0.00    +0.121 A 
ATOM     30  C   UNL     1      -6.445  -9.952  17.056  0.00  0.00    +0.045 A 
ATOM     31  C   UNL     1      -4.884 -11.076  18.518  0.00  0.00    +0.045 A 
ATOM     32  C   UNL     1      -7.435 -10.056  18.032  0.00  0.00    +0.004 A 
ATOM     33  C   UNL     1      -5.875 -11.181  19.494  0.00  0.00    +0.004 A 
ATOM     34  C   UNL     1      -7.150 -10.671  19.252  0.00  0.00    +0.000 A 
ENDBRANCH   4  29
ENDBRANCH  24   4
ENDBRANCH  21  24
ENDBRANCH  15   5
ENDBRANCH   9  15
BRANCH  11  16
ATOM     16  C   UNL     1      -5.371 -10.085  12.517  0.00  0.00    +0.103 C 
BRANCH  16  20
ATOM      1  O   UNL     1      -7.711  -9.506  12.718  0.00  0.00    -0.276 OA
ATOM      6  N   UNL     1      -6.650  -9.281  10.663  0.00  0.00    -0.314 N 
ATOM     20  C   UNL     1      -6.711  -9.598  12.012  0.00  0.00    +0.214 C 
ATOM     36  H   UNL     1      -5.769  -9.382  10.168  0.00  0.00    +0.149 HD
BRANCH   6  22
ATOM     22  C   UNL     1      -7.784  -8.791   9.916  0.00  0.00    +0.119 C 
BRANCH  22  23
ATOM     23  C   UNL     1      -7.978  -9.579   8.628  0.00  0.00    +0.103 C 
BRANCH  23   7
ATOM      3  O   UNL     1      -8.378  -7.999   4.760  0.00  0.00    -0.377 OA
ATOM      7  N   UNL     1      -7.853  -8.696   7.470  0.00  0.00    -0.297 NA
ATOM     25  C   UNL     1      -9.171  -8.205   7.044  0.00  0.00    +0.112 C 
ATOM     26  C   UNL     1      -7.190  -9.388   6.356  0.00  0.00    +0.112 C 
ATOM     27  C   UNL     1      -9.017  -7.297   5.828  0.00  0.00    +0.175 C 
ATOM     28  C   UNL     1      -7.082  -8.452   5.156  0.00  0.00    +0.175 C 
ENDBRANCH  23   7
ENDBRANCH  22  23
ENDBRANCH   6  22
ENDBRANCH  16  20
ENDBRANCH  11  16
TORSDOF 11
ENDMDL
