MODEL 1
REMARK VINA RESULT:      -6.9      0.000      0.000
REMARK  Name = 11887237
REMARK  4 active torsions:
REMARK  status: ('A' for Active; 'I' for Inactive)
REMARK    1  A    between atoms: N_6  and  C_13
REMARK    2  A    between atoms: N_7  and  C_14
REMARK    3  A    between atoms: C_17  and  C_19
REMARK    4  A    between atoms: C_18  and  C_20
REMARK                            x       y       z     vdW  Elec       q    Type
REMARK                         _______ _______ _______ _____ _____    ______ ____
ROOT
ATOM      1  O   UNL     1     -13.918   2.312  33.524  0.00  0.00    -0.370 OA
ATOM      2  O   UNL     1     -16.259   3.891  32.138  0.00  0.00    -0.370 OA
ATOM     11  C   UNL     1     -15.136   3.137  31.647  0.00  0.00    +0.176 C 
ATOM     12  C   UNL     1     -13.975   3.399  32.587  0.00  0.00    +0.171 C 
ATOM     13  C   UNL     1     -15.413   1.651  31.783  0.00  0.00    +0.168 C 
ATOM     14  C   UNL     1     -14.349   4.682  33.295  0.00  0.00    +0.130 C 
ATOM     15  C   UNL     1     -14.915   1.336  33.190  0.00  0.00    +0.190 C 
ATOM     16  C   UNL     1     -15.864   4.610  33.315  0.00  0.00    +0.185 C 
ENDROOT
BRANCH  13   6
ATOM      6  N   UNL     1     -14.793   0.864  30.715  0.00  0.00    -0.217 N 
ATOM      8  N   UNL     1     -13.775   0.041  30.981  0.00  0.00    -0.043 NA
ATOM      9  N   UNL     1     -14.279  -0.023  28.811  0.00  0.00    -0.108 NA
ATOM     10  N   UNL     1     -13.464  -0.502  29.811  0.00  0.00    -0.023 NA
ATOM     17  C   UNL     1     -15.097   0.822  29.395  0.00  0.00    +0.182 A 
BRANCH  17  19
ATOM      4  O   UNL     1     -16.820   4.802  27.126  0.00  0.00    -0.453 OA
ATOM      5  O   UNL     1     -19.039   3.877  26.964  0.00  0.00    -0.453 OA
ATOM     19  C   UNL     1     -16.143   1.589  28.769  0.00  0.00    +0.024 A 
ATOM     21  C   UNL     1     -15.866   2.862  28.261  0.00  0.00    +0.061 A 
ATOM     22  C   UNL     1     -17.441   1.050  28.674  0.00  0.00    +0.015 A 
ATOM     23  C   UNL     1     -16.902   3.557  27.671  0.00  0.00    +0.167 A 
ATOM     26  C   UNL     1     -18.471   1.776  28.071  0.00  0.00    +0.050 A 
ATOM     27  C   UNL     1     -18.168   3.029  27.578  0.00  0.00    +0.166 A 
ATOM     30  C   UNL     1     -18.177   4.997  26.679  0.00  0.00    +0.466 C 
ENDBRANCH  17  19
ENDBRANCH  13   6
BRANCH  14   7
ATOM      3  O   UNL     1     -13.616   7.233  34.391  0.00  0.00    -0.270 OA
ATOM      7  N   UNL     1     -13.890   5.836  32.560  0.00  0.00    -0.304 N 
ATOM     18  C   UNL     1     -13.558   7.032  33.181  0.00  0.00    +0.244 C 
ATOM     32  H   UNL     1     -13.928   5.779  31.548  0.00  0.00    +0.149 HD
BRANCH  18  20
ATOM     20  C   UNL     1     -13.129   8.133  32.283  0.00  0.00    +0.037 A 
ATOM     24  C   UNL     1     -11.780   8.378  32.126  0.00  0.00    +0.013 A 
ATOM     25  C   UNL     1     -14.092   8.878  31.633  0.00  0.00    +0.013 A 
ATOM     28  C   UNL     1     -11.377   9.414  31.283  0.00  0.00    +0.001 A 
ATOM     29  C   UNL     1     -13.689   9.913  30.791  0.00  0.00    +0.001 A 
ATOM     31  C   UNL     1     -12.331  10.181  30.615  0.00  0.00    +0.000 A 
ENDBRANCH  18  20
ENDBRANCH  14   7
TORSDOF 4
ENDMDL
MODEL 2
REMARK VINA RESULT:      -6.9     30.250     32.909
REMARK  Name = 11887237
REMARK  4 active torsions:
REMARK  status: ('A' for Active; 'I' for Inactive)
REMARK    1  A    between atoms: N_6  and  C_13
REMARK    2  A    between atoms: N_7  and  C_14
REMARK    3  A    between atoms: C_17  and  C_19
REMARK    4  A    between atoms: C_18  and  C_20
REMARK                            x       y       z     vdW  Elec       q    Type
REMARK                         _______ _______ _______ _____ _____    ______ ____
ROOT
ATOM      1  O   UNL     1      13.322  10.302  18.066  0.00  0.00    -0.370 OA
ATOM      2  O   UNL     1      13.299   8.516  15.476  0.00  0.00    -0.370 OA
ATOM     11  C   UNL     1      14.115   8.545  16.662  0.00  0.00    +0.176 C 
ATOM     12  C   UNL     1      14.290  10.001  17.049  0.00  0.00    +0.171 C 
ATOM     13  C   UNL     1      13.359   7.926  17.823  0.00  0.00    +0.168 C 
ATOM     14  C   UNL     1      13.976  10.765  15.783  0.00  0.00    +0.130 C 
ATOM     15  C   UNL     1      12.597   9.111  18.407  0.00  0.00    +0.190 C 
ATOM     16  C   UNL     1      12.968   9.861  15.101  0.00  0.00    +0.185 C 
ENDROOT
BRANCH  13   6
ATOM      6  N   UNL     1      14.243   7.232  18.762  0.00  0.00    -0.217 N 
ATOM      8  N   UNL     1      15.339   6.604  18.326  0.00  0.00    -0.043 NA
ATOM      9  N   UNL     1      15.154   6.400  20.538  0.00  0.00    -0.108 NA
ATOM     10  N   UNL     1      15.895   6.096  19.419  0.00  0.00    -0.023 NA
ATOM     17  C   UNL     1      14.134   7.107  20.107  0.00  0.00    +0.182 A 
BRANCH  17  19
ATOM      4  O   UNL     1      12.160  10.591  22.920  0.00  0.00    -0.453 OA
ATOM      5  O   UNL     1      10.107   9.357  23.188  0.00  0.00    -0.453 OA
ATOM     19  C   UNL     1      13.068   7.663  20.900  0.00  0.00    +0.024 A 
ATOM     21  C   UNL     1      13.231   8.912  21.508  0.00  0.00    +0.061 A 
ATOM     22  C   UNL     1      11.868   6.944  21.058  0.00  0.00    +0.015 A 
ATOM     23  C   UNL     1      12.181   9.402  22.258  0.00  0.00    +0.167 A 
ATOM     26  C   UNL     1      10.821   7.463  21.823  0.00  0.00    +0.050 A 
ATOM     27  C   UNL     1      11.009   8.698  22.411  0.00  0.00    +0.166 A 
ATOM     30  C   UNL     1      10.843  10.556  23.506  0.00  0.00    +0.466 C 
ENDBRANCH  17  19
ENDBRANCH  13   6
BRANCH  14   7
ATOM      3  O   UNL     1      15.862  12.925  15.938  0.00  0.00    -0.270 OA
ATOM      7  N   UNL     1      15.157  10.938  14.972  0.00  0.00    -0.304 N 
ATOM     18  C   UNL     1      16.012  12.021  15.121  0.00  0.00    +0.244 C 
ATOM     32  H   UNL     1      15.281  10.293  14.199  0.00  0.00    +0.149 HD
BRANCH  18  20
ATOM     20  C   UNL     1      17.169  12.069  14.191  0.00  0.00    +0.037 A 
ATOM     24  C   UNL     1      18.426  11.773  14.675  0.00  0.00    +0.013 A 
ATOM     25  C   UNL     1      16.949  12.408  12.871  0.00  0.00    +0.013 A 
ATOM     28  C   UNL     1      19.513  11.819  13.802  0.00  0.00    +0.001 A 
ATOM     29  C   UNL     1      18.036  12.454  11.998  0.00  0.00    +0.001 A 
ATOM     31  C   UNL     1      19.318  12.159  12.463  0.00  0.00    +0.000 A 
ENDBRANCH  18  20
ENDBRANCH  14   7
TORSDOF 4
ENDMDL
MODEL 3
REMARK VINA RESULT:      -6.7     38.790     40.563
REMARK  Name = 11887237
REMARK  4 active torsions:
REMARK  status: ('A' for Active; 'I' for Inactive)
REMARK    1  A    between atoms: N_6  and  C_13
REMARK    2  A    between atoms: N_7  and  C_14
REMARK    3  A    between atoms: C_17  and  C_19
REMARK    4  A    between atoms: C_18  and  C_20
REMARK                            x       y       z     vdW  Elec       q    Type
REMARK                         _______ _______ _______ _____ _____    ______ ____
ROOT
ATOM      1  O   UNL     1      12.682   9.312   4.178  0.00  0.00    -0.370 OA
ATOM      2  O   UNL     1      14.418   7.872   1.986  0.00  0.00    -0.370 OA
ATOM     11  C   UNL     1      13.712   7.420   3.156  0.00  0.00    +0.176 C 
ATOM     12  C   UNL     1      13.863   8.496   4.213  0.00  0.00    +0.171 C 
ATOM     13  C   UNL     1      12.222   7.367   2.871  0.00  0.00    +0.168 C 
ATOM     14  C   UNL     1      15.066   9.295   3.764  0.00  0.00    +0.130 C 
ATOM     15  C   UNL     1      11.755   8.775   3.223  0.00  0.00    +0.190 C 
ATOM     16  C   UNL     1      15.004   9.153   2.255  0.00  0.00    +0.185 C 
ENDROOT
BRANCH  13   6
ATOM      6  N   UNL     1      11.549   6.290   3.600  0.00  0.00    -0.217 N 
ATOM      8  N   UNL     1      11.084   6.494   4.835  0.00  0.00    -0.043 NA
ATOM      9  N   UNL     1      10.671   4.403   4.184  0.00  0.00    -0.108 NA
ATOM     10  N   UNL     1      10.545   5.334   5.189  0.00  0.00    -0.023 NA
ATOM     17  C   UNL     1      11.296   5.018   3.207  0.00  0.00    +0.182 A 
BRANCH  17  19
ATOM      4  O   UNL     1      10.411   3.899  -1.474  0.00  0.00    -0.453 OA
ATOM      5  O   UNL     1      12.593   2.917  -1.761  0.00  0.00    -0.453 OA
ATOM     19  C   UNL     1      11.665   4.465   1.930  0.00  0.00    +0.024 A 
ATOM     21  C   UNL     1      10.757   4.500   0.867  0.00  0.00    +0.061 A 
ATOM     22  C   UNL     1      12.939   3.891   1.760  0.00  0.00    +0.015 A 
ATOM     23  C   UNL     1      11.156   3.956  -0.338  0.00  0.00    +0.167 A 
ATOM     26  C   UNL     1      13.318   3.347   0.530  0.00  0.00    +0.050 A 
ATOM     27  C   UNL     1      12.402   3.396  -0.501  0.00  0.00    +0.166 A 
ATOM     30  C   UNL     1      11.327   3.241  -2.372  0.00  0.00    +0.466 C 
ENDBRANCH  17  19
ENDBRANCH  13   6
BRANCH  14   7
ATOM      3  O   UNL     1      17.540  10.690   4.193  0.00  0.00    -0.270 OA
ATOM      7  N   UNL     1      16.288   8.739   4.292  0.00  0.00    -0.304 N 
ATOM     18  C   UNL     1      17.439   9.495   4.463  0.00  0.00    +0.244 C 
ATOM     32  H   UNL     1      16.313   7.734   4.428  0.00  0.00    +0.149 HD
BRANCH  18  20
ATOM     20  C   UNL     1      18.622   8.770   4.992  0.00  0.00    +0.037 A 
ATOM     24  C   UNL     1      18.978   8.949   6.313  0.00  0.00    +0.013 A 
ATOM     25  C   UNL     1      19.327   7.939   4.146  0.00  0.00    +0.013 A 
ATOM     28  C   UNL     1      20.089   8.268   6.809  0.00  0.00    +0.001 A 
ATOM     29  C   UNL     1      20.439   7.259   4.642  0.00  0.00    +0.001 A 
ATOM     31  C   UNL     1      20.820   7.423   5.974  0.00  0.00    +0.000 A 
ENDBRANCH  18  20
ENDBRANCH  14   7
TORSDOF 4
ENDMDL
MODEL 4
REMARK VINA RESULT:      -6.6     45.808     47.685
REMARK  Name = 11887237
REMARK  4 active torsions:
REMARK  status: ('A' for Active; 'I' for Inactive)
REMARK    1  A    between atoms: N_6  and  C_13
REMARK    2  A    between atoms: N_7  and  C_14
REMARK    3  A    between atoms: C_17  and  C_19
REMARK    4  A    between atoms: C_18  and  C_20
REMARK                            x       y       z     vdW  Elec       q    Type
REMARK                         _______ _______ _______ _____ _____    ______ ____
ROOT
ATOM      1  O   UNL     1      19.791 -11.733  -2.393  0.00  0.00    -0.370 OA
ATOM      2  O   UNL     1      18.431 -10.611   0.212  0.00  0.00    -0.370 OA
ATOM     11  C   UNL     1      18.030 -11.558  -0.795  0.00  0.00    +0.176 C 
ATOM     12  C   UNL     1      18.557 -11.050  -2.123  0.00  0.00    +0.171 C 
ATOM     13  C   UNL     1      18.746 -12.878  -0.576  0.00  0.00    +0.168 C 
ATOM     14  C   UNL     1      18.813  -9.579  -1.885  0.00  0.00    +0.130 C 
ATOM     15  C   UNL     1      20.040 -12.701  -1.364  0.00  0.00    +0.190 C 
ATOM     16  C   UNL     1      19.164  -9.546  -0.410  0.00  0.00    +0.185 C 
ENDROOT
BRANCH  13   6
ATOM      6  N   UNL     1      17.933 -14.030  -0.971  0.00  0.00    -0.217 N 
ATOM      8  N   UNL     1      18.103 -14.605  -2.165  0.00  0.00    -0.043 NA
ATOM      9  N   UNL     1      16.500 -15.648  -1.022  0.00  0.00    -0.108 NA
ATOM     10  N   UNL     1      17.222 -15.597  -2.192  0.00  0.00    -0.023 NA
ATOM     17  C   UNL     1      16.958 -14.667  -0.278  0.00  0.00    +0.182 A 
BRANCH  17  19
ATOM      4  O   UNL     1      17.043 -15.064   4.599  0.00  0.00    -0.453 OA
ATOM      5  O   UNL     1      15.355 -13.365   4.870  0.00  0.00    -0.453 OA
ATOM     19  C   UNL     1      16.520 -14.305   1.044  0.00  0.00    +0.024 A 
ATOM     21  C   UNL     1      17.075 -14.940   2.160  0.00  0.00    +0.061 A 
ATOM     22  C   UNL     1      15.534 -13.313   1.206  0.00  0.00    +0.015 A 
ATOM     23  C   UNL     1      16.622 -14.558   3.408  0.00  0.00    +0.167 A 
ATOM     26  C   UNL     1      15.093 -12.946   2.480  0.00  0.00    +0.050 A 
ATOM     27  C   UNL     1      15.659 -13.589   3.562  0.00  0.00    +0.166 A 
ATOM     30  C   UNL     1      16.237 -14.303   5.521  0.00  0.00    +0.466 C 
ENDBRANCH  17  19
ENDBRANCH  13   6
BRANCH  14   7
ATOM      3  O   UNL     1      18.451  -7.737  -4.059  0.00  0.00    -0.270 OA
ATOM      7  N   UNL     1      17.635  -8.793  -2.161  0.00  0.00    -0.304 N 
ATOM     18  C   UNL     1      17.553  -7.925  -3.240  0.00  0.00    +0.244 C 
ATOM     32  H   UNL     1      16.900  -8.809  -1.463  0.00  0.00    +0.149 HD
BRANCH  18  20
ATOM     20  C   UNL     1      16.283  -7.167  -3.371  0.00  0.00    +0.037 A 
ATOM     24  C   UNL     1      16.333  -5.791  -3.451  0.00  0.00    +0.013 A 
ATOM     25  C   UNL     1      15.093  -7.864  -3.408  0.00  0.00    +0.013 A 
ATOM     28  C   UNL     1      15.139  -5.080  -3.573  0.00  0.00    +0.001 A 
ATOM     29  C   UNL     1      13.899  -7.153  -3.530  0.00  0.00    +0.001 A 
ATOM     31  C   UNL     1      13.922  -5.760  -3.613  0.00  0.00    +0.000 A 
ENDBRANCH  18  20
ENDBRANCH  14   7
TORSDOF 4
ENDMDL
MODEL 5
REMARK VINA RESULT:      -6.5     37.995     39.806
REMARK  Name = 11887237
REMARK  4 active torsions:
REMARK  status: ('A' for Active; 'I' for Inactive)
REMARK    1  A    between atoms: N_6  and  C_13
REMARK    2  A    between atoms: N_7  and  C_14
REMARK    3  A    between atoms: C_17  and  C_19
REMARK    4  A    between atoms: C_18  and  C_20
REMARK                            x       y       z     vdW  Elec       q    Type
REMARK                         _______ _______ _______ _____ _____    ______ ____
ROOT
ATOM      1  O   UNL     1       9.600   7.857   1.052  0.00  0.00    -0.370 OA
ATOM      2  O   UNL     1      12.378   7.074   2.302  0.00  0.00    -0.370 OA
ATOM     11  C   UNL     1      11.339   6.334   1.634  0.00  0.00    +0.176 C 
ATOM     12  C   UNL     1      10.015   6.931   2.068  0.00  0.00    +0.171 C 
ATOM     13  C   UNL     1      11.406   6.588   0.139  0.00  0.00    +0.168 C 
ATOM     14  C   UNL     1      10.337   7.667   3.348  0.00  0.00    +0.130 C 
ATOM     15  C   UNL     1      10.534   7.827  -0.036  0.00  0.00    +0.190 C 
ATOM     16  C   UNL     1      11.779   8.083   3.128  0.00  0.00    +0.185 C 
ENDROOT
BRANCH  13   6
ATOM      6  N   UNL     1      10.994   5.423  -0.647  0.00  0.00    -0.217 N 
ATOM      8  N   UNL     1       9.705   5.222  -0.939  0.00  0.00    -0.043 NA
ATOM      9  N   UNL     1      10.961   3.595  -1.801  0.00  0.00    -0.108 NA
ATOM     10  N   UNL     1       9.690   4.100  -1.647  0.00  0.00    -0.023 NA
ATOM     17  C   UNL     1      11.754   4.433  -1.173  0.00  0.00    +0.182 A 
BRANCH  17  19
ATOM      4  O   UNL     1      16.315   4.842  -2.899  0.00  0.00    -0.453 OA
ATOM      5  O   UNL     1      17.281   4.119  -0.813  0.00  0.00    -0.453 OA
ATOM     19  C   UNL     1      13.185   4.342  -1.046  0.00  0.00    +0.024 A 
ATOM     21  C   UNL     1      14.004   4.672  -2.130  0.00  0.00    +0.061 A 
ATOM     22  C   UNL     1      13.752   3.919   0.172  0.00  0.00    +0.015 A 
ATOM     23  C   UNL     1      15.370   4.567  -1.959  0.00  0.00    +0.167 A 
ATOM     26  C   UNL     1      15.138   3.822   0.318  0.00  0.00    +0.050 A 
ATOM     27  C   UNL     1      15.921   4.154  -0.769  0.00  0.00    +0.166 A 
ATOM     30  C   UNL     1      17.523   4.558  -2.165  0.00  0.00    +0.466 C 
ENDBRANCH  17  19
ENDBRANCH  13   6
BRANCH  14   7
ATOM      3  O   UNL     1       9.141   8.324   5.875  0.00  0.00    -0.270 OA
ATOM      7  N   UNL     1      10.212   6.799   4.495  0.00  0.00    -0.304 N 
ATOM     18  C   UNL     1       9.616   7.209   5.679  0.00  0.00    +0.244 C 
ATOM     32  H   UNL     1      10.686   5.903   4.444  0.00  0.00    +0.149 HD
BRANCH  18  20
ATOM     20  C   UNL     1       9.590   6.206   6.774  0.00  0.00    +0.037 A 
ATOM     24  C   UNL     1       9.833   4.882   6.472  0.00  0.00    +0.013 A 
ATOM     25  C   UNL     1       9.323   6.631   8.060  0.00  0.00    +0.013 A 
ATOM     28  C   UNL     1       9.807   3.941   7.501  0.00  0.00    +0.001 A 
ATOM     29  C   UNL     1       9.297   5.690   9.088  0.00  0.00    +0.001 A 
ATOM     31  C   UNL     1       9.540   4.344   8.809  0.00  0.00    +0.000 A 
ENDBRANCH  18  20
ENDBRANCH  14   7
TORSDOF 4
ENDMDL
MODEL 6
REMARK VINA RESULT:      -6.5     20.721     23.473
REMARK  Name = 11887237
REMARK  4 active torsions:
REMARK  status: ('A' for Active; 'I' for Inactive)
REMARK    1  A    between atoms: N_6  and  C_13
REMARK    2  A    between atoms: N_7  and  C_14
REMARK    3  A    between atoms: C_17  and  C_19
REMARK    4  A    between atoms: C_18  and  C_20
REMARK                            x       y       z     vdW  Elec       q    Type
REMARK                         _______ _______ _______ _____ _____    ______ ____
ROOT
ATOM      1  O   UNL     1      -4.900 -10.785  18.348  0.00  0.00    -0.370 OA
ATOM      2  O   UNL     1      -6.563 -12.152  16.053  0.00  0.00    -0.370 OA
ATOM     11  C   UNL     1      -5.524 -11.155  16.077  0.00  0.00    +0.176 C 
ATOM     12  C   UNL     1      -5.757 -10.295  17.304  0.00  0.00    +0.171 C 
ATOM     13  C   UNL     1      -4.180 -11.816  16.317  0.00  0.00    +0.168 C 
ATOM     14  C   UNL     1      -7.206 -10.535  17.660  0.00  0.00    +0.130 C 
ATOM     15  C   UNL     1      -4.081 -11.848  17.839  0.00  0.00    +0.190 C 
ATOM     16  C   UNL     1      -7.426 -11.957  17.182  0.00  0.00    +0.185 C 
ENDROOT
BRANCH  13   6
ATOM      6  N   UNL     1      -3.084 -11.122  15.639  0.00  0.00    -0.217 N 
ATOM      8  N   UNL     1      -2.056 -10.630  16.337  0.00  0.00    -0.043 NA
ATOM      9  N   UNL     1      -1.787 -10.219  14.163  0.00  0.00    -0.108 NA
ATOM     10  N   UNL     1      -1.262 -10.078  15.428  0.00  0.00    -0.023 NA
ATOM     17  C   UNL     1      -2.916 -10.871  14.318  0.00  0.00    +0.182 A 
BRANCH  17  19
ATOM      4  O   UNL     1      -6.346  -9.929  10.957  0.00  0.00    -0.453 OA
ATOM      5  O   UNL     1      -6.513 -12.249  10.326  0.00  0.00    -0.453 OA
ATOM     19  C   UNL     1      -3.839 -11.262  13.285  0.00  0.00    +0.024 A 
ATOM     21  C   UNL     1      -4.632 -10.297  12.656  0.00  0.00    +0.061 A 
ATOM     22  C   UNL     1      -3.939 -12.617  12.915  0.00  0.00    +0.015 A 
ATOM     23  C   UNL     1      -5.502 -10.722  11.672  0.00  0.00    +0.167 A 
ATOM     26  C   UNL     1      -4.828 -13.020  11.915  0.00  0.00    +0.050 A 
ATOM     27  C   UNL     1      -5.597 -12.046  11.312  0.00  0.00    +0.166 A 
ATOM     30  C   UNL     1      -6.983 -10.903  10.106  0.00  0.00    +0.466 C 
ENDBRANCH  17  19
ENDBRANCH  13   6
BRANCH  14   7
ATOM      3  O   UNL     1      -9.899  -9.840  18.379  0.00  0.00    -0.270 OA
ATOM      7  N   UNL     1      -8.073  -9.611  16.967  0.00  0.00    -0.304 N 
ATOM     18  C   UNL     1      -9.365  -9.339  17.392  0.00  0.00    +0.244 C 
ATOM     32  H   UNL     1      -7.740  -9.249  16.080  0.00  0.00    +0.149 HD
BRANCH  18  20
ATOM     20  C   UNL     1     -10.138  -8.386  16.556  0.00  0.00    +0.037 A 
ATOM     24  C   UNL     1     -10.485  -8.755  15.272  0.00  0.00    +0.013 A 
ATOM     25  C   UNL     1     -10.484  -7.161  17.088  0.00  0.00    +0.013 A 
ATOM     28  C   UNL     1     -11.210  -7.859  14.487  0.00  0.00    +0.001 A 
ATOM     29  C   UNL     1     -11.209  -6.265  16.303  0.00  0.00    +0.001 A 
ATOM     31  C   UNL     1     -11.572  -6.615  15.001  0.00  0.00    +0.000 A 
ENDBRANCH  18  20
ENDBRANCH  14   7
TORSDOF 4
ENDMDL
MODEL 7
REMARK VINA RESULT:      -6.4     24.007     27.249
REMARK  Name = 11887237
REMARK  4 active torsions:
REMARK  status: ('A' for Active; 'I' for Inactive)
REMARK    1  A    between atoms: N_6  and  C_13
REMARK    2  A    between atoms: N_7  and  C_14
REMARK    3  A    between atoms: C_17  and  C_19
REMARK    4  A    between atoms: C_18  and  C_20
REMARK                            x       y       z     vdW  Elec       q    Type
REMARK                         _______ _______ _______ _____ _____    ______ ____
ROOT
ATOM      1  O   UNL     1      -6.068  -8.936  11.377  0.00  0.00    -0.370 OA
ATOM      2  O   UNL     1      -6.649 -12.016  11.114  0.00  0.00    -0.370 OA
ATOM     11  C   UNL     1      -5.453 -11.239  11.306  0.00  0.00    +0.176 C 
ATOM     12  C   UNL     1      -5.609  -9.969  10.491  0.00  0.00    +0.171 C 
ATOM     13  C   UNL     1      -5.372 -10.765  12.746  0.00  0.00    +0.168 C 
ATOM     14  C   UNL     1      -6.678 -10.305   9.477  0.00  0.00    +0.130 C 
ATOM     15  C   UNL     1      -6.136  -9.446  12.716  0.00  0.00    +0.190 C 
ATOM     16  C   UNL     1      -7.529 -11.314  10.225  0.00  0.00    +0.185 C 
ENDROOT
BRANCH  13   6
ATOM      6  N   UNL     1      -3.992 -10.672  13.229  0.00  0.00    -0.217 N 
ATOM      8  N   UNL     1      -3.015 -10.255  12.418  0.00  0.00    -0.043 NA
ATOM      9  N   UNL     1      -2.201 -10.729  14.438  0.00  0.00    -0.108 NA
ATOM     10  N   UNL     1      -1.918 -10.291  13.164  0.00  0.00    -0.023 NA
ATOM     17  C   UNL     1      -3.494 -10.958  14.456  0.00  0.00    +0.182 A 
BRANCH  17  19
ATOM      4  O   UNL     1      -6.137 -10.298  18.521  0.00  0.00    -0.453 OA
ATOM      5  O   UNL     1      -6.514 -12.663  18.785  0.00  0.00    -0.453 OA
ATOM     19  C   UNL     1      -4.274 -11.434  15.568  0.00  0.00    +0.024 A 
ATOM     21  C   UNL     1      -4.807 -10.523  16.486  0.00  0.00    +0.061 A 
ATOM     22  C   UNL     1      -4.496 -12.816  15.725  0.00  0.00    +0.015 A 
ATOM     23  C   UNL     1      -5.547 -11.029  17.536  0.00  0.00    +0.167 A 
ATOM     26  C   UNL     1      -5.249 -13.300  16.797  0.00  0.00    +0.050 A 
ATOM     27  C   UNL     1      -5.762 -12.379  17.687  0.00  0.00    +0.166 A 
ATOM     30  C   UNL     1      -6.749 -11.339  19.308  0.00  0.00    +0.466 C 
ENDBRANCH  17  19
ENDBRANCH  13   6
BRANCH  14   7
ATOM      3  O   UNL     1      -6.906  -9.296   6.798  0.00  0.00    -0.270 OA
ATOM      7  N   UNL     1      -6.105 -10.884   8.286  0.00  0.00    -0.304 N 
ATOM     18  C   UNL     1      -6.271 -10.322   7.029  0.00  0.00    +0.244 C 
ATOM     32  H   UNL     1      -5.667 -11.794   8.385  0.00  0.00    +0.149 HD
BRANCH  18  20
ATOM     20  C   UNL     1      -5.641 -11.054   5.901  0.00  0.00    +0.037 A 
ATOM     24  C   UNL     1      -6.364 -11.241   4.740  0.00  0.00    +0.013 A 
ATOM     25  C   UNL     1      -4.353 -11.524   6.048  0.00  0.00    +0.013 A 
ATOM     28  C   UNL     1      -5.773 -11.929   3.682  0.00  0.00    +0.001 A 
ATOM     29  C   UNL     1      -3.761 -12.213   4.990  0.00  0.00    +0.001 A 
ATOM     31  C   UNL     1      -4.471 -12.415   3.805  0.00  0.00    +0.000 A 
ENDBRANCH  18  20
ENDBRANCH  14   7
TORSDOF 4
ENDMDL
MODEL 8
REMARK VINA RESULT:      -6.3     38.092     39.929
REMARK  Name = 11887237
REMARK  4 active torsions:
REMARK  status: ('A' for Active; 'I' for Inactive)
REMARK    1  A    between atoms: N_6  and  C_13
REMARK    2  A    between atoms: N_7  and  C_14
REMARK    3  A    between atoms: C_17  and  C_19
REMARK    4  A    between atoms: C_18  and  C_20
REMARK                            x       y       z     vdW  Elec       q    Type
REMARK                         _______ _______ _______ _____ _____    ______ ____
ROOT
ATOM      1  O   UNL     1       8.795   8.121  -1.066  0.00  0.00    -0.370 OA
ATOM      2  O   UNL     1      11.681   7.839   0.153  0.00  0.00    -0.370 OA
ATOM     11  C   UNL     1      10.674   6.896  -0.259  0.00  0.00    +0.176 C 
ATOM     12  C   UNL     1       9.328   7.489   0.108  0.00  0.00    +0.171 C 
ATOM     13  C   UNL     1      10.651   6.795  -1.773  0.00  0.00    +0.168 C 
ATOM     14  C   UNL     1       9.650   8.525   1.161  0.00  0.00    +0.130 C 
ATOM     15  C   UNL     1       9.677   7.897  -2.175  0.00  0.00    +0.190 C 
ATOM     16  C   UNL     1      11.043   8.972   0.759  0.00  0.00    +0.185 C 
ENDROOT
BRANCH  13   6
ATOM      6  N   UNL     1      10.297   5.453  -2.241  0.00  0.00    -0.217 N 
ATOM      8  N   UNL     1       9.153   5.243  -2.899  0.00  0.00    -0.043 NA
ATOM      9  N   UNL     1      10.286   3.337  -2.683  0.00  0.00    -0.108 NA
ATOM     10  N   UNL     1       9.151   3.944  -3.168  0.00  0.00    -0.023 NA
ATOM     17  C   UNL     1      10.983   4.292  -2.112  0.00  0.00    +0.182 A 
BRANCH  17  19
ATOM      4  O   UNL     1      13.799   3.320   1.771  0.00  0.00    -0.453 OA
ATOM      5  O   UNL     1      15.826   3.754   0.541  0.00  0.00    -0.453 OA
ATOM     19  C   UNL     1      12.257   4.161  -1.453  0.00  0.00    +0.024 A 
ATOM     21  C   UNL     1      12.310   3.784  -0.108  0.00  0.00    +0.061 A 
ATOM     22  C   UNL     1      13.442   4.414  -2.170  0.00  0.00    +0.015 A 
ATOM     23  C   UNL     1      13.555   3.672   0.479  0.00  0.00    +0.167 A 
ATOM     26  C   UNL     1      14.689   4.294  -1.551  0.00  0.00    +0.050 A 
ATOM     27  C   UNL     1      14.711   3.920  -0.223  0.00  0.00    +0.166 A 
ATOM     30  C   UNL     1      15.240   3.373   1.803  0.00  0.00    +0.466 C 
ENDBRANCH  17  19
ENDBRANCH  13   6
BRANCH  14   7
ATOM      3  O   UNL     1       7.532   8.675   3.095  0.00  0.00    -0.270 OA
ATOM      7  N   UNL     1       9.647   7.945   2.482  0.00  0.00    -0.304 N 
ATOM     18  C   UNL     1       8.572   8.073   3.350  0.00  0.00    +0.244 C 
ATOM     32  H   UNL     1      10.517   7.534   2.803  0.00  0.00    +0.149 HD
BRANCH  18  20
ATOM     20  C   UNL     1       8.735   7.441   4.684  0.00  0.00    +0.037 A 
ATOM     24  C   UNL     1       8.323   8.134   5.804  0.00  0.00    +0.013 A 
ATOM     25  C   UNL     1       9.294   6.182   4.762  0.00  0.00    +0.013 A 
ATOM     28  C   UNL     1       8.477   7.541   7.057  0.00  0.00    +0.001 A 
ATOM     29  C   UNL     1       9.448   5.590   6.015  0.00  0.00    +0.001 A 
ATOM     31  C   UNL     1       9.039   6.269   7.163  0.00  0.00    +0.000 A 
ENDBRANCH  18  20
ENDBRANCH  14   7
TORSDOF 4
ENDMDL
MODEL 9
REMARK VINA RESULT:      -6.3     31.013     33.043
REMARK  Name = 11887237
REMARK  4 active torsions:
REMARK  status: ('A' for Active; 'I' for Inactive)
REMARK    1  A    between atoms: N_6  and  C_13
REMARK    2  A    between atoms: N_7  and  C_14
REMARK    3  A    between atoms: C_17  and  C_19
REMARK    4  A    between atoms: C_18  and  C_20
REMARK                            x       y       z     vdW  Elec       q    Type
REMARK                         _______ _______ _______ _____ _____    ______ ____
ROOT
ATOM      1  O   UNL     1      15.615  -8.104  28.160  0.00  0.00    -0.370 OA
ATOM      2  O   UNL     1      17.532  -5.806  29.129  0.00  0.00    -0.370 OA
ATOM     11  C   UNL     1      16.102  -5.940  29.035  0.00  0.00    +0.176 C 
ATOM     12  C   UNL     1      15.809  -6.734  27.776  0.00  0.00    +0.171 C 
ATOM     13  C   UNL     1      15.590  -6.810  30.167  0.00  0.00    +0.168 C 
ATOM     14  C   UNL     1      17.064  -6.595  26.945  0.00  0.00    +0.130 C 
ATOM     15  C   UNL     1      15.686  -8.218  29.589  0.00  0.00    +0.190 C 
ATOM     16  C   UNL     1      18.141  -6.458  28.005  0.00  0.00    +0.185 C 
ENDROOT
BRANCH  13   6
ATOM      6  N   UNL     1      14.254  -6.415  30.619  0.00  0.00    -0.217 N 
ATOM      8  N   UNL     1      13.173  -7.088  30.214  0.00  0.00    -0.043 NA
ATOM      9  N   UNL     1      12.588  -5.420  31.571  0.00  0.00    -0.108 NA
ATOM     10  N   UNL     1      12.153  -6.474  30.801  0.00  0.00    -0.023 NA
ATOM     17  C   UNL     1      13.895  -5.402  31.445  0.00  0.00    +0.182 A 
BRANCH  17  19
ATOM      4  O   UNL     1      16.703  -1.394  31.436  0.00  0.00    -0.453 OA
ATOM      5  O   UNL     1      17.435  -1.776  33.700  0.00  0.00    -0.453 OA
ATOM     19  C   UNL     1      14.813  -4.480  32.060  0.00  0.00    +0.024 A 
ATOM     21  C   UNL     1      15.273  -3.371  31.342  0.00  0.00    +0.061 A 
ATOM     22  C   UNL     1      15.242  -4.700  33.383  0.00  0.00    +0.015 A 
ATOM     23  C   UNL     1      16.152  -2.516  31.975  0.00  0.00    +0.167 A 
ATOM     26  C   UNL     1      16.133  -3.819  34.000  0.00  0.00    +0.050 A 
ATOM     27  C   UNL     1      16.570  -2.734  33.268  0.00  0.00    +0.166 A 
ATOM     30  C   UNL     1      17.513  -0.930  32.534  0.00  0.00    +0.466 C 
ENDBRANCH  17  19
ENDBRANCH  13   6
BRANCH  14   7
ATOM      3  O   UNL     1      17.617  -6.476  24.129  0.00  0.00    -0.270 OA
ATOM      7  N   UNL     1      17.006  -5.424  26.104  0.00  0.00    -0.304 N 
ATOM     18  C   UNL     1      17.292  -5.464  24.747  0.00  0.00    +0.244 C 
ATOM     32  H   UNL     1      16.859  -4.534  26.568  0.00  0.00    +0.149 HD
BRANCH  18  20
ATOM     20  C   UNL     1      17.214  -4.168  24.027  0.00  0.00    +0.037 A 
ATOM     24  C   UNL     1      18.116  -3.913  23.014  0.00  0.00    +0.013 A 
ATOM     25  C   UNL     1      16.241  -3.261  24.392  0.00  0.00    +0.013 A 
ATOM     28  C   UNL     1      18.043  -2.695  22.339  0.00  0.00    +0.001 A 
ATOM     29  C   UNL     1      16.168  -2.043  23.716  0.00  0.00    +0.001 A 
ATOM     31  C   UNL     1      17.069  -1.760  22.689  0.00  0.00    +0.000 A 
ENDBRANCH  18  20
ENDBRANCH  14   7
TORSDOF 4
ENDMDL
MODEL 10
REMARK VINA RESULT:      -6.3     24.396     27.046
REMARK  Name = 11887237
REMARK  4 active torsions:
REMARK  status: ('A' for Active; 'I' for Inactive)
REMARK    1  A    between atoms: N_6  and  C_13
REMARK    2  A    between atoms: N_7  and  C_14
REMARK    3  A    between atoms: C_17  and  C_19
REMARK    4  A    between atoms: C_18  and  C_20
REMARK                            x       y       z     vdW  Elec       q    Type
REMARK                         _______ _______ _______ _____ _____    ______ ____
ROOT
ATOM      1  O   UNL     1      -3.172  -9.929  11.638  0.00  0.00    -0.370 OA
ATOM      2  O   UNL     1      -4.592 -12.655  12.306  0.00  0.00    -0.370 OA
ATOM     11  C   UNL     1      -5.066 -11.340  11.964  0.00  0.00    +0.176 C 
ATOM     12  C   UNL     1      -4.133 -10.343  12.622  0.00  0.00    +0.171 C 
ATOM     13  C   UNL     1      -4.897 -11.102  10.475  0.00  0.00    +0.168 C 
ATOM     14  C   UNL     1      -3.454 -11.132  13.718  0.00  0.00    +0.130 C 
ATOM     15  C   UNL     1      -3.484 -10.537  10.377  0.00  0.00    +0.190 C 
ATOM     16  C   UNL     1      -3.431 -12.535  13.140  0.00  0.00    +0.185 C 
ENDROOT
BRANCH  13   6
ATOM      6  N   UNL     1      -5.948 -10.245   9.921  0.00  0.00    -0.217 N 
ATOM      8  N   UNL     1      -6.476  -9.259  10.653  0.00  0.00    -0.043 NA
ATOM      9  N   UNL     1      -7.421  -9.323   8.635  0.00  0.00    -0.108 NA
ATOM     10  N   UNL     1      -7.379  -8.696   9.859  0.00  0.00    -0.023 NA
ATOM     17  C   UNL     1      -6.523 -10.280   8.695  0.00  0.00    +0.182 A 
BRANCH  17  19
ATOM      4  O   UNL     1      -3.853 -11.792   4.883  0.00  0.00    -0.453 OA
ATOM      5  O   UNL     1      -5.135 -13.820   4.656  0.00  0.00    -0.453 OA
ATOM     19  C   UNL     1      -6.189 -11.221   7.658  0.00  0.00    +0.024 A 
ATOM     21  C   UNL     1      -5.125 -10.952   6.791  0.00  0.00    +0.061 A 
ATOM     22  C   UNL     1      -6.936 -12.406   7.523  0.00  0.00    +0.015 A 
ATOM     23  C   UNL     1      -4.844 -11.884   5.812  0.00  0.00    +0.167 A 
ATOM     26  C   UNL     1      -6.630 -13.333   6.524  0.00  0.00    +0.050 A 
ATOM     27  C   UNL     1      -5.575 -13.042   5.683  0.00  0.00    +0.166 A 
ATOM     30  C   UNL     1      -4.043 -13.023   4.156  0.00  0.00    +0.466 C 
ENDBRANCH  17  19
ENDBRANCH  13   6
BRANCH  14   7
ATOM      3  O   UNL     1      -2.405 -10.877  16.380  0.00  0.00    -0.270 OA
ATOM      7  N   UNL     1      -4.215 -11.084  14.944  0.00  0.00    -0.304 N 
ATOM     18  C   UNL     1      -3.616 -10.960  16.189  0.00  0.00    +0.244 C 
ATOM     32  H   UNL     1      -5.211 -11.264  14.872  0.00  0.00    +0.149 HD
BRANCH  18  20
ATOM     20  C   UNL     1      -4.535 -10.952  17.355  0.00  0.00    +0.037 A 
ATOM     24  C   UNL     1      -5.724 -10.259  17.262  0.00  0.00    +0.013 A 
ATOM     25  C   UNL     1      -4.171 -11.639  18.495  0.00  0.00    +0.013 A 
ATOM     28  C   UNL     1      -6.587 -10.251  18.358  0.00  0.00    +0.001 A 
ATOM     29  C   UNL     1      -5.033 -11.632  19.591  0.00  0.00    +0.001 A 
ATOM     31  C   UNL     1      -6.242 -10.938  19.522  0.00  0.00    +0.000 A 
ENDBRANCH  18  20
ENDBRANCH  14   7
TORSDOF 4
ENDMDL
