REMARK  Name = 75536516
REMARK  10 active torsions:
REMARK  status: ('A' for Active; 'I' for Inactive)
REMARK    1  A    between atoms: O_2  and  C_8
REMARK    2  A    between atoms: N_4  and  C_7
REMARK    3  A    between atoms: N_4  and  C_9
REMARK    4  A    between atoms: N_6  and  C_14
REMARK    5  A    between atoms: C_10  and  C_14
REMARK    6  A    between atoms: C_17  and  C_18
REMARK    7  A    between atoms: C_17  and  C_20
REMARK    8  A    between atoms: C_17  and  C_21
REMARK    9  A    between atoms: C_17  and  C_22
REMARK   10  A    between atoms: C_18  and  C_19
REMARK                            x       y       z     vdW  Elec       q    Type
REMARK                         _______ _______ _______ _____ _____    ______ ____
ROOT
ATOM      1  O   UNL     1       0.655   0.034  -0.344  0.00  0.00    -0.371 OA
ATOM      7  C   UNL     1      -1.593  -0.578   0.117  0.00  0.00    +0.111 C 
ATOM      8  C   UNL     1      -0.718  -1.815   0.193  0.00  0.00    +0.164 C 
ATOM     10  C   UNL     1       0.655  -1.191   0.407  0.00  0.00    +0.165 C 
ATOM     11  C   UNL     1      -0.705   0.371  -0.671  0.00  0.00    +0.181 C 
ENDROOT
BRANCH   8   2
ATOM      2  O   UNL     1      -1.078  -2.674   1.258  0.00  0.00    -0.388 OA
ATOM     25  H   UNL     1      -1.047  -2.166   2.085  0.00  0.00    +0.210 HD
ENDBRANCH   8   2
BRANCH   7   4
ATOM      4  N   UNL     1      -2.878  -0.811  -0.521  0.00  0.00    -0.306 NA
ATOM     23  H   UNL     1      -3.285  -1.682  -0.181  0.00  0.00    +0.123 HD
BRANCH   4   9
ATOM      5  N   UNL     1      -6.505   1.240   0.339  0.00  0.00    -0.316 NA
ATOM      9  C   UNL     1      -3.799   0.295  -0.270  0.00  0.00    +0.056 C 
ATOM     12  C   UNL     1      -4.399   0.202   1.138  0.00  0.00    +0.034 C 
ATOM     13  C   UNL     1      -4.915   0.306  -1.319  0.00  0.00    +0.034 C 
ATOM     15  C   UNL     1      -5.450   1.291   1.355  0.00  0.00    +0.082 C 
ATOM     16  C   UNL     1      -5.946   1.391  -1.007  0.00  0.00    +0.082 C 
ATOM     24  H   UNL     1      -7.174   1.990   0.511  0.00  0.00    +0.122 HD
ENDBRANCH   4   9
ENDBRANCH   7   4
BRANCH  10  14
ATOM     14  C   UNL     1       1.797  -2.078  -0.056  0.00  0.00    +0.138 C 
BRANCH  14   6
ATOM      3  O   UNL     1       3.242  -0.361  -1.886  0.00  0.00    -0.276 OA
ATOM      6  N   UNL     1       3.078  -1.447   0.162  0.00  0.00    -0.313 N 
ATOM     19  C   UNL     1       3.695  -0.638  -0.777  0.00  0.00    +0.214 C 
ATOM     26  H   UNL     1       3.533  -1.606   1.056  0.00  0.00    +0.149 HD
BRANCH  19  18
ATOM     18  C   UNL     1       5.039  -0.102  -0.311  0.00  0.00    +0.102 C 
BRANCH  18  17
ATOM     17  C   UNL     1       4.978   1.278   0.386  0.00  0.00    -0.029 C 
ATOM     20  C   UNL     1       4.059   1.247   1.618  0.00  0.00    +0.011 C 
ATOM     21  C   UNL     1       6.380   1.746   0.811  0.00  0.00    +0.011 C 
ATOM     22  C   UNL     1       4.409   2.296  -0.621  0.00  0.00    +0.011 C 
ENDBRANCH  18  17
ENDBRANCH  19  18
ENDBRANCH  14   6
ENDBRANCH  10  14
TORSDOF 7
