MODEL 1
REMARK VINA RESULT:      -6.0      0.000      0.000
REMARK  Name = 26743179
REMARK  10 active torsions:
REMARK  status: ('A' for Active; 'I' for Inactive)
REMARK    1  A    between atoms: O_3  and  C_20
REMARK    2  A    between atoms: O_3  and  C_22
REMARK    3  A    between atoms: N_5  and  C_18
REMARK    4  A    between atoms: N_5  and  C_19
REMARK    5  A    between atoms: C_7  and  C_13
REMARK    6  A    between atoms: C_8  and  C_12
REMARK    7  A    between atoms: C_12  and  C_14
REMARK    8  A    between atoms: C_13  and  C_15
REMARK    9  A    between atoms: C_17  and  C_20
REMARK   10  A    between atoms: C_18  and  C_21
REMARK                            x       y       z     vdW  Elec       q    Type
REMARK                         _______ _______ _______ _____ _____    ______ ____
ROOT
ATOM      4  N   UNL     1      -6.875 -11.431  19.803  0.00  0.00    -0.316 NA
ATOM      7  C   UNL     1      -7.219 -10.789  16.944  0.00  0.00    +0.004 C 
ATOM      8  C   UNL     1      -5.840 -10.770  17.645  0.00  0.00    +0.012 C 
ATOM      9  C   UNL     1      -8.162 -11.728  17.716  0.00  0.00    +0.019 C 
ATOM     10  C   UNL     1      -5.971 -10.483  19.150  0.00  0.00    +0.085 C 
ATOM     11  C   UNL     1      -8.210 -11.407  19.210  0.00  0.00    +0.081 C 
ATOM     29  H   UNL     1      -6.944 -11.203  20.795  0.00  0.00    +0.122 HD
ENDROOT
BRANCH   8  12
ATOM     12  C   UNL     1      -4.852  -9.800  16.997  0.00  0.00    +0.064 C 
BRANCH  12  14
ATOM      2  O   UNL     1      -2.137 -11.648  15.522  0.00  0.00    -0.356 OA
ATOM      6  N   UNL     1      -2.789 -11.075  16.608  0.00  0.00    -0.083 NA
ATOM     14  C   UNL     1      -3.890 -10.520  16.096  0.00  0.00    +0.084 A 
ATOM     16  C   UNL     1      -3.988 -10.708  14.706  0.00  0.00    +0.074 A 
ATOM     17  C   UNL     1      -2.861 -11.423  14.395  0.00  0.00    +0.175 A 
BRANCH  17  20
ATOM     20  C   UNL     1      -2.313 -11.964  13.145  0.00  0.00    +0.306 C 
BRANCH  20   3
ATOM      3  O   UNL     1      -1.938 -10.901  12.266  0.00  0.00    -0.484 OA
BRANCH   3  22
ATOM     22  C   UNL     1      -2.756 -10.680  11.193  0.00  0.00    +0.121 A 
ATOM     24  C   UNL     1      -2.849  -9.402  10.639  0.00  0.00    +0.045 A 
ATOM     25  C   UNL     1      -3.498 -11.730  10.653  0.00  0.00    +0.045 A 
ATOM     26  C   UNL     1      -3.685  -9.176   9.545  0.00  0.00    +0.004 A 
ATOM     27  C   UNL     1      -4.333 -11.504   9.559  0.00  0.00    +0.004 A 
ATOM     28  C   UNL     1      -4.427 -10.227   9.005  0.00  0.00    +0.000 A 
ENDBRANCH   3  22
ENDBRANCH  20   3
ENDBRANCH  17  20
ENDBRANCH  12  14
ENDBRANCH   8  12
BRANCH   7  13
ATOM     13  C   UNL     1      -7.851  -9.402  16.772  0.00  0.00    +0.100 C 
BRANCH  13  15
ATOM      1  O   UNL     1      -8.462  -9.878  14.504  0.00  0.00    -0.276 OA
ATOM      5  N   UNL     1      -9.961  -8.617  15.746  0.00  0.00    -0.293 N 
ATOM     15  C   UNL     1      -8.771  -9.331  15.565  0.00  0.00    +0.216 C 
ATOM     19  C   UNL     1     -10.946  -8.459  14.684  0.00  0.00    +0.133 C 
BRANCH   5  18
ATOM     18  C   UNL     1     -10.305  -7.977  17.013  0.00  0.00    +0.196 C 
BRANCH  18  21
ATOM     21  C   UNL     1     -11.099  -8.870  17.855  0.00  0.00    -0.086 C 
ATOM     23  C   UNL     1     -11.755  -9.604  18.544  0.00  0.00    +0.005 C 
ENDBRANCH  18  21
ENDBRANCH   5  18
ENDBRANCH  13  15
ENDBRANCH   7  13
TORSDOF 9
ENDMDL
MODEL 2
REMARK VINA RESULT:      -6.0      1.677      2.344
REMARK  Name = 26743179
REMARK  10 active torsions:
REMARK  status: ('A' for Active; 'I' for Inactive)
REMARK    1  A    between atoms: O_3  and  C_20
REMARK    2  A    between atoms: O_3  and  C_22
REMARK    3  A    between atoms: N_5  and  C_18
REMARK    4  A    between atoms: N_5  and  C_19
REMARK    5  A    between atoms: C_7  and  C_13
REMARK    6  A    between atoms: C_8  and  C_12
REMARK    7  A    between atoms: C_12  and  C_14
REMARK    8  A    between atoms: C_13  and  C_15
REMARK    9  A    between atoms: C_17  and  C_20
REMARK   10  A    between atoms: C_18  and  C_21
REMARK                            x       y       z     vdW  Elec       q    Type
REMARK                         _______ _______ _______ _____ _____    ______ ____
ROOT
ATOM      4  N   UNL     1      -5.971 -14.167  17.486  0.00  0.00    -0.316 NA
ATOM      7  C   UNL     1      -6.459 -11.400  16.588  0.00  0.00    +0.004 C 
ATOM      8  C   UNL     1      -5.037 -11.994  16.732  0.00  0.00    +0.012 C 
ATOM      9  C   UNL     1      -7.461 -12.545  16.369  0.00  0.00    +0.019 C 
ATOM     10  C   UNL     1      -4.995 -13.117  17.781  0.00  0.00    +0.085 C 
ATOM     11  C   UNL     1      -7.333 -13.643  17.425  0.00  0.00    +0.081 C 
ATOM     29  H   UNL     1      -5.920 -14.888  18.205  0.00  0.00    +0.122 HD
ENDROOT
BRANCH   8  12
ATOM     12  C   UNL     1      -3.974 -10.937  17.034  0.00  0.00    +0.064 C 
BRANCH  12  14
ATOM      2  O   UNL     1      -1.295 -10.186  14.749  0.00  0.00    -0.356 OA
ATOM      6  N   UNL     1      -1.823 -10.306  16.029  0.00  0.00    -0.083 NA
ATOM     14  C   UNL     1      -3.086 -10.700  15.847  0.00  0.00    +0.084 A 
ATOM     16  C   UNL     1      -3.409 -10.845  14.486  0.00  0.00    +0.074 A 
ATOM     17  C   UNL     1      -2.249 -10.509  13.839  0.00  0.00    +0.175 A 
BRANCH  17  20
ATOM     20  C   UNL     1      -1.858 -10.436  12.425  0.00  0.00    +0.306 C 
BRANCH  20   3
ATOM      3  O   UNL     1      -2.644 -11.343  11.646  0.00  0.00    -0.484 OA
BRANCH   3  22
ATOM     22  C   UNL     1      -3.341 -10.802  10.602  0.00  0.00    +0.121 A 
ATOM     24  C   UNL     1      -4.043 -11.634   9.729  0.00  0.00    +0.045 A 
ATOM     25  C   UNL     1      -3.351  -9.421  10.410  0.00  0.00    +0.045 A 
ATOM     26  C   UNL     1      -4.755 -11.083   8.663  0.00  0.00    +0.004 A 
ATOM     27  C   UNL     1      -4.063  -8.871   9.344  0.00  0.00    +0.004 A 
ATOM     28  C   UNL     1      -4.764  -9.701   8.470  0.00  0.00    +0.000 A 
ENDBRANCH   3  22
ENDBRANCH  20   3
ENDBRANCH  17  20
ENDBRANCH  12  14
ENDBRANCH   8  12
BRANCH   7  13
ATOM     13  C   UNL     1      -6.888 -10.516  17.765  0.00  0.00    +0.100 C 
BRANCH  13  15
ATOM      1  O   UNL     1      -8.163  -8.892  16.549  0.00  0.00    -0.276 OA
ATOM      5  N   UNL     1      -9.251  -9.990  18.278  0.00  0.00    -0.293 N 
ATOM     15  C   UNL     1      -8.146  -9.719  17.463  0.00  0.00    +0.216 C 
ATOM     19  C   UNL     1     -10.529  -9.310  18.113  0.00  0.00    +0.133 C 
BRANCH   5  18
ATOM     18  C   UNL     1      -9.206 -10.976  19.355  0.00  0.00    +0.196 C 
BRANCH  18  21
ATOM     21  C   UNL     1     -10.205 -12.024  19.151  0.00  0.00    -0.086 C 
ATOM     23  C   UNL     1     -11.023 -12.888  18.982  0.00  0.00    +0.005 C 
ENDBRANCH  18  21
ENDBRANCH   5  18
ENDBRANCH  13  15
ENDBRANCH   7  13
TORSDOF 9
ENDMDL
MODEL 3
REMARK VINA RESULT:      -5.9     18.986     21.795
REMARK  Name = 26743179
REMARK  10 active torsions:
REMARK  status: ('A' for Active; 'I' for Inactive)
REMARK    1  A    between atoms: O_3  and  C_20
REMARK    2  A    between atoms: O_3  and  C_22
REMARK    3  A    between atoms: N_5  and  C_18
REMARK    4  A    between atoms: N_5  and  C_19
REMARK    5  A    between atoms: C_7  and  C_13
REMARK    6  A    between atoms: C_8  and  C_12
REMARK    7  A    between atoms: C_12  and  C_14
REMARK    8  A    between atoms: C_13  and  C_15
REMARK    9  A    between atoms: C_17  and  C_20
REMARK   10  A    between atoms: C_18  and  C_21
REMARK                            x       y       z     vdW  Elec       q    Type
REMARK                         _______ _______ _______ _____ _____    ______ ____
ROOT
ATOM      4  N   UNL     1     -13.841   4.505  21.965  0.00  0.00    -0.316 NA
ATOM      7  C   UNL     1     -14.113   7.284  21.012  0.00  0.00    +0.004 C 
ATOM      8  C   UNL     1     -12.783   6.497  20.926  0.00  0.00    +0.012 C 
ATOM      9  C   UNL     1     -15.284   6.289  21.050  0.00  0.00    +0.019 C 
ATOM     10  C   UNL     1     -12.694   5.413  22.012  0.00  0.00    +0.085 C 
ATOM     11  C   UNL     1     -15.106   5.219  22.127  0.00  0.00    +0.081 C 
ATOM     29  H   UNL     1     -13.751   3.808  22.704  0.00  0.00    +0.122 HD
ENDROOT
BRANCH   8  12
ATOM     12  C   UNL     1     -11.550   7.399  20.963  0.00  0.00    +0.064 C 
BRANCH  12  14
ATOM      2  O   UNL     1     -10.822   7.764  17.456  0.00  0.00    -0.356 OA
ATOM      6  N   UNL     1     -11.224   7.019  18.558  0.00  0.00    -0.083 NA
ATOM     14  C   UNL     1     -11.174   7.868  19.587  0.00  0.00    +0.084 A 
ATOM     16  C   UNL     1     -10.753   9.153  19.200  0.00  0.00    +0.074 A 
ATOM     17  C   UNL     1     -10.545   9.033  17.851  0.00  0.00    +0.175 A 
BRANCH  17  20
ATOM     20  C   UNL     1     -10.104   9.964  16.804  0.00  0.00    +0.306 C 
BRANCH  20   3
ATOM      3  O   UNL     1     -10.905  11.148  16.824  0.00  0.00    -0.484 OA
BRANCH   3  22
ATOM     22  C   UNL     1     -10.246  12.327  17.031  0.00  0.00    +0.121 A 
ATOM     24  C   UNL     1      -8.927  12.472  16.599  0.00  0.00    +0.045 A 
ATOM     25  C   UNL     1     -10.890  13.384  17.673  0.00  0.00    +0.045 A 
ATOM     26  C   UNL     1      -8.252  13.675  16.811  0.00  0.00    +0.004 A 
ATOM     27  C   UNL     1     -10.216  14.587  17.884  0.00  0.00    +0.004 A 
ATOM     28  C   UNL     1      -8.897  14.733  17.454  0.00  0.00    +0.000 A 
ENDBRANCH   3  22
ENDBRANCH  20   3
ENDBRANCH  17  20
ENDBRANCH  12  14
ENDBRANCH   8  12
BRANCH   7  13
ATOM     13  C   UNL     1     -14.185   8.258  22.195  0.00  0.00    +0.100 C 
BRANCH  13  15
ATOM      1  O   UNL     1     -16.059   9.619  21.577  0.00  0.00    -0.276 OA
ATOM      5  N   UNL     1     -14.012  10.692  21.782  0.00  0.00    -0.293 N 
ATOM     15  C   UNL     1     -14.851   9.572  21.823  0.00  0.00    +0.216 C 
ATOM     19  C   UNL     1     -14.501  12.022  21.443  0.00  0.00    +0.133 C 
BRANCH   5  18
ATOM     18  C   UNL     1     -12.584  10.611  22.078  0.00  0.00    +0.196 C 
BRANCH  18  21
ATOM     21  C   UNL     1     -12.273  11.257  23.352  0.00  0.00    -0.086 C 
ATOM     23  C   UNL     1     -12.017  11.785  24.400  0.00  0.00    +0.005 C 
ENDBRANCH  18  21
ENDBRANCH   5  18
ENDBRANCH  13  15
ENDBRANCH   7  13
TORSDOF 9
ENDMDL
MODEL 4
REMARK VINA RESULT:      -5.8      3.060      8.335
REMARK  Name = 26743179
REMARK  10 active torsions:
REMARK  status: ('A' for Active; 'I' for Inactive)
REMARK    1  A    between atoms: O_3  and  C_20
REMARK    2  A    between atoms: O_3  and  C_22
REMARK    3  A    between atoms: N_5  and  C_18
REMARK    4  A    between atoms: N_5  and  C_19
REMARK    5  A    between atoms: C_7  and  C_13
REMARK    6  A    between atoms: C_8  and  C_12
REMARK    7  A    between atoms: C_12  and  C_14
REMARK    8  A    between atoms: C_13  and  C_15
REMARK    9  A    between atoms: C_17  and  C_20
REMARK   10  A    between atoms: C_18  and  C_21
REMARK                            x       y       z     vdW  Elec       q    Type
REMARK                         _______ _______ _______ _____ _____    ______ ____
ROOT
ATOM      4  N   UNL     1      -6.467 -11.442  18.760  0.00  0.00    -0.316 NA
ATOM      7  C   UNL     1      -5.844 -10.112  16.202  0.00  0.00    +0.004 C 
ATOM      8  C   UNL     1      -7.266 -10.128  16.810  0.00  0.00    +0.012 C 
ATOM      9  C   UNL     1      -4.813 -10.295  17.328  0.00  0.00    +0.019 C 
ATOM     10  C   UNL     1      -7.484 -11.355  17.711  0.00  0.00    +0.085 C 
ATOM     11  C   UNL     1      -5.117 -11.510  18.205  0.00  0.00    +0.081 C 
ATOM     29  H   UNL     1      -6.639 -12.270  19.329  0.00  0.00    +0.122 HD
ENDROOT
BRANCH   8  12
ATOM     12  C   UNL     1      -8.370 -10.032  15.757  0.00  0.00    +0.064 C 
BRANCH  12  14
ATOM      2  O   UNL     1     -10.244  -7.296  17.159  0.00  0.00    -0.356 OA
ATOM      6  N   UNL     1      -9.290  -8.304  17.240  0.00  0.00    -0.083 NA
ATOM     14  C   UNL     1      -9.295  -8.883  16.037  0.00  0.00    +0.084 A 
ATOM     16  C   UNL     1     -10.222  -8.290  15.162  0.00  0.00    +0.074 A 
ATOM     17  C   UNL     1     -10.792  -7.298  15.917  0.00  0.00    +0.175 A 
BRANCH  17  20
ATOM     20  C   UNL     1     -11.826  -6.289  15.655  0.00  0.00    +0.306 C 
BRANCH  20   3
ATOM      3  O   UNL     1     -11.518  -5.561  14.463  0.00  0.00    -0.484 OA
BRANCH   3  22
ATOM     22  C   UNL     1     -12.579  -5.045  13.773  0.00  0.00    +0.121 A 
ATOM     24  C   UNL     1     -13.862  -5.550  13.988  0.00  0.00    +0.045 A 
ATOM     25  C   UNL     1     -12.379  -4.016  12.854  0.00  0.00    +0.045 A 
ATOM     26  C   UNL     1     -14.945  -5.025  13.282  0.00  0.00    +0.004 A 
ATOM     27  C   UNL     1     -13.463  -3.490  12.149  0.00  0.00    +0.004 A 
ATOM     28  C   UNL     1     -14.745  -3.995  12.363  0.00  0.00    +0.000 A 
ENDBRANCH   3  22
ENDBRANCH  20   3
ENDBRANCH  17  20
ENDBRANCH  12  14
ENDBRANCH   8  12
BRANCH   7  13
ATOM     13  C   UNL     1      -5.629 -11.147  15.091  0.00  0.00    +0.100 C 
BRANCH  13  15
ATOM      1  O   UNL     1      -5.773  -9.773  13.132  0.00  0.00    -0.276 OA
ATOM      5  N   UNL     1      -3.758 -10.863  13.496  0.00  0.00    -0.293 N 
ATOM     15  C   UNL     1      -5.077 -10.526  13.819  0.00  0.00    +0.216 C 
ATOM     19  C   UNL     1      -3.088 -10.348  12.309  0.00  0.00    +0.133 C 
BRANCH   5  18
ATOM     18  C   UNL     1      -2.954 -11.756  14.326  0.00  0.00    +0.196 C 
BRANCH  18  21
ATOM     21  C   UNL     1      -1.966 -11.007  15.102  0.00  0.00    -0.086 C 
ATOM     23  C   UNL     1      -1.156 -10.394  15.742  0.00  0.00    +0.005 C 
ENDBRANCH  18  21
ENDBRANCH   5  18
ENDBRANCH  13  15
ENDBRANCH   7  13
TORSDOF 9
ENDMDL
MODEL 5
REMARK VINA RESULT:      -5.8      4.096      8.190
REMARK  Name = 26743179
REMARK  10 active torsions:
REMARK  status: ('A' for Active; 'I' for Inactive)
REMARK    1  A    between atoms: O_3  and  C_20
REMARK    2  A    between atoms: O_3  and  C_22
REMARK    3  A    between atoms: N_5  and  C_18
REMARK    4  A    between atoms: N_5  and  C_19
REMARK    5  A    between atoms: C_7  and  C_13
REMARK    6  A    between atoms: C_8  and  C_12
REMARK    7  A    between atoms: C_12  and  C_14
REMARK    8  A    between atoms: C_13  and  C_15
REMARK    9  A    between atoms: C_17  and  C_20
REMARK   10  A    between atoms: C_18  and  C_21
REMARK                            x       y       z     vdW  Elec       q    Type
REMARK                         _______ _______ _______ _____ _____    ______ ____
ROOT
ATOM      4  N   UNL     1      -9.313 -11.616  15.525  0.00  0.00    -0.316 NA
ATOM      7  C   UNL     1      -8.439 -10.431  18.081  0.00  0.00    +0.004 C 
ATOM      8  C   UNL     1      -9.426  -9.720  17.124  0.00  0.00    +0.012 C 
ATOM      9  C   UNL     1      -8.505 -11.947  17.836  0.00  0.00    +0.019 C 
ATOM     10  C   UNL     1      -9.220 -10.162  15.666  0.00  0.00    +0.085 C 
ATOM     11  C   UNL     1      -8.332 -12.307  16.360  0.00  0.00    +0.081 C 
ATOM     29  H   UNL     1      -9.162 -11.871  14.549  0.00  0.00    +0.122 HD
ENDROOT
BRANCH   8  12
ATOM     12  C   UNL     1      -9.376  -8.196  17.236  0.00  0.00    +0.064 C 
BRANCH  12  14
ATOM      2  O   UNL     1     -12.665  -7.168  16.193  0.00  0.00    -0.356 OA
ATOM      6  N   UNL     1     -11.804  -7.940  16.965  0.00  0.00    -0.083 NA
ATOM     14  C   UNL     1     -10.577  -7.562  16.597  0.00  0.00    +0.084 A 
ATOM     16  C   UNL     1     -10.600  -6.564  15.607  0.00  0.00    +0.074 A 
ATOM     17  C   UNL     1     -11.937  -6.353  15.389  0.00  0.00    +0.175 A 
BRANCH  17  20
ATOM     20  C   UNL     1     -12.693  -5.461  14.501  0.00  0.00    +0.306 C 
BRANCH  20   3
ATOM      3  O   UNL     1     -12.927  -6.097  13.242  0.00  0.00    -0.484 OA
BRANCH   3  22
ATOM     22  C   UNL     1     -12.493  -5.427  12.132  0.00  0.00    +0.121 A 
ATOM     24  C   UNL     1     -12.165  -6.136  10.975  0.00  0.00    +0.045 A 
ATOM     25  C   UNL     1     -12.379  -4.038  12.155  0.00  0.00    +0.045 A 
ATOM     26  C   UNL     1     -11.721  -5.453   9.842  0.00  0.00    +0.004 A 
ATOM     27  C   UNL     1     -11.937  -3.355  11.022  0.00  0.00    +0.004 A 
ATOM     28  C   UNL     1     -11.607  -4.062   9.866  0.00  0.00    +0.000 A 
ENDBRANCH   3  22
ENDBRANCH  20   3
ENDBRANCH  17  20
ENDBRANCH  12  14
ENDBRANCH   8  12
BRANCH   7  13
ATOM     13  C   UNL     1      -6.995  -9.923  17.978  0.00  0.00    +0.100 C 
BRANCH  13  15
ATOM      1  O   UNL     1      -6.263 -10.465  20.195  0.00  0.00    -0.276 OA
ATOM      5  N   UNL     1      -5.021 -11.341  18.443  0.00  0.00    -0.293 N 
ATOM     15  C   UNL     1      -6.073 -10.592  18.983  0.00  0.00    +0.216 C 
ATOM     19  C   UNL     1      -4.053 -12.042  19.277  0.00  0.00    +0.133 C 
BRANCH   5  18
ATOM     18  C   UNL     1      -4.816 -11.477  17.003  0.00  0.00    +0.196 C 
BRANCH  18  21
ATOM     21  C   UNL     1      -3.481 -11.024  16.616  0.00  0.00    -0.086 C 
ATOM     23  C   UNL     1      -2.383 -10.652  16.302  0.00  0.00    +0.005 C 
ENDBRANCH  18  21
ENDBRANCH   5  18
ENDBRANCH  13  15
ENDBRANCH   7  13
TORSDOF 9
ENDMDL
MODEL 6
REMARK VINA RESULT:      -5.7      2.127      3.235
REMARK  Name = 26743179
REMARK  10 active torsions:
REMARK  status: ('A' for Active; 'I' for Inactive)
REMARK    1  A    between atoms: O_3  and  C_20
REMARK    2  A    between atoms: O_3  and  C_22
REMARK    3  A    between atoms: N_5  and  C_18
REMARK    4  A    between atoms: N_5  and  C_19
REMARK    5  A    between atoms: C_7  and  C_13
REMARK    6  A    between atoms: C_8  and  C_12
REMARK    7  A    between atoms: C_12  and  C_14
REMARK    8  A    between atoms: C_13  and  C_15
REMARK    9  A    between atoms: C_17  and  C_20
REMARK   10  A    between atoms: C_18  and  C_21
REMARK                            x       y       z     vdW  Elec       q    Type
REMARK                         _______ _______ _______ _____ _____    ______ ____
ROOT
ATOM      4  N   UNL     1      -6.952  -9.210  15.798  0.00  0.00    -0.316 NA
ATOM      7  C   UNL     1      -6.011 -10.694  18.168  0.00  0.00    +0.004 C 
ATOM      8  C   UNL     1      -5.076 -10.313  16.995  0.00  0.00    +0.012 C 
ATOM      9  C   UNL     1      -7.197  -9.716  18.203  0.00  0.00    +0.019 C 
ATOM     10  C   UNL     1      -5.852 -10.168  15.676  0.00  0.00    +0.085 C 
ATOM     11  C   UNL     1      -7.893  -9.594  16.848  0.00  0.00    +0.081 C 
ATOM     29  H   UNL     1      -7.446  -9.148  14.909  0.00  0.00    +0.122 HD
ENDROOT
BRANCH   8  12
ATOM     12  C   UNL     1      -3.903 -11.278  16.827  0.00  0.00    +0.064 C 
BRANCH  12  14
ATOM      2  O   UNL     1      -1.442 -10.012  14.524  0.00  0.00    -0.356 OA
ATOM      6  N   UNL     1      -1.976 -10.152  15.799  0.00  0.00    -0.083 NA
ATOM     14  C   UNL     1      -3.061 -10.913  15.638  0.00  0.00    +0.084 A 
ATOM     16  C   UNL     1      -3.261 -11.281  14.296  0.00  0.00    +0.074 A 
ATOM     17  C   UNL     1      -2.216 -10.689  13.637  0.00  0.00    +0.175 A 
BRANCH  17  20
ATOM     20  C   UNL     1      -1.792 -10.647  12.232  0.00  0.00    +0.306 C 
BRANCH  20   3
ATOM      3  O   UNL     1      -2.632 -11.486  11.436  0.00  0.00    -0.484 OA
BRANCH   3  22
ATOM     22  C   UNL     1      -3.348 -10.870  10.448  0.00  0.00    +0.121 A 
ATOM     24  C   UNL     1      -3.316  -9.481  10.327  0.00  0.00    +0.045 A 
ATOM     25  C   UNL     1      -4.110 -11.630   9.561  0.00  0.00    +0.045 A 
ATOM     26  C   UNL     1      -4.048  -8.851   9.320  0.00  0.00    +0.004 A 
ATOM     27  C   UNL     1      -4.841 -11.001   8.553  0.00  0.00    +0.004 A 
ATOM     28  C   UNL     1      -4.810  -9.612   8.433  0.00  0.00    +0.000 A 
ENDBRANCH   3  22
ENDBRANCH  20   3
ENDBRANCH  17  20
ENDBRANCH  12  14
ENDBRANCH   8  12
BRANCH   7  13
ATOM     13  C   UNL     1      -6.502 -12.146  18.128  0.00  0.00    +0.100 C 
BRANCH  13  15
ATOM      1  O   UNL     1      -7.100 -12.232  20.448  0.00  0.00    -0.276 OA
ATOM      5  N   UNL     1      -8.654 -13.059  18.938  0.00  0.00    -0.293 N 
ATOM     15  C   UNL     1      -7.431 -12.476  19.285  0.00  0.00    +0.216 C 
ATOM     19  C   UNL     1      -9.652 -13.432  19.932  0.00  0.00    +0.133 C 
BRANCH   5  18
ATOM     18  C   UNL     1      -9.024 -13.338  17.552  0.00  0.00    +0.196 C 
BRANCH  18  21
ATOM     21  C   UNL     1     -10.126 -12.481  17.119  0.00  0.00    -0.086 C 
ATOM     23  C   UNL     1     -11.034 -11.779  16.762  0.00  0.00    +0.005 C 
ENDBRANCH  18  21
ENDBRANCH   5  18
ENDBRANCH  13  15
ENDBRANCH   7  13
TORSDOF 9
ENDMDL
MODEL 7
REMARK VINA RESULT:      -5.5      3.045      8.032
REMARK  Name = 26743179
REMARK  10 active torsions:
REMARK  status: ('A' for Active; 'I' for Inactive)
REMARK    1  A    between atoms: O_3  and  C_20
REMARK    2  A    between atoms: O_3  and  C_22
REMARK    3  A    between atoms: N_5  and  C_18
REMARK    4  A    between atoms: N_5  and  C_19
REMARK    5  A    between atoms: C_7  and  C_13
REMARK    6  A    between atoms: C_8  and  C_12
REMARK    7  A    between atoms: C_12  and  C_14
REMARK    8  A    between atoms: C_13  and  C_15
REMARK    9  A    between atoms: C_17  and  C_20
REMARK   10  A    between atoms: C_18  and  C_21
REMARK                            x       y       z     vdW  Elec       q    Type
REMARK                         _______ _______ _______ _____ _____    ______ ____
ROOT
ATOM      4  N   UNL     1      -5.350  -8.292   9.241  0.00  0.00    -0.316 NA
ATOM      7  C   UNL     1      -4.687 -10.753  10.728  0.00  0.00    +0.004 C 
ATOM      8  C   UNL     1      -5.571  -9.629  11.321  0.00  0.00    +0.012 C 
ATOM      9  C   UNL     1      -4.759 -10.690   9.193  0.00  0.00    +0.019 C 
ATOM     10  C   UNL     1      -5.244  -8.262  10.701  0.00  0.00    +0.085 C 
ATOM     11  C   UNL     1      -4.461  -9.292   8.652  0.00  0.00    +0.081 C 
ATOM     29  H   UNL     1      -5.117  -7.373   8.866  0.00  0.00    +0.122 HD
ENDROOT
BRANCH   8  12
ATOM     12  C   UNL     1      -5.504  -9.558  12.847  0.00  0.00    +0.064 C 
BRANCH  12  14
ATOM      2  O   UNL     1      -7.873 -12.001  14.023  0.00  0.00    -0.356 OA
ATOM      6  N   UNL     1      -7.540 -10.848  13.322  0.00  0.00    -0.083 NA
ATOM     14  C   UNL     1      -6.221 -10.715  13.481  0.00  0.00    +0.084 A 
ATOM     16  C   UNL     1      -5.670 -11.744  14.265  0.00  0.00    +0.074 A 
ATOM     17  C   UNL     1      -6.751 -12.526  14.580  0.00  0.00    +0.175 A 
BRANCH  17  20
ATOM     20  C   UNL     1      -6.922 -13.757  15.362  0.00  0.00    +0.306 C 
BRANCH  20   3
ATOM      3  O   UNL     1      -7.456 -13.454  16.653  0.00  0.00    -0.484 OA
BRANCH   3  22
ATOM     22  C   UNL     1      -6.625 -12.795  17.516  0.00  0.00    +0.121 A 
ATOM     24  C   UNL     1      -7.049 -11.612  18.123  0.00  0.00    +0.045 A 
ATOM     25  C   UNL     1      -5.357 -13.304  17.790  0.00  0.00    +0.045 A 
ATOM     26  C   UNL     1      -6.201 -10.938  19.003  0.00  0.00    +0.004 A 
ATOM     27  C   UNL     1      -4.510 -12.631  18.670  0.00  0.00    +0.004 A 
ATOM     28  C   UNL     1      -4.932 -11.448  19.276  0.00  0.00    +0.000 A 
ENDBRANCH   3  22
ENDBRANCH  20   3
ENDBRANCH  17  20
ENDBRANCH  12  14
ENDBRANCH   8  12
BRANCH   7  13
ATOM     13  C   UNL     1      -3.231 -10.720  11.208  0.00  0.00    +0.100 C 
BRANCH  13  15
ATOM      1  O   UNL     1      -3.038 -13.107  11.316  0.00  0.00    -0.276 OA
ATOM      5  N   UNL     1      -2.156 -11.907  13.094  0.00  0.00    -0.293 N 
ATOM     15  C   UNL     1      -2.808 -12.025  11.862  0.00  0.00    +0.216 C 
ATOM     19  C   UNL     1      -1.688 -13.065  13.845  0.00  0.00    +0.133 C 
BRANCH   5  18
ATOM     18  C   UNL     1      -1.894 -10.613  13.721  0.00  0.00    +0.196 C 
BRANCH  18  21
ATOM     21  C   UNL     1      -2.275 -10.625  15.133  0.00  0.00    -0.086 C 
ATOM     23  C   UNL     1      -2.587 -10.639  16.292  0.00  0.00    +0.005 C 
ENDBRANCH  18  21
ENDBRANCH   5  18
ENDBRANCH  13  15
ENDBRANCH   7  13
TORSDOF 9
ENDMDL
MODEL 8
REMARK VINA RESULT:      -5.5      1.516      2.031
REMARK  Name = 26743179
REMARK  10 active torsions:
REMARK  status: ('A' for Active; 'I' for Inactive)
REMARK    1  A    between atoms: O_3  and  C_20
REMARK    2  A    between atoms: O_3  and  C_22
REMARK    3  A    between atoms: N_5  and  C_18
REMARK    4  A    between atoms: N_5  and  C_19
REMARK    5  A    between atoms: C_7  and  C_13
REMARK    6  A    between atoms: C_8  and  C_12
REMARK    7  A    between atoms: C_12  and  C_14
REMARK    8  A    between atoms: C_13  and  C_15
REMARK    9  A    between atoms: C_17  and  C_20
REMARK   10  A    between atoms: C_18  and  C_21
REMARK                            x       y       z     vdW  Elec       q    Type
REMARK                         _______ _______ _______ _____ _____    ______ ____
ROOT
ATOM      4  N   UNL     1      -6.388 -13.880  17.829  0.00  0.00    -0.316 NA
ATOM      7  C   UNL     1      -7.354 -11.232  16.957  0.00  0.00    +0.004 C 
ATOM      8  C   UNL     1      -5.877 -11.671  16.818  0.00  0.00    +0.012 C 
ATOM      9  C   UNL     1      -8.248 -12.483  16.997  0.00  0.00    +0.019 C 
ATOM     10  C   UNL     1      -5.494 -12.722  17.872  0.00  0.00    +0.085 C 
ATOM     11  C   UNL     1      -7.783 -13.499  18.040  0.00  0.00    +0.081 C 
ATOM     29  H   UNL     1      -6.110 -14.549  18.546  0.00  0.00    +0.122 HD
ENDROOT
BRANCH   8  12
ATOM     12  C   UNL     1      -4.898 -10.497  16.849  0.00  0.00    +0.064 C 
BRANCH  12  14
ATOM      2  O   UNL     1      -1.721 -10.941  15.213  0.00  0.00    -0.356 OA
ATOM      6  N   UNL     1      -2.506 -10.731  16.341  0.00  0.00    -0.083 NA
ATOM     14  C   UNL     1      -3.762 -10.706  15.889  0.00  0.00    +0.084 A 
ATOM     16  C   UNL     1      -3.834 -10.893  14.498  0.00  0.00    +0.074 A 
ATOM     17  C   UNL     1      -2.524 -11.036  14.121  0.00  0.00    +0.175 A 
BRANCH  17  20
ATOM     20  C   UNL     1      -1.855 -11.260  12.834  0.00  0.00    +0.306 C 
BRANCH  20   3
ATOM      3  O   UNL     1      -2.006 -10.116  11.990  0.00  0.00    -0.484 OA
BRANCH   3  22
ATOM     22  C   UNL     1      -2.870 -10.244  10.938  0.00  0.00    +0.121 A 
ATOM     24  C   UNL     1      -3.237  -9.120  10.197  0.00  0.00    +0.045 A 
ATOM     25  C   UNL     1      -3.385 -11.497  10.607  0.00  0.00    +0.045 A 
ATOM     26  C   UNL     1      -4.119  -9.250   9.124  0.00  0.00    +0.004 A 
ATOM     27  C   UNL     1      -4.267 -11.627   9.534  0.00  0.00    +0.004 A 
ATOM     28  C   UNL     1      -4.634 -10.504   8.793  0.00  0.00    +0.000 A 
ENDBRANCH   3  22
ENDBRANCH  20   3
ENDBRANCH  17  20
ENDBRANCH  12  14
ENDBRANCH   8  12
BRANCH   7  13
ATOM     13  C   UNL     1      -7.624 -10.329  18.167  0.00  0.00    +0.100 C 
BRANCH  13  15
ATOM      1  O   UNL     1      -9.646 -10.841  19.348  0.00  0.00    -0.276 OA
ATOM      5  N   UNL     1      -9.796  -9.258  17.659  0.00  0.00    -0.293 N 
ATOM     15  C   UNL     1      -9.108 -10.179  18.457  0.00  0.00    +0.216 C 
ATOM     19  C   UNL     1     -11.222  -9.001  17.816  0.00  0.00    +0.133 C 
BRANCH   5  18
ATOM     18  C   UNL     1      -9.137  -8.485  16.610  0.00  0.00    +0.196 C 
BRANCH  18  21
ATOM     21  C   UNL     1      -9.616  -8.879  15.286  0.00  0.00    -0.086 C 
ATOM     23  C   UNL     1     -10.008  -9.199  14.196  0.00  0.00    +0.005 C 
ENDBRANCH  18  21
ENDBRANCH   5  18
ENDBRANCH  13  15
ENDBRANCH   7  13
TORSDOF 9
ENDMDL
MODEL 9
REMARK VINA RESULT:      -5.5      3.144      5.676
REMARK  Name = 26743179
REMARK  10 active torsions:
REMARK  status: ('A' for Active; 'I' for Inactive)
REMARK    1  A    between atoms: O_3  and  C_20
REMARK    2  A    between atoms: O_3  and  C_22
REMARK    3  A    between atoms: N_5  and  C_18
REMARK    4  A    between atoms: N_5  and  C_19
REMARK    5  A    between atoms: C_7  and  C_13
REMARK    6  A    between atoms: C_8  and  C_12
REMARK    7  A    between atoms: C_12  and  C_14
REMARK    8  A    between atoms: C_13  and  C_15
REMARK    9  A    between atoms: C_17  and  C_20
REMARK   10  A    between atoms: C_18  and  C_21
REMARK                            x       y       z     vdW  Elec       q    Type
REMARK                         _______ _______ _______ _____ _____    ______ ____
ROOT
ATOM      4  N   UNL     1      -2.470 -13.703  14.442  0.00  0.00    -0.316 NA
ATOM      7  C   UNL     1      -4.281 -11.683  13.283  0.00  0.00    +0.004 C 
ATOM      8  C   UNL     1      -2.897 -12.013  12.674  0.00  0.00    +0.012 C 
ATOM      9  C   UNL     1      -4.778 -12.895  14.088  0.00  0.00    +0.019 C 
ATOM     10  C   UNL     1      -1.922 -12.544  13.736  0.00  0.00    +0.085 C 
ATOM     11  C   UNL     1      -3.740 -13.391  15.095  0.00  0.00    +0.081 C 
ATOM     29  H   UNL     1      -1.801 -14.020  15.143  0.00  0.00    +0.122 HD
ENDROOT
BRANCH   8  12
ATOM     12  C   UNL     1      -2.280 -10.837  11.917  0.00  0.00    +0.064 C 
BRANCH  12  14
ATOM      2  O   UNL     1      -3.974  -9.235   9.172  0.00  0.00    -0.356 OA
ATOM      6  N   UNL     1      -3.161  -9.211  10.299  0.00  0.00    -0.083 NA
ATOM     14  C   UNL     1      -3.091 -10.481  10.704  0.00  0.00    +0.084 A 
ATOM     16  C   UNL     1      -3.833 -11.346   9.880  0.00  0.00    +0.074 A 
ATOM     17  C   UNL     1      -4.368 -10.513   8.933  0.00  0.00    +0.175 A 
BRANCH  17  20
ATOM     20  C   UNL     1      -5.239 -10.723   7.769  0.00  0.00    +0.306 C 
BRANCH  20   3
ATOM      3  O   UNL     1      -5.251 -12.105   7.402  0.00  0.00    -0.484 OA
BRANCH   3  22
ATOM     22  C   UNL     1      -4.387 -12.480   6.412  0.00  0.00    +0.121 A 
ATOM     24  C   UNL     1      -4.442 -11.855   5.166  0.00  0.00    +0.045 A 
ATOM     25  C   UNL     1      -3.450 -13.486   6.647  0.00  0.00    +0.045 A 
ATOM     26  C   UNL     1      -3.561 -12.238   4.154  0.00  0.00    +0.004 A 
ATOM     27  C   UNL     1      -2.568 -13.868   5.636  0.00  0.00    +0.004 A 
ATOM     28  C   UNL     1      -2.624 -13.245   4.390  0.00  0.00    +0.000 A 
ENDBRANCH   3  22
ENDBRANCH  20   3
ENDBRANCH  17  20
ENDBRANCH  12  14
ENDBRANCH   8  12
BRANCH   7  13
ATOM     13  C   UNL     1      -4.298 -10.413  14.142  0.00  0.00    +0.100 C 
BRANCH  13  15
ATOM      1  O   UNL     1      -6.637  -9.966  13.873  0.00  0.00    -0.276 OA
ATOM      5  N   UNL     1      -5.806  -9.910  16.037  0.00  0.00    -0.293 N 
ATOM     15  C   UNL     1      -5.688 -10.077  14.653  0.00  0.00    +0.216 C 
ATOM     19  C   UNL     1      -7.074  -9.587  16.680  0.00  0.00    +0.133 C 
BRANCH   5  18
ATOM     18  C   UNL     1      -4.668 -10.047  16.942  0.00  0.00    +0.196 C 
BRANCH  18  21
ATOM     21  C   UNL     1      -4.907 -11.095  17.934  0.00  0.00    -0.086 C 
ATOM     23  C   UNL     1      -5.107 -11.955  18.749  0.00  0.00    +0.005 C 
ENDBRANCH  18  21
ENDBRANCH   5  18
ENDBRANCH  13  15
ENDBRANCH   7  13
TORSDOF 9
ENDMDL
MODEL 10
REMARK VINA RESULT:      -5.5      3.786      8.654
REMARK  Name = 26743179
REMARK  10 active torsions:
REMARK  status: ('A' for Active; 'I' for Inactive)
REMARK    1  A    between atoms: O_3  and  C_20
REMARK    2  A    between atoms: O_3  and  C_22
REMARK    3  A    between atoms: N_5  and  C_18
REMARK    4  A    between atoms: N_5  and  C_19
REMARK    5  A    between atoms: C_7  and  C_13
REMARK    6  A    between atoms: C_8  and  C_12
REMARK    7  A    between atoms: C_12  and  C_14
REMARK    8  A    between atoms: C_13  and  C_15
REMARK    9  A    between atoms: C_17  and  C_20
REMARK   10  A    between atoms: C_18  and  C_21
REMARK                            x       y       z     vdW  Elec       q    Type
REMARK                         _______ _______ _______ _____ _____    ______ ____
ROOT
ATOM      4  N   UNL     1      -7.389  -8.996  10.441  0.00  0.00    -0.316 NA
ATOM      7  C   UNL     1      -5.653 -10.870   8.966  0.00  0.00    +0.004 C 
ATOM      8  C   UNL     1      -5.220 -10.194  10.289  0.00  0.00    +0.012 C 
ATOM      9  C   UNL     1      -7.188 -10.922   8.908  0.00  0.00    +0.019 C 
ATOM     10  C   UNL     1      -5.934  -8.849  10.500  0.00  0.00    +0.085 C 
ATOM     11  C   UNL     1      -7.828  -9.558   9.165  0.00  0.00    +0.081 C 
ATOM     29  H   UNL     1      -7.826  -8.084  10.575  0.00  0.00    +0.122 HD
ENDROOT
BRANCH   8  12
ATOM     12  C   UNL     1      -3.705 -10.023  10.407  0.00  0.00    +0.064 C 
BRANCH  12  14
ATOM      2  O   UNL     1      -1.856 -10.417  13.471  0.00  0.00    -0.356 OA
ATOM      6  N   UNL     1      -1.935 -10.181  12.103  0.00  0.00    -0.083 NA
ATOM     14  C   UNL     1      -3.239 -10.237  11.818  0.00  0.00    +0.084 A 
ATOM     16  C   UNL     1      -4.024 -10.503  12.954  0.00  0.00    +0.074 A 
ATOM     17  C   UNL     1      -3.106 -10.608  13.966  0.00  0.00    +0.175 A 
BRANCH  17  20
ATOM     20  C   UNL     1      -3.207 -10.871  15.407  0.00  0.00    +0.306 C 
BRANCH  20   3
ATOM      3  O   UNL     1      -4.411 -10.305  15.931  0.00  0.00    -0.484 OA
BRANCH   3  22
ATOM     22  C   UNL     1      -4.780 -10.710  17.183  0.00  0.00    +0.121 A 
ATOM     24  C   UNL     1      -3.921 -11.508  17.938  0.00  0.00    +0.045 A 
ATOM     25  C   UNL     1      -6.014 -10.325  17.705  0.00  0.00    +0.045 A 
ATOM     26  C   UNL     1      -4.297 -11.923  19.216  0.00  0.00    +0.004 A 
ATOM     27  C   UNL     1      -6.391 -10.739  18.983  0.00  0.00    +0.004 A 
ATOM     28  C   UNL     1      -5.533 -11.538  19.738  0.00  0.00    +0.000 A 
ENDBRANCH   3  22
ENDBRANCH  20   3
ENDBRANCH  17  20
ENDBRANCH  12  14
ENDBRANCH   8  12
BRANCH   7  13
ATOM     13  C   UNL     1      -5.080 -10.204   7.709  0.00  0.00    +0.100 C 
BRANCH  13  15
ATOM      1  O   UNL     1      -4.480 -12.164   6.468  0.00  0.00    -0.276 OA
ATOM      5  N   UNL     1      -5.948 -10.690   5.443  0.00  0.00    -0.293 N 
ATOM     15  C   UNL     1      -5.131 -11.117   6.496  0.00  0.00    +0.216 C 
ATOM     19  C   UNL     1      -6.102 -11.455   4.213  0.00  0.00    +0.133 C 
BRANCH   5  18
ATOM     18  C   UNL     1      -6.710  -9.444   5.500  0.00  0.00    +0.196 C 
BRANCH  18  21
ATOM     21  C   UNL     1      -8.149  -9.707   5.504  0.00  0.00    -0.086 C 
ATOM     23  C   UNL     1      -9.331  -9.920   5.510  0.00  0.00    +0.005 C 
ENDBRANCH  18  21
ENDBRANCH   5  18
ENDBRANCH  13  15
ENDBRANCH   7  13
TORSDOF 9
ENDMDL
