MODEL 1
REMARK VINA RESULT:      -7.1      0.000      0.000
REMARK  Name = 45361481
REMARK  9 active torsions:
REMARK  status: ('A' for Active; 'I' for Inactive)
REMARK    1  A    between atoms: O_1  and  C_9
REMARK    2  A    between atoms: N_4  and  C_13
REMARK    3  A    between atoms: C_6  and  C_16
REMARK    4  A    between atoms: C_8  and  C_18
REMARK    5  A    between atoms: C_11  and  C_17
REMARK    6  A    between atoms: C_17  and  C_19
REMARK    7  A    between atoms: C_17  and  C_20
REMARK    8  A    between atoms: C_21  and  C_22
REMARK    9  A    between atoms: C_29  and  C_30
REMARK                            x       y       z     vdW  Elec       q    Type
REMARK                         _______ _______ _______ _____ _____    ______ ____
ROOT
ATOM      6  C   UNL     1      -3.639 -10.616  10.551  0.00  0.00    -0.027 C 
ATOM      7  C   UNL     1      -4.903 -10.308  11.420  0.00  0.00    +0.028 C 
ATOM      8  C   UNL     1      -5.663  -9.045  10.875  0.00  0.00    +0.012 C 
ATOM      9  C   UNL     1      -4.551 -10.273  12.935  0.00  0.00    +0.122 C 
ATOM     10  C   UNL     1      -2.980 -11.925  11.044  0.00  0.00    +0.007 C 
ATOM     11  C   UNL     1      -3.799 -11.542  13.401  0.00  0.00    +0.029 C 
ATOM     12  C   UNL     1      -4.075 -10.832   9.084  0.00  0.00    +0.009 C 
ATOM     13  C   UNL     1      -6.031  -9.244   9.377  0.00  0.00    +0.076 C 
ATOM     14  C   UNL     1      -2.598 -11.881  12.518  0.00  0.00    +0.007 C 
ATOM     15  C   UNL     1      -4.842  -9.650   8.507  0.00  0.00    +0.023 C 
ATOM     16  C   UNL     1      -2.588  -9.478  10.607  0.00  0.00    +0.011 C 
ATOM     18  C   UNL     1      -6.935  -8.702  11.668  0.00  0.00    +0.010 C 
ENDROOT
BRANCH  13   4
ATOM      3  O   UNL     1      -8.482  -9.061   7.825  0.00  0.00    -0.276 OA
ATOM      4  N   UNL     1      -6.629  -8.054   8.810  0.00  0.00    -0.312 N 
ATOM     22  C   UNL     1      -7.803  -8.075   8.085  0.00  0.00    +0.216 C 
ATOM     31  H   UNL     1      -6.126  -7.177   8.906  0.00  0.00    +0.149 HD
BRANCH  22  21
ATOM     21  C   UNL     1      -8.237  -6.732   7.596  0.00  0.00    +0.075 C 
ATOM     23  C   UNL     1      -9.655  -6.544   7.144  0.00  0.00    +0.013 C 
ATOM     24  C   UNL     1      -9.190  -5.925   8.430  0.00  0.00    +0.013 C 
ENDBRANCH  22  21
ENDBRANCH  13   4
BRANCH   9   1
ATOM      1  O   UNL     1      -5.754 -10.207  13.703  0.00  0.00    -0.391 OA
ATOM     32  H   UNL     1      -6.480  -9.960  13.106  0.00  0.00    +0.210 HD
ENDBRANCH   9   1
BRANCH  11  17
ATOM     17  C   UNL     1      -3.347 -11.432  14.862  0.00  0.00    +0.078 C 
ATOM     19  C   UNL     1      -1.837 -11.524  14.977  0.00  0.00    +0.017 C 
BRANCH  17  20
ATOM      2  O   UNL     1      -4.054 -13.673  15.163  0.00  0.00    -0.275 OA
ATOM      5  N   UNL     1      -4.496 -12.204  16.908  0.00  0.00    -0.301 N 
ATOM     20  C   UNL     1      -3.995 -12.542  15.652  0.00  0.00    +0.219 C 
ATOM     25  C   UNL     1      -5.103 -13.235  17.752  0.00  0.00    +0.108 C 
ATOM     26  C   UNL     1      -4.439 -10.870  17.515  0.00  0.00    +0.108 C 
ATOM     27  C   UNL     1      -6.509 -12.826  18.185  0.00  0.00    +0.022 C 
ATOM     28  C   UNL     1      -5.832 -10.411  17.946  0.00  0.00    +0.022 C 
ATOM     29  C   UNL     1      -6.503 -11.447  18.861  0.00  0.00    -0.011 C 
ATOM     30  C   UNL     1      -7.922 -11.013  19.222  0.00  0.00    +0.007 C 
ENDBRANCH  17  20
ENDBRANCH  11  17
TORSDOF 5
ENDMDL
MODEL 2
REMARK VINA RESULT:      -6.9      2.798      7.717
REMARK  Name = 45361481
REMARK  9 active torsions:
REMARK  status: ('A' for Active; 'I' for Inactive)
REMARK    1  A    between atoms: O_1  and  C_9
REMARK    2  A    between atoms: N_4  and  C_13
REMARK    3  A    between atoms: C_6  and  C_16
REMARK    4  A    between atoms: C_8  and  C_18
REMARK    5  A    between atoms: C_11  and  C_17
REMARK    6  A    between atoms: C_17  and  C_19
REMARK    7  A    between atoms: C_17  and  C_20
REMARK    8  A    between atoms: C_21  and  C_22
REMARK    9  A    between atoms: C_29  and  C_30
REMARK                            x       y       z     vdW  Elec       q    Type
REMARK                         _______ _______ _______ _____ _____    ______ ____
ROOT
ATOM      6  C   UNL     1      -5.092 -11.189  17.604  0.00  0.00    -0.027 C 
ATOM      7  C   UNL     1      -5.665 -10.491  16.326  0.00  0.00    +0.028 C 
ATOM      8  C   UNL     1      -7.235 -10.537  16.319  0.00  0.00    +0.012 C 
ATOM      9  C   UNL     1      -4.974 -11.022  15.036  0.00  0.00    +0.122 C 
ATOM     10  C   UNL     1      -3.555 -11.027  17.636  0.00  0.00    +0.007 C 
ATOM     11  C   UNL     1      -3.431 -10.953  15.116  0.00  0.00    +0.029 C 
ATOM     12  C   UNL     1      -5.665 -10.492  18.859  0.00  0.00    +0.009 C 
ATOM     13  C   UNL     1      -7.797  -9.900  17.621  0.00  0.00    +0.076 C 
ATOM     14  C   UNL     1      -2.871 -11.582  16.392  0.00  0.00    +0.007 C 
ATOM     15  C   UNL     1      -7.187 -10.481  18.896  0.00  0.00    +0.023 C 
ATOM     16  C   UNL     1      -5.435 -12.700  17.659  0.00  0.00    +0.011 C 
ATOM     18  C   UNL     1      -7.866  -9.840  15.101  0.00  0.00    +0.010 C 
ENDROOT
BRANCH  13   4
ATOM      3  O   UNL     1      -9.779  -7.778  17.464  0.00  0.00    -0.276 OA
ATOM      4  N   UNL     1      -9.238 -10.029  17.701  0.00  0.00    -0.312 N 
ATOM     22  C   UNL     1     -10.096  -8.952  17.615  0.00  0.00    +0.216 C 
ATOM     31  H   UNL     1      -9.622 -10.951  17.888  0.00  0.00    +0.149 HD
BRANCH  22  21
ATOM     21  C   UNL     1     -11.539  -9.317  17.722  0.00  0.00    +0.075 C 
ATOM     23  C   UNL     1     -11.912 -10.735  18.036  0.00  0.00    +0.013 C 
ATOM     24  C   UNL     1     -12.106  -9.663  19.068  0.00  0.00    +0.013 C 
ENDBRANCH  22  21
ENDBRANCH  13   4
BRANCH   9   1
ATOM      1  O   UNL     1      -5.362 -10.216  13.922  0.00  0.00    -0.391 OA
ATOM     32  H   UNL     1      -5.316 -10.765  13.121  0.00  0.00    +0.210 HD
ENDBRANCH   9   1
BRANCH  11  17
ATOM     17  C   UNL     1      -2.770 -11.600  13.893  0.00  0.00    +0.078 C 
ATOM     19  C   UNL     1      -1.634 -12.518  14.306  0.00  0.00    +0.017 C 
BRANCH  17  20
ATOM      2  O   UNL     1      -1.506  -9.643  13.461  0.00  0.00    -0.275 OA
ATOM      5  N   UNL     1      -2.660 -10.549  11.660  0.00  0.00    -0.301 N 
ATOM     20  C   UNL     1      -2.251 -10.507  12.992  0.00  0.00    +0.219 C 
ATOM     25  C   UNL     1      -2.167  -9.547  10.714  0.00  0.00    +0.108 C 
ATOM     26  C   UNL     1      -3.543 -11.564  11.074  0.00  0.00    +0.108 C 
ATOM     27  C   UNL     1      -3.326  -8.848  10.007  0.00  0.00    +0.022 C 
ATOM     28  C   UNL     1      -4.732 -10.907  10.372  0.00  0.00    +0.022 C 
ATOM     29  C   UNL     1      -4.267  -9.865   9.344  0.00  0.00    -0.011 C 
ATOM     30  C   UNL     1      -5.463  -9.163   8.704  0.00  0.00    +0.007 C 
ENDBRANCH  17  20
ENDBRANCH  11  17
TORSDOF 5
ENDMDL
MODEL 3
REMARK VINA RESULT:      -6.7     28.445     30.433
REMARK  Name = 45361481
REMARK  9 active torsions:
REMARK  status: ('A' for Active; 'I' for Inactive)
REMARK    1  A    between atoms: O_1  and  C_9
REMARK    2  A    between atoms: N_4  and  C_13
REMARK    3  A    between atoms: C_6  and  C_16
REMARK    4  A    between atoms: C_8  and  C_18
REMARK    5  A    between atoms: C_11  and  C_17
REMARK    6  A    between atoms: C_17  and  C_19
REMARK    7  A    between atoms: C_17  and  C_20
REMARK    8  A    between atoms: C_21  and  C_22
REMARK    9  A    between atoms: C_29  and  C_30
REMARK                            x       y       z     vdW  Elec       q    Type
REMARK                         _______ _______ _______ _____ _____    ______ ____
ROOT
ATOM      6  C   UNL     1      12.456   8.208  21.175  0.00  0.00    -0.027 C 
ATOM      7  C   UNL     1      13.470   9.032  22.036  0.00  0.00    +0.028 C 
ATOM      8  C   UNL     1      12.909  10.467  22.340  0.00  0.00    +0.012 C 
ATOM      9  C   UNL     1      14.898   8.989  21.419  0.00  0.00    +0.122 C 
ATOM     10  C   UNL     1      12.986   6.767  20.990  0.00  0.00    +0.007 C 
ATOM     11  C   UNL     1      15.382   7.547  21.140  0.00  0.00    +0.029 C 
ATOM     12  C   UNL     1      11.109   8.120  21.928  0.00  0.00    +0.009 C 
ATOM     13  C   UNL     1      11.520  10.366  23.031  0.00  0.00    +0.076 C 
ATOM     14  C   UNL     1      14.368   6.719  20.350  0.00  0.00    +0.007 C 
ATOM     15  C   UNL     1      10.527   9.483  22.275  0.00  0.00    +0.023 C 
ATOM     16  C   UNL     1      12.217   8.834  19.777  0.00  0.00    +0.011 C 
ATOM     18  C   UNL     1      13.846  11.323  23.210  0.00  0.00    +0.010 C 
ENDROOT
BRANCH  13   4
ATOM      3  O   UNL     1      10.863  11.664  25.548  0.00  0.00    -0.276 OA
ATOM      4  N   UNL     1      10.920  11.671  23.221  0.00  0.00    -0.312 N 
ATOM     22  C   UNL     1      10.647  12.199  24.467  0.00  0.00    +0.216 C 
ATOM     31  H   UNL     1      10.639  12.190  22.395  0.00  0.00    +0.149 HD
BRANCH  22  21
ATOM     21  C   UNL     1      10.031  13.558  24.427  0.00  0.00    +0.075 C 
ATOM     23  C   UNL     1      10.450  14.580  25.442  0.00  0.00    +0.013 C 
ATOM     24  C   UNL     1      10.872  14.729  24.010  0.00  0.00    +0.013 C 
ENDBRANCH  22  21
ENDBRANCH  13   4
BRANCH   9   1
ATOM      1  O   UNL     1      15.831   9.562  22.337  0.00  0.00    -0.391 OA
ATOM     32  H   UNL     1      15.939   8.947  23.082  0.00  0.00    +0.210 HD
ENDBRANCH   9   1
BRANCH  11  17
ATOM     17  C   UNL     1      16.733   7.531  20.414  0.00  0.00    +0.078 C 
ATOM     19  C   UNL     1      16.690   6.627  19.197  0.00  0.00    +0.017 C 
BRANCH  17  20
ATOM      2  O   UNL     1      17.683   5.933  21.884  0.00  0.00    -0.275 OA
ATOM      5  N   UNL     1      18.843   7.931  21.636  0.00  0.00    -0.301 N 
ATOM     20  C   UNL     1      17.791   7.053  21.377  0.00  0.00    +0.219 C 
ATOM     25  C   UNL     1      19.930   7.524  22.528  0.00  0.00    +0.108 C 
ATOM     26  C   UNL     1      18.999   9.266  21.048  0.00  0.00    +0.108 C 
ATOM     27  C   UNL     1      20.124   8.541  23.650  0.00  0.00    +0.022 C 
ATOM     28  C   UNL     1      19.176  10.321  22.140  0.00  0.00    +0.022 C 
ATOM     29  C   UNL     1      20.327   9.956  23.089  0.00  0.00    -0.011 C 
ATOM     30  C   UNL     1      20.444  10.977  24.218  0.00  0.00    +0.007 C 
ENDBRANCH  17  20
ENDBRANCH  11  17
TORSDOF 5
ENDMDL
MODEL 4
REMARK VINA RESULT:      -6.4     28.616     31.422
REMARK  Name = 45361481
REMARK  9 active torsions:
REMARK  status: ('A' for Active; 'I' for Inactive)
REMARK    1  A    between atoms: O_1  and  C_9
REMARK    2  A    between atoms: N_4  and  C_13
REMARK    3  A    between atoms: C_6  and  C_16
REMARK    4  A    between atoms: C_8  and  C_18
REMARK    5  A    between atoms: C_11  and  C_17
REMARK    6  A    between atoms: C_17  and  C_19
REMARK    7  A    between atoms: C_17  and  C_20
REMARK    8  A    between atoms: C_21  and  C_22
REMARK    9  A    between atoms: C_29  and  C_30
REMARK                            x       y       z     vdW  Elec       q    Type
REMARK                         _______ _______ _______ _____ _____    ______ ____
ROOT
ATOM      6  C   UNL     1      16.439   6.981  20.121  0.00  0.00    -0.027 C 
ATOM      7  C   UNL     1      16.689   8.524  20.200  0.00  0.00    +0.028 C 
ATOM      8  C   UNL     1      17.378   8.910  21.557  0.00  0.00    +0.012 C 
ATOM      9  C   UNL     1      15.398   9.322  19.854  0.00  0.00    +0.122 C 
ATOM     10  C   UNL     1      15.865   6.621  18.731  0.00  0.00    +0.007 C 
ATOM     11  C   UNL     1      14.770   8.885  18.510  0.00  0.00    +0.029 C 
ATOM     12  C   UNL     1      17.788   6.243  20.278  0.00  0.00    +0.009 C 
ATOM     13  C   UNL     1      18.696   8.106  21.739  0.00  0.00    +0.076 C 
ATOM     14  C   UNL     1      14.580   7.372  18.405  0.00  0.00    +0.007 C 
ATOM     15  C   UNL     1      18.518   6.598  21.566  0.00  0.00    +0.023 C 
ATOM     16  C   UNL     1      15.455   6.482  21.210  0.00  0.00    +0.011 C 
ATOM     18  C   UNL     1      17.680  10.412  21.689  0.00  0.00    +0.010 C 
ENDROOT
BRANCH  13   4
ATOM      3  O   UNL     1      21.452   8.847  22.298  0.00  0.00    -0.276 OA
ATOM      4  N   UNL     1      19.299   8.351  23.033  0.00  0.00    -0.312 N 
ATOM     22  C   UNL     1      20.625   8.700  23.191  0.00  0.00    +0.216 C 
ATOM     31  H   UNL     1      18.728   8.201  23.859  0.00  0.00    +0.149 HD
BRANCH  22  21
ATOM     21  C   UNL     1      21.033   8.906  24.612  0.00  0.00    +0.075 C 
ATOM     23  C   UNL     1      20.479   7.996  25.669  0.00  0.00    +0.013 C 
ATOM     24  C   UNL     1      21.922   7.891  25.271  0.00  0.00    +0.013 C 
ENDBRANCH  22  21
ENDBRANCH  13   4
BRANCH   9   1
ATOM      1  O   UNL     1      15.716  10.709  19.724  0.00  0.00    -0.391 OA
ATOM     32  H   UNL     1      14.982  11.146  19.262  0.00  0.00    +0.210 HD
ENDBRANCH   9   1
BRANCH  11  17
ATOM     17  C   UNL     1      13.433   9.589  18.252  0.00  0.00    +0.078 C 
ATOM     19  C   UNL     1      12.271   8.771  18.784  0.00  0.00    +0.017 C 
BRANCH  17  20
ATOM      2  O   UNL     1      12.679   8.958  16.096  0.00  0.00    -0.275 OA
ATOM      5  N   UNL     1      13.843  10.964  16.240  0.00  0.00    -0.301 N 
ATOM     20  C   UNL     1      13.280   9.802  16.766  0.00  0.00    +0.219 C 
ATOM     25  C   UNL     1      13.702  11.261  14.814  0.00  0.00    +0.108 C 
ATOM     26  C   UNL     1      14.561  11.984  17.012  0.00  0.00    +0.108 C 
ATOM     27  C   UNL     1      15.065  11.502  14.170  0.00  0.00    +0.022 C 
ATOM     28  C   UNL     1      15.944  12.243  16.412  0.00  0.00    +0.022 C 
ATOM     29  C   UNL     1      15.849  12.590  14.919  0.00  0.00    -0.011 C 
ATOM     30  C   UNL     1      17.239  12.772  14.315  0.00  0.00    +0.007 C 
ENDBRANCH  17  20
ENDBRANCH  11  17
TORSDOF 5
ENDMDL
MODEL 5
REMARK VINA RESULT:      -6.4     19.542     22.715
REMARK  Name = 45361481
REMARK  9 active torsions:
REMARK  status: ('A' for Active; 'I' for Inactive)
REMARK    1  A    between atoms: O_1  and  C_9
REMARK    2  A    between atoms: N_4  and  C_13
REMARK    3  A    between atoms: C_6  and  C_16
REMARK    4  A    between atoms: C_8  and  C_18
REMARK    5  A    between atoms: C_11  and  C_17
REMARK    6  A    between atoms: C_17  and  C_19
REMARK    7  A    between atoms: C_17  and  C_20
REMARK    8  A    between atoms: C_21  and  C_22
REMARK    9  A    between atoms: C_29  and  C_30
REMARK                            x       y       z     vdW  Elec       q    Type
REMARK                         _______ _______ _______ _____ _____    ______ ____
ROOT
ATOM      6  C   UNL     1     -15.238   7.780  20.810  0.00  0.00    -0.027 C 
ATOM      7  C   UNL     1     -13.859   7.051  20.942  0.00  0.00    +0.028 C 
ATOM      8  C   UNL     1     -13.934   5.900  22.008  0.00  0.00    +0.012 C 
ATOM      9  C   UNL     1     -12.700   8.071  21.139  0.00  0.00    +0.122 C 
ATOM     10  C   UNL     1     -15.162   8.828  19.676  0.00  0.00    +0.007 C 
ATOM     11  C   UNL     1     -12.691   9.178  20.059  0.00  0.00    +0.029 C 
ATOM     12  C   UNL     1     -16.319   6.746  20.423  0.00  0.00    +0.009 C 
ATOM     13  C   UNL     1     -15.075   4.907  21.648  0.00  0.00    +0.076 C 
ATOM     14  C   UNL     1     -14.053   9.852  19.885  0.00  0.00    +0.007 C 
ATOM     15  C   UNL     1     -16.421   5.589  21.407  0.00  0.00    +0.023 C 
ATOM     16  C   UNL     1     -15.660   8.492  22.120  0.00  0.00    +0.011 C 
ATOM     18  C   UNL     1     -12.617   5.122  22.167  0.00  0.00    +0.010 C 
ENDROOT
BRANCH  13   4
ATOM      3  O   UNL     1     -16.017   5.288  24.372  0.00  0.00    -0.276 OA
ATOM      4  N   UNL     1     -15.248   3.897  22.671  0.00  0.00    -0.312 N 
ATOM     22  C   UNL     1     -15.705   4.184  23.942  0.00  0.00    +0.216 C 
ATOM     31  H   UNL     1     -14.963   2.947  22.454  0.00  0.00    +0.149 HD
BRANCH  22  21
ATOM     21  C   UNL     1     -15.807   2.990  24.833  0.00  0.00    +0.075 C 
ATOM     23  C   UNL     1     -16.342   3.161  26.224  0.00  0.00    +0.013 C 
ATOM     24  C   UNL     1     -17.165   2.457  25.186  0.00  0.00    +0.013 C 
ENDBRANCH  22  21
ENDBRANCH  13   4
BRANCH   9   1
ATOM      1  O   UNL     1     -11.447   7.393  21.037  0.00  0.00    -0.391 OA
ATOM     32  H   UNL     1     -10.905   7.855  20.375  0.00  0.00    +0.210 HD
ENDBRANCH   9   1
BRANCH  11  17
ATOM     17  C   UNL     1     -11.625  10.243  20.345  0.00  0.00    +0.078 C 
ATOM     19  C   UNL     1     -12.046  11.146  21.489  0.00  0.00    +0.017 C 
BRANCH  17  20
ATOM      2  O   UNL     1     -11.846  12.212  19.045  0.00  0.00    -0.275 OA
ATOM      5  N   UNL     1     -10.723  10.436  18.053  0.00  0.00    -0.301 N 
ATOM     20  C   UNL     1     -11.412  11.058  19.094  0.00  0.00    +0.219 C 
ATOM     25  C   UNL     1     -10.441  11.175  16.822  0.00  0.00    +0.108 C 
ATOM     26  C   UNL     1     -10.195   9.067  18.082  0.00  0.00    +0.108 C 
ATOM     27  C   UNL     1     -10.957  10.417  15.601  0.00  0.00    +0.022 C 
ATOM     28  C   UNL     1     -10.705   8.264  16.886  0.00  0.00    +0.022 C 
ATOM     29  C   UNL     1     -10.406   8.984  15.562  0.00  0.00    -0.011 C 
ATOM     30  C   UNL     1     -10.986   8.210  14.380  0.00  0.00    +0.007 C 
ENDBRANCH  17  20
ENDBRANCH  11  17
TORSDOF 5
ENDMDL
MODEL 6
REMARK VINA RESULT:      -6.4      1.877      8.466
REMARK  Name = 45361481
REMARK  9 active torsions:
REMARK  status: ('A' for Active; 'I' for Inactive)
REMARK    1  A    between atoms: O_1  and  C_9
REMARK    2  A    between atoms: N_4  and  C_13
REMARK    3  A    between atoms: C_6  and  C_16
REMARK    4  A    between atoms: C_8  and  C_18
REMARK    5  A    between atoms: C_11  and  C_17
REMARK    6  A    between atoms: C_17  and  C_19
REMARK    7  A    between atoms: C_17  and  C_20
REMARK    8  A    between atoms: C_21  and  C_22
REMARK    9  A    between atoms: C_29  and  C_30
REMARK                            x       y       z     vdW  Elec       q    Type
REMARK                         _______ _______ _______ _____ _____    ______ ____
ROOT
ATOM      6  C   UNL     1      -3.606 -10.318  11.174  0.00  0.00    -0.027 C 
ATOM      7  C   UNL     1      -4.902  -9.859  11.921  0.00  0.00    +0.028 C 
ATOM      8  C   UNL     1      -5.143 -10.727  13.208  0.00  0.00    +0.012 C 
ATOM      9  C   UNL     1      -6.110  -9.761  10.945  0.00  0.00    +0.122 C 
ATOM     10  C   UNL     1      -3.336  -9.374   9.980  0.00  0.00    +0.007 C 
ATOM     11  C   UNL     1      -5.800  -8.899   9.699  0.00  0.00    +0.029 C 
ATOM     12  C   UNL     1      -2.403 -10.210  12.139  0.00  0.00    +0.009 C 
ATOM     13  C   UNL     1      -3.897 -10.671  14.136  0.00  0.00    +0.076 C 
ATOM     14  C   UNL     1      -4.502  -9.305   9.001  0.00  0.00    +0.007 C 
ATOM     15  C   UNL     1      -2.590 -11.011  13.421  0.00  0.00    +0.023 C 
ATOM     16  C   UNL     1      -3.707 -11.772  10.647  0.00  0.00    +0.011 C 
ATOM     18  C   UNL     1      -6.389 -10.309  14.008  0.00  0.00    +0.010 C 
ENDROOT
BRANCH  13   4
ATOM      3  O   UNL     1      -4.124  -9.922  16.936  0.00  0.00    -0.276 OA
ATOM      4  N   UNL     1      -4.039 -11.552  15.277  0.00  0.00    -0.312 N 
ATOM     22  C   UNL     1      -4.139 -11.092  16.574  0.00  0.00    +0.216 C 
ATOM     31  H   UNL     1      -4.004 -12.553  15.111  0.00  0.00    +0.149 HD
BRANCH  22  21
ATOM     21  C   UNL     1      -4.279 -12.176  17.592  0.00  0.00    +0.075 C 
ATOM     23  C   UNL     1      -4.550 -11.806  19.020  0.00  0.00    +0.013 C 
ATOM     24  C   UNL     1      -5.628 -12.443  18.193  0.00  0.00    +0.013 C 
ENDBRANCH  22  21
ENDBRANCH  13   4
BRANCH   9   1
ATOM      1  O   UNL     1      -7.210  -9.137  11.609  0.00  0.00    -0.391 OA
ATOM     32  H   UNL     1      -7.944  -9.064  10.976  0.00  0.00    +0.210 HD
ENDBRANCH   9   1
BRANCH  11  17
ATOM     17  C   UNL     1      -6.954  -8.922   8.690  0.00  0.00    +0.078 C 
ATOM     19  C   UNL     1      -6.506  -9.496   7.358  0.00  0.00    +0.017 C 
BRANCH  17  20
ATOM      2  O   UNL     1      -6.647  -6.583   8.464  0.00  0.00    -0.275 OA
ATOM      5  N   UNL     1      -8.838  -7.353   8.385  0.00  0.00    -0.301 N 
ATOM     20  C   UNL     1      -7.458  -7.512   8.502  0.00  0.00    +0.219 C 
ATOM     25  C   UNL     1      -9.401  -6.021   8.161  0.00  0.00    +0.108 C 
ATOM     26  C   UNL     1      -9.825  -8.438   8.427  0.00  0.00    +0.108 C 
ATOM     27  C   UNL     1     -10.457  -5.691   9.214  0.00  0.00    +0.022 C 
ATOM     28  C   UNL     1     -10.893  -8.158   9.484  0.00  0.00    +0.022 C 
ATOM     29  C   UNL     1     -11.539  -6.780   9.276  0.00  0.00    -0.011 C 
ATOM     30  C   UNL     1     -12.548  -6.481  10.382  0.00  0.00    +0.007 C 
ENDBRANCH  17  20
ENDBRANCH  11  17
TORSDOF 5
ENDMDL
MODEL 7
REMARK VINA RESULT:      -6.3     28.833     31.292
REMARK  Name = 45361481
REMARK  9 active torsions:
REMARK  status: ('A' for Active; 'I' for Inactive)
REMARK    1  A    between atoms: O_1  and  C_9
REMARK    2  A    between atoms: N_4  and  C_13
REMARK    3  A    between atoms: C_6  and  C_16
REMARK    4  A    between atoms: C_8  and  C_18
REMARK    5  A    between atoms: C_11  and  C_17
REMARK    6  A    between atoms: C_17  and  C_19
REMARK    7  A    between atoms: C_17  and  C_20
REMARK    8  A    between atoms: C_21  and  C_22
REMARK    9  A    between atoms: C_29  and  C_30
REMARK                            x       y       z     vdW  Elec       q    Type
REMARK                         _______ _______ _______ _____ _____    ______ ____
ROOT
ATOM      6  C   UNL     1      18.433  10.779  21.831  0.00  0.00    -0.027 C 
ATOM      7  C   UNL     1      17.576   9.470  21.793  0.00  0.00    +0.028 C 
ATOM      8  C   UNL     1      18.422   8.263  21.250  0.00  0.00    +0.012 C 
ATOM      9  C   UNL     1      16.215   9.709  21.077  0.00  0.00    +0.122 C 
ATOM     10  C   UNL     1      17.608  11.918  22.474  0.00  0.00    +0.007 C 
ATOM     11  C   UNL     1      15.440  10.915  21.658  0.00  0.00    +0.029 C 
ATOM     12  C   UNL     1      19.677  10.541  22.717  0.00  0.00    +0.009 C 
ATOM     13  C   UNL     1      19.708   8.081  22.104  0.00  0.00    +0.076 C 
ATOM     14  C   UNL     1      16.293  12.181  21.753  0.00  0.00    +0.007 C 
ATOM     15  C   UNL     1      20.524   9.364  22.255  0.00  0.00    +0.023 C 
ATOM     16  C   UNL     1      18.890  11.230  20.421  0.00  0.00    +0.011 C 
ATOM     18  C   UNL     1      17.646   6.935  21.214  0.00  0.00    +0.010 C 
ENDROOT
BRANCH  13   4
ATOM      3  O   UNL     1      20.743   5.734  23.473  0.00  0.00    -0.276 OA
ATOM      4  N   UNL     1      20.569   7.050  21.561  0.00  0.00    -0.312 N 
ATOM     22  C   UNL     1      21.007   5.970  22.300  0.00  0.00    +0.216 C 
ATOM     31  H   UNL     1      20.908   7.166  20.611  0.00  0.00    +0.149 HD
BRANCH  22  21
ATOM     21  C   UNL     1      21.885   5.032  21.540  0.00  0.00    +0.075 C 
ATOM     23  C   UNL     1      22.240   3.708  22.150  0.00  0.00    +0.013 C 
ATOM     24  C   UNL     1      21.294   3.767  20.986  0.00  0.00    +0.013 C 
ENDBRANCH  22  21
ENDBRANCH  13   4
BRANCH   9   1
ATOM      1  O   UNL     1      15.378   8.565  21.252  0.00  0.00    -0.391 OA
ATOM     32  H   UNL     1      15.761   7.829  20.746  0.00  0.00    +0.210 HD
ENDBRANCH   9   1
BRANCH  11  17
ATOM     17  C   UNL     1      14.168  11.213  20.856  0.00  0.00    +0.078 C 
ATOM     19  C   UNL     1      14.147  12.652  20.375  0.00  0.00    +0.017 C 
BRANCH  17  20
ATOM      2  O   UNL     1      12.818  11.606  22.763  0.00  0.00    -0.275 OA
ATOM      5  N   UNL     1      12.101   9.938  21.314  0.00  0.00    -0.301 N 
ATOM     20  C   UNL     1      12.971  10.943  21.734  0.00  0.00    +0.219 C 
ATOM     25  C   UNL     1      10.897   9.644  22.091  0.00  0.00    +0.108 C 
ATOM     26  C   UNL     1      12.257   9.134  20.096  0.00  0.00    +0.108 C 
ATOM     27  C   UNL     1      10.834   8.164  22.461  0.00  0.00    +0.022 C 
ATOM     28  C   UNL     1      12.221   7.642  20.423  0.00  0.00    +0.022 C 
ATOM     29  C   UNL     1      10.957   7.274  21.215  0.00  0.00    -0.011 C 
ATOM     30  C   UNL     1      10.969   5.797  21.602  0.00  0.00    +0.007 C 
ENDBRANCH  17  20
ENDBRANCH  11  17
TORSDOF 5
ENDMDL
MODEL 8
REMARK VINA RESULT:      -6.3     23.011     26.681
REMARK  Name = 45361481
REMARK  9 active torsions:
REMARK  status: ('A' for Active; 'I' for Inactive)
REMARK    1  A    between atoms: O_1  and  C_9
REMARK    2  A    between atoms: N_4  and  C_13
REMARK    3  A    between atoms: C_6  and  C_16
REMARK    4  A    between atoms: C_8  and  C_18
REMARK    5  A    between atoms: C_11  and  C_17
REMARK    6  A    between atoms: C_17  and  C_19
REMARK    7  A    between atoms: C_17  and  C_20
REMARK    8  A    between atoms: C_21  and  C_22
REMARK    9  A    between atoms: C_29  and  C_30
REMARK                            x       y       z     vdW  Elec       q    Type
REMARK                         _______ _______ _______ _____ _____    ______ ____
ROOT
ATOM      6  C   UNL     1      12.556   7.791   3.512  0.00  0.00    -0.027 C 
ATOM      7  C   UNL     1      11.503   6.653   3.302  0.00  0.00    +0.028 C 
ATOM      8  C   UNL     1      11.327   5.805   4.612  0.00  0.00    +0.012 C 
ATOM      9  C   UNL     1      11.805   5.835   2.013  0.00  0.00    +0.122 C 
ATOM     10  C   UNL     1      12.622   8.673   2.243  0.00  0.00    +0.007 C 
ATOM     11  C   UNL     1      11.973   6.734   0.764  0.00  0.00    +0.029 C 
ATOM     12  C   UNL     1      12.102   8.688   4.686  0.00  0.00    +0.009 C 
ATOM     13  C   UNL     1      10.943   6.728   5.803  0.00  0.00    +0.076 C 
ATOM     14  C   UNL     1      12.957   7.883   0.985  0.00  0.00    +0.007 C 
ATOM     15  C   UNL     1      11.888   7.916   5.980  0.00  0.00    +0.023 C 
ATOM     16  C   UNL     1      13.974   7.240   3.810  0.00  0.00    +0.011 C 
ATOM     18  C   UNL     1      10.282   4.684   4.485  0.00  0.00    +0.010 C 
ENDROOT
BRANCH  13   4
ATOM      3  O   UNL     1       8.900   6.899   7.865  0.00  0.00    -0.276 OA
ATOM      4  N   UNL     1      10.886   5.997   7.052  0.00  0.00    -0.312 N 
ATOM     22  C   UNL     1       9.866   6.152   7.968  0.00  0.00    +0.216 C 
ATOM     31  H   UNL     1      11.665   5.387   7.281  0.00  0.00    +0.149 HD
BRANCH  22  21
ATOM     21  C   UNL     1      10.009   5.297   9.184  0.00  0.00    +0.075 C 
ATOM     23  C   UNL     1       8.791   4.979  10.000  0.00  0.00    +0.013 C 
ATOM     24  C   UNL     1       9.439   3.908   9.171  0.00  0.00    +0.013 C 
ENDBRANCH  22  21
ENDBRANCH  13   4
BRANCH   9   1
ATOM      1  O   UNL     1      10.713   4.956   1.738  0.00  0.00    -0.391 OA
ATOM     32  H   UNL     1      10.413   4.575   2.580  0.00  0.00    +0.210 HD
ENDBRANCH   9   1
BRANCH  11  17
ATOM     17  C   UNL     1      12.399   5.923  -0.466  0.00  0.00    +0.078 C 
ATOM     19  C   UNL     1      13.744   6.389  -0.990  0.00  0.00    +0.017 C 
BRANCH  17  20
ATOM      2  O   UNL     1      10.645   7.096  -1.544  0.00  0.00    -0.275 OA
ATOM      5  N   UNL     1      11.231   5.042  -2.457  0.00  0.00    -0.301 N 
ATOM     20  C   UNL     1      11.345   6.081  -1.534  0.00  0.00    +0.219 C 
ATOM     25  C   UNL     1      10.260   5.138  -3.547  0.00  0.00    +0.108 C 
ATOM     26  C   UNL     1      12.049   3.824  -2.470  0.00  0.00    +0.108 C 
ATOM     27  C   UNL     1       9.338   3.921  -3.566  0.00  0.00    +0.022 C 
ATOM     28  C   UNL     1      11.165   2.577  -2.468  0.00  0.00    +0.022 C 
ATOM     29  C   UNL     1      10.144   2.614  -3.616  0.00  0.00    -0.011 C 
ATOM     30  C   UNL     1       9.217   1.402  -3.557  0.00  0.00    +0.007 C 
ENDBRANCH  17  20
ENDBRANCH  11  17
TORSDOF 5
ENDMDL
MODEL 9
REMARK VINA RESULT:      -6.2     23.402     26.345
REMARK  Name = 45361481
REMARK  9 active torsions:
REMARK  status: ('A' for Active; 'I' for Inactive)
REMARK    1  A    between atoms: O_1  and  C_9
REMARK    2  A    between atoms: N_4  and  C_13
REMARK    3  A    between atoms: C_6  and  C_16
REMARK    4  A    between atoms: C_8  and  C_18
REMARK    5  A    between atoms: C_11  and  C_17
REMARK    6  A    between atoms: C_17  and  C_19
REMARK    7  A    between atoms: C_17  and  C_20
REMARK    8  A    between atoms: C_21  and  C_22
REMARK    9  A    between atoms: C_29  and  C_30
REMARK                            x       y       z     vdW  Elec       q    Type
REMARK                         _______ _______ _______ _____ _____    ______ ____
ROOT
ATOM      6  C   UNL     1       9.751   6.696   6.594  0.00  0.00    -0.027 C 
ATOM      7  C   UNL     1      10.376   7.556   5.445  0.00  0.00    +0.028 C 
ATOM      8  C   UNL     1      11.412   6.716   4.616  0.00  0.00    +0.012 C 
ATOM      9  C   UNL     1      10.899   8.920   5.984  0.00  0.00    +0.122 C 
ATOM     10  C   UNL     1       8.657   7.515   7.316  0.00  0.00    +0.007 C 
ATOM     11  C   UNL     1       9.830   9.689   6.795  0.00  0.00    +0.029 C 
ATOM     12  C   UNL     1       9.076   5.449   5.979  0.00  0.00    +0.009 C 
ATOM     13  C   UNL     1      10.740   5.426   4.066  0.00  0.00    +0.076 C 
ATOM     14  C   UNL     1       9.174   8.833   7.879  0.00  0.00    +0.007 C 
ATOM     15  C   UNL     1      10.026   4.606   5.139  0.00  0.00    +0.023 C 
ATOM     16  C   UNL     1      10.805   6.242   7.636  0.00  0.00    +0.011 C 
ATOM     18  C   UNL     1      12.044   7.495   3.451  0.00  0.00    +0.010 C 
ENDROOT
BRANCH  13   4
ATOM      3  O   UNL     1      10.493   4.220   1.431  0.00  0.00    -0.276 OA
ATOM      4  N   UNL     1      11.696   4.570   3.393  0.00  0.00    -0.312 N 
ATOM     22  C   UNL     1      11.481   4.046   2.135  0.00  0.00    +0.216 C 
ATOM     31  H   UNL     1      12.533   4.302   3.902  0.00  0.00    +0.149 HD
BRANCH  22  21
ATOM     21  C   UNL     1      12.599   3.191   1.636  0.00  0.00    +0.075 C 
ATOM     23  C   UNL     1      13.010   3.295   0.197  0.00  0.00    +0.013 C 
ATOM     24  C   UNL     1      13.905   3.837   1.273  0.00  0.00    +0.013 C 
ENDBRANCH  22  21
ENDBRANCH  13   4
BRANCH   9   1
ATOM      1  O   UNL     1      11.259   9.759   4.886  0.00  0.00    -0.391 OA
ATOM     32  H   UNL     1      10.519  10.363   4.711  0.00  0.00    +0.210 HD
ENDBRANCH   9   1
BRANCH  11  17
ATOM     17  C   UNL     1      10.403  10.964   7.426  0.00  0.00    +0.078 C 
ATOM     19  C   UNL     1      11.187  10.647   8.685  0.00  0.00    +0.017 C 
BRANCH  17  20
ATOM      2  O   UNL     1       8.829  11.944   8.901  0.00  0.00    -0.275 OA
ATOM      5  N   UNL     1       8.762  12.658   6.691  0.00  0.00    -0.301 N 
ATOM     20  C   UNL     1       9.262  11.897   7.747  0.00  0.00    +0.219 C 
ATOM     25  C   UNL     1       7.682  13.616   6.931  0.00  0.00    +0.108 C 
ATOM     26  C   UNL     1       9.256  12.624   5.310  0.00  0.00    +0.108 C 
ATOM     27  C   UNL     1       6.507  13.361   5.989  0.00  0.00    +0.022 C 
ATOM     28  C   UNL     1       8.114  12.350   4.332  0.00  0.00    +0.022 C 
ATOM     29  C   UNL     1       6.963  13.350   4.523  0.00  0.00    -0.011 C 
ATOM     30  C   UNL     1       5.798  13.019   3.594  0.00  0.00    +0.007 C 
ENDBRANCH  17  20
ENDBRANCH  11  17
TORSDOF 5
ENDMDL
MODEL 10
REMARK VINA RESULT:      -6.1     23.418     26.699
REMARK  Name = 45361481
REMARK  9 active torsions:
REMARK  status: ('A' for Active; 'I' for Inactive)
REMARK    1  A    between atoms: O_1  and  C_9
REMARK    2  A    between atoms: N_4  and  C_13
REMARK    3  A    between atoms: C_6  and  C_16
REMARK    4  A    between atoms: C_8  and  C_18
REMARK    5  A    between atoms: C_11  and  C_17
REMARK    6  A    between atoms: C_17  and  C_19
REMARK    7  A    between atoms: C_17  and  C_20
REMARK    8  A    between atoms: C_21  and  C_22
REMARK    9  A    between atoms: C_29  and  C_30
REMARK                            x       y       z     vdW  Elec       q    Type
REMARK                         _______ _______ _______ _____ _____    ______ ____
ROOT
ATOM      6  C   UNL     1       9.568   5.847   5.930  0.00  0.00    -0.027 C 
ATOM      7  C   UNL     1      10.573   6.942   5.439  0.00  0.00    +0.028 C 
ATOM      8  C   UNL     1      10.166   8.358   5.981  0.00  0.00    +0.012 C 
ATOM      9  C   UNL     1      10.795   6.853   3.901  0.00  0.00    +0.122 C 
ATOM     10  C   UNL     1      10.059   4.453   5.475  0.00  0.00    +0.007 C 
ATOM     11  C   UNL     1      11.185   5.430   3.438  0.00  0.00    +0.029 C 
ATOM     12  C   UNL     1       9.534   5.851   7.476  0.00  0.00    +0.009 C 
ATOM     13  C   UNL     1      10.062   8.331   7.532  0.00  0.00    +0.076 C 
ATOM     14  C   UNL     1      10.240   4.350   3.966  0.00  0.00    +0.007 C 
ATOM     15  C   UNL     1       9.171   7.209   8.062  0.00  0.00    +0.023 C 
ATOM     16  C   UNL     1       8.133   6.072   5.389  0.00  0.00    +0.011 C 
ATOM     18  C   UNL     1      11.131   9.479   5.559  0.00  0.00    +0.010 C 
ENDROOT
BRANCH  13   4
ATOM      3  O   UNL     1      11.609  10.426   8.826  0.00  0.00    -0.276 OA
ATOM      4  N   UNL     1       9.577   9.590   8.059  0.00  0.00    -0.312 N 
ATOM     22  C   UNL     1      10.400  10.522   8.658  0.00  0.00    +0.216 C 
ATOM     31  H   UNL     1       8.576   9.762   8.034  0.00  0.00    +0.149 HD
BRANCH  22  21
ATOM     21  C   UNL     1       9.687  11.747   9.127  0.00  0.00    +0.075 C 
ATOM     23  C   UNL     1       8.661  11.624  10.215  0.00  0.00    +0.013 C 
ATOM     24  C   UNL     1       9.980  12.282  10.499  0.00  0.00    +0.013 C 
ENDBRANCH  22  21
ENDBRANCH  13   4
BRANCH   9   1
ATOM      1  O   UNL     1      11.871   7.714   3.525  0.00  0.00    -0.391 OA
ATOM     32  H   UNL     1      12.414   7.881   4.313  0.00  0.00    +0.210 HD
ENDBRANCH   9   1
BRANCH  11  17
ATOM     17  C   UNL     1      11.271   5.333   1.910  0.00  0.00    +0.078 C 
ATOM     19  C   UNL     1       9.969   4.828   1.318  0.00  0.00    +0.017 C 
BRANCH  17  20
ATOM      2  O   UNL     1      12.471   3.299   2.102  0.00  0.00    -0.275 OA
ATOM      5  N   UNL     1      13.308   4.857   0.595  0.00  0.00    -0.301 N 
ATOM     20  C   UNL     1      12.400   4.400   1.549  0.00  0.00    +0.219 C 
ATOM     25  C   UNL     1      14.408   3.994   0.163  0.00  0.00    +0.108 C 
ATOM     26  C   UNL     1      13.249   6.159  -0.079  0.00  0.00    +0.108 C 
ATOM     27  C   UNL     1      15.752   4.700   0.326  0.00  0.00    +0.022 C 
ATOM     28  C   UNL     1      14.570   6.911   0.078  0.00  0.00    +0.022 C 
ATOM     29  C   UNL     1      15.758   6.057  -0.392  0.00  0.00    -0.011 C 
ATOM     30  C   UNL     1      17.078   6.789  -0.160  0.00  0.00    +0.007 C 
ENDBRANCH  17  20
ENDBRANCH  11  17
TORSDOF 5
ENDMDL
