REMARK  Name = 51137738
REMARK  7 active torsions:
REMARK  status: ('A' for Active; 'I' for Inactive)
REMARK    1  A    between atoms: O_3  and  C_19
REMARK    2  A    between atoms: C_8  and  C_12
REMARK    3  A    between atoms: C_13  and  C_14
REMARK    4  A    between atoms: C_14  and  C_15
REMARK    5  A    between atoms: C_15  and  C_17
REMARK    6  A    between atoms: C_16  and  C_18
REMARK    7  A    between atoms: C_17  and  C_19
REMARK                            x       y       z     vdW  Elec       q    Type
REMARK                         _______ _______ _______ _____ _____    ______ ____
ROOT
ATOM      2  O   UNL     1      -2.224  -1.015  -1.823  0.00  0.00    -0.276 OA
ATOM      5  N   UNL     1      -0.921  -2.006  -0.193  0.00  0.00    -0.301 N 
ATOM      8  C   UNL     1       1.221  -3.037  -0.225  0.00  0.00    +0.095 C 
ATOM      9  C   UNL     1       0.515  -3.360   1.101  0.00  0.00    +0.033 C 
ATOM     10  C   UNL     1       0.049  -2.593  -1.109  0.00  0.00    +0.120 C 
ATOM     11  C   UNL     1      -0.593  -2.318   1.194  0.00  0.00    +0.108 C 
ATOM     13  C   UNL     1      -1.991  -1.250  -0.637  0.00  0.00    +0.216 C 
ENDROOT
BRANCH   8  12
ATOM      1  O   UNL     1       2.020  -0.716  -0.155  0.00  0.00    -0.420 OA
ATOM      6  N   UNL     1       3.610  -2.238   0.247  0.00  0.00    -0.112 NA
ATOM      7  N   UNL     1       4.190  -0.985   0.317  0.00  0.00    -0.107 NA
ATOM     12  C   UNL     1       2.344  -2.032  -0.030  0.00  0.00    +0.222 A 
ATOM     16  C   UNL     1       3.226  -0.128   0.075  0.00  0.00    +0.248 A 
BRANCH  16  18
ATOM     18  C   UNL     1       3.246   1.305   0.018  0.00  0.00    +0.038 A 
ATOM     20  C   UNL     1       4.437   1.995   0.242  0.00  0.00    +0.013 A 
ATOM     21  C   UNL     1       2.074   2.008  -0.260  0.00  0.00    +0.013 A 
ATOM     22  C   UNL     1       4.457   3.389   0.187  0.00  0.00    +0.001 A 
ATOM     23  C   UNL     1       2.094   3.402  -0.315  0.00  0.00    +0.001 A 
ATOM     24  C   UNL     1       3.285   4.092  -0.092  0.00  0.00    +0.000 A 
ENDBRANCH  16  18
ENDBRANCH   8  12
BRANCH  13  14
ATOM     14  C   UNL     1      -2.897  -0.710   0.441  0.00  0.00    +0.096 C 
BRANCH  14  15
ATOM     15  C   UNL     1      -4.030   0.101  -0.170  0.00  0.00    +0.020 C 
BRANCH  15  17
ATOM     17  C   UNL     1      -4.972   0.730   0.855  0.00  0.00    +0.121 C 
BRANCH  17  19
ATOM      4  O   UNL     1      -6.223   1.645  -0.999  0.00  0.00    -0.251 OA
ATOM     19  C   UNL     1      -6.064   1.548   0.211  0.00  0.00    +0.305 C 
BRANCH  19   3
ATOM      3  O   UNL     1      -6.853   2.173   1.120  0.00  0.00    -0.481 OA
ATOM     25  H   UNL     1      -7.558   2.703   0.690  0.00  0.00    +0.295 HD
ENDBRANCH  19   3
ENDBRANCH  17  19
ENDBRANCH  15  17
ENDBRANCH  14  15
ENDBRANCH  13  14
TORSDOF 7
