REMARK  Name = 11941402
REMARK  5 active torsions:
REMARK  status: ('A' for Active; 'I' for Inactive)
REMARK    1  A    between atoms: O_4  and  C_33
REMARK    2  A    between atoms: O_4  and  C_34
REMARK    3  A    between atoms: N_6  and  C_9
REMARK    4  A    between atoms: N_7  and  C_13
REMARK    5  A    between atoms: C_26  and  C_28
REMARK                            x       y       z     vdW  Elec       q    Type
REMARK                         _______ _______ _______ _____ _____    ______ ____
ROOT
ATOM      1  O   UNL     1      -1.555   4.236  -0.812  0.00  0.00    -0.273 OA
ATOM      2  O   UNL     1       0.957   1.120   2.614  0.00  0.00    -0.270 OA
ATOM      5  N   UNL     1      -0.748   1.764   1.211  0.00  0.00    -0.284 N 
ATOM      8  N   UNL     1       0.542   3.353  -0.902  0.00  0.00    -0.283 N 
ATOM      9  C   UNL     1      -2.833   1.896   0.102  0.00  0.00    +0.105 C 
ATOM     10  C   UNL     1      -1.314   1.941  -0.113  0.00  0.00    +0.183 C 
ATOM     11  C   UNL     1      -3.002   2.368   1.548  0.00  0.00    +0.043 C 
ATOM     12  C   UNL     1      -1.771   1.810   2.246  0.00  0.00    +0.111 C 
ATOM     16  C   UNL     1      -0.802   3.284  -0.599  0.00  0.00    +0.240 C 
ATOM     20  C   UNL     1       0.557   1.420   1.489  0.00  0.00    +0.249 C 
ATOM     22  C   UNL     1       1.538   1.438   0.373  0.00  0.00    +0.059 A 
ATOM     23  C   UNL     1       1.549   2.394  -0.657  0.00  0.00    +0.046 A 
ATOM     24  C   UNL     1       2.605   0.526   0.481  0.00  0.00    +0.023 A 
ATOM     25  C   UNL     1       2.663   2.455  -1.513  0.00  0.00    +0.024 A 
ATOM     26  C   UNL     1       3.678   0.572  -0.407  0.00  0.00    -0.017 A 
ATOM     27  C   UNL     1       3.713   1.546  -1.397  0.00  0.00    +0.010 A 
ATOM     37  H   UNL     1       0.826   4.166  -1.444  0.00  0.00    +0.155 HD
ENDROOT
BRANCH   9   6
ATOM      3  O   UNL     1      -5.495   1.153  -0.689  0.00  0.00    -0.253 OA
ATOM      6  N   UNL     1      -3.340   0.554  -0.072  0.00  0.00    -0.294 N 
ATOM      7  N   UNL     1      -4.880  -1.082  -0.553  0.00  0.00    -0.297 N 
ATOM     21  C   UNL     1      -4.650   0.288  -0.459  0.00  0.00    +0.300 C 
ATOM     35  H   UNL     1      -2.737  -0.229   0.164  0.00  0.00    +0.151 HD
ATOM     36  H   UNL     1      -4.133  -1.709  -0.271  0.00  0.00    +0.151 HD
BRANCH   7  13
ATOM     13  C   UNL     1      -6.154  -1.646  -0.936  0.00  0.00    +0.074 C 
ATOM     14  C   UNL     1      -7.061  -1.838   0.284  0.00  0.00    +0.022 C 
ATOM     15  C   UNL     1      -5.967  -2.961  -1.701  0.00  0.00    +0.022 C 
ATOM     17  C   UNL     1      -6.596  -2.981   1.185  0.00  0.00    +0.002 C 
ATOM     18  C   UNL     1      -5.503  -4.103  -0.796  0.00  0.00    +0.002 C 
ATOM     19  C   UNL     1      -6.427  -4.281   0.405  0.00  0.00    +0.000 C 
ENDBRANCH   7  13
ENDBRANCH   9   6
BRANCH  26  28
ATOM     28  C   UNL     1       4.764  -0.376  -0.284  0.00  0.00    -0.018 A 
ATOM     29  C   UNL     1       6.056  -0.008  -0.655  0.00  0.00    +0.012 A 
ATOM     30  C   UNL     1       4.517  -1.658   0.207  0.00  0.00    +0.012 A 
ATOM     31  C   UNL     1       7.103  -0.922  -0.536  0.00  0.00    +0.046 A 
ATOM     32  C   UNL     1       5.564  -2.572   0.327  0.00  0.00    +0.046 A 
ATOM     33  C   UNL     1       6.857  -2.204  -0.045  0.00  0.00    +0.120 A 
BRANCH  33   4
ATOM      4  O   UNL     1       7.878  -3.096   0.071  0.00  0.00    -0.495 OA
ATOM     34  C   UNL     1       7.556  -4.389   0.581  0.00  0.00    +0.277 C 
ENDBRANCH  33   4
ENDBRANCH  26  28
TORSDOF 4
