MODEL 1
REMARK VINA RESULT:      -7.6      0.000      0.000
REMARK  Name = 11883396
REMARK  5 active torsions:
REMARK  status: ('A' for Active; 'I' for Inactive)
REMARK    1  A    between atoms: O_6  and  C_16
REMARK    2  A    between atoms: O_6  and  C_20
REMARK    3  A    between atoms: N_10  and  C_15
REMARK    4  A    between atoms: N_12  and  C_25
REMARK    5  A    between atoms: C_28  and  C_31
REMARK                            x       y       z     vdW  Elec       q    Type
REMARK                         _______ _______ _______ _____ _____    ______ ____
ROOT
ATOM      4  O   UNL     1     -16.563   4.929  25.265  0.00  0.00    -0.368 OA
ATOM      5  O   UNL     1     -16.985   2.164  24.009  0.00  0.00    -0.368 OA
ATOM     13  C   UNL     1     -16.195   2.590  25.138  0.00  0.00    +0.173 C 
ATOM     14  C   UNL     1     -15.626   3.950  24.788  0.00  0.00    +0.192 C 
ATOM     15  C   UNL     1     -17.090   2.866  26.324  0.00  0.00    +0.131 C 
ATOM     16  C   UNL     1     -15.581   3.906  23.279  0.00  0.00    +0.235 C 
ATOM     17  C   UNL     1     -17.585   4.274  26.032  0.00  0.00    +0.185 C 
ATOM     18  C   UNL     1     -16.826   3.115  22.946  0.00  0.00    +0.207 C 
ENDROOT
BRANCH  15  10
ATOM      7  O   UNL     1     -16.747   0.587  27.936  0.00  0.00    -0.253 OA
ATOM      8  O   UNL     1     -13.522   1.684  31.526  0.00  0.00    -0.377 OA
ATOM     10  N   UNL     1     -16.349   2.816  27.563  0.00  0.00    -0.292 N 
ATOM     11  N   UNL     1     -15.482   1.756  29.491  0.00  0.00    -0.281 N 
ATOM     19  C   UNL     1     -16.226   1.646  28.304  0.00  0.00    +0.303 C 
ATOM     21  C   UNL     1     -14.962   3.000  30.075  0.00  0.00    +0.137 C 
ATOM     22  C   UNL     1     -15.308   0.573  30.336  0.00  0.00    +0.137 C 
ATOM     23  C   UNL     1     -13.556   2.794  30.627  0.00  0.00    +0.179 C 
ATOM     24  C   UNL     1     -13.880   0.477  30.851  0.00  0.00    +0.179 C 
ATOM     32  H   UNL     1     -15.825   3.645  27.805  0.00  0.00    +0.151 HD
ENDBRANCH  15  10
BRANCH  16   6
ATOM      6  O   UNL     1     -15.586   5.182  22.678  0.00  0.00    -0.442 OA
BRANCH   6  20
ATOM      9  O   UNL     1     -13.313   5.086  22.446  0.00  0.00    -0.226 OA
ATOM     12  N   UNL     1     -14.550   6.930  21.701  0.00  0.00    -0.251 N 
ATOM     20  C   UNL     1     -14.367   5.690  22.282  0.00  0.00    +0.405 C 
ATOM     33  H   UNL     1     -15.508   7.267  21.654  0.00  0.00    +0.158 HD
BRANCH  12  25
ATOM     25  C   UNL     1     -13.567   7.792  21.162  0.00  0.00    +0.037 A 
ATOM     26  C   UNL     1     -12.886   7.433  19.999  0.00  0.00    +0.035 A 
ATOM     27  C   UNL     1     -13.278   9.000  21.795  0.00  0.00    +0.023 A 
ATOM     28  C   UNL     1     -11.916   8.283  19.469  0.00  0.00    +0.057 A 
ATOM     29  C   UNL     1     -12.307   9.851  21.265  0.00  0.00    +0.002 A 
ATOM     30  C   UNL     1     -11.627   9.492  20.101  0.00  0.00    +0.012 A 
BRANCH  28  31
ATOM      1  F   UNL     1     -11.920   8.074  17.086  0.00  0.00    -0.166 F 
ATOM      2  F   UNL     1     -10.039   8.609  18.022  0.00  0.00    -0.166 F 
ATOM      3  F   UNL     1     -10.813   6.587  18.220  0.00  0.00    -0.166 F 
ATOM     31  C   UNL     1     -11.188   7.899  18.225  0.00  0.00    +0.417 C 
ENDBRANCH  28  31
ENDBRANCH  12  25
ENDBRANCH   6  20
ENDBRANCH  16   6
TORSDOF 5
ENDMDL
MODEL 2
REMARK VINA RESULT:      -7.5      1.638      2.088
REMARK  Name = 11883396
REMARK  5 active torsions:
REMARK  status: ('A' for Active; 'I' for Inactive)
REMARK    1  A    between atoms: O_6  and  C_16
REMARK    2  A    between atoms: O_6  and  C_20
REMARK    3  A    between atoms: N_10  and  C_15
REMARK    4  A    between atoms: N_12  and  C_25
REMARK    5  A    between atoms: C_28  and  C_31
REMARK                            x       y       z     vdW  Elec       q    Type
REMARK                         _______ _______ _______ _____ _____    ______ ____
ROOT
ATOM      4  O   UNL     1     -17.139   4.660  25.367  0.00  0.00    -0.368 OA
ATOM      5  O   UNL     1     -16.956   1.911  24.021  0.00  0.00    -0.368 OA
ATOM     13  C   UNL     1     -16.256   2.470  25.151  0.00  0.00    +0.173 C 
ATOM     14  C   UNL     1     -16.017   3.934  24.840  0.00  0.00    +0.192 C 
ATOM     15  C   UNL     1     -17.162   2.500  26.360  0.00  0.00    +0.131 C 
ATOM     16  C   UNL     1     -16.000   3.948  23.330  0.00  0.00    +0.235 C 
ATOM     17  C   UNL     1     -17.968   3.767  26.127  0.00  0.00    +0.185 C 
ATOM     18  C   UNL     1     -17.041   2.906  22.990  0.00  0.00    +0.207 C 
ENDROOT
BRANCH  15  10
ATOM      7  O   UNL     1     -16.933   0.462  28.285  0.00  0.00    -0.253 OA
ATOM      8  O   UNL     1     -13.565   1.847  31.636  0.00  0.00    -0.377 OA
ATOM     10  N   UNL     1     -16.399   2.580  27.585  0.00  0.00    -0.292 N 
ATOM     11  N   UNL     1     -15.561   1.756  29.637  0.00  0.00    -0.281 N 
ATOM     19  C   UNL     1     -16.336   1.525  28.488  0.00  0.00    +0.303 C 
ATOM     21  C   UNL     1     -14.948   3.033  30.025  0.00  0.00    +0.137 C 
ATOM     22  C   UNL     1     -15.446   0.699  30.643  0.00  0.00    +0.137 C 
ATOM     23  C   UNL     1     -13.546   2.814  30.585  0.00  0.00    +0.179 C 
ATOM     24  C   UNL     1     -14.016   0.582  31.150  0.00  0.00    +0.179 C 
ATOM     32  H   UNL     1     -15.816   3.398  27.696  0.00  0.00    +0.151 HD
ENDBRANCH  15  10
BRANCH  16   6
ATOM      6  O   UNL     1     -16.307   5.207  22.776  0.00  0.00    -0.442 OA
BRANCH   6  20
ATOM      9  O   UNL     1     -15.636   5.349  20.594  0.00  0.00    -0.226 OA
ATOM     12  N   UNL     1     -14.514   6.491  22.303  0.00  0.00    -0.251 N 
ATOM     20  C   UNL     1     -15.483   5.664  21.769  0.00  0.00    +0.405 C 
ATOM     33  H   UNL     1     -14.551   6.634  23.309  0.00  0.00    +0.158 HD
BRANCH  12  25
ATOM     25  C   UNL     1     -13.475   7.166  21.623  0.00  0.00    +0.037 A 
ATOM     26  C   UNL     1     -13.436   8.561  21.615  0.00  0.00    +0.035 A 
ATOM     27  C   UNL     1     -12.489   6.438  20.959  0.00  0.00    +0.023 A 
ATOM     28  C   UNL     1     -12.411   9.226  20.944  0.00  0.00    +0.057 A 
ATOM     29  C   UNL     1     -11.463   7.104  20.287  0.00  0.00    +0.002 A 
ATOM     30  C   UNL     1     -11.425   8.498  20.280  0.00  0.00    +0.012 A 
BRANCH  28  31
ATOM      1  F   UNL     1     -13.602  11.298  20.841  0.00  0.00    -0.166 F 
ATOM      2  F   UNL     1     -11.807  11.255  22.057  0.00  0.00    -0.166 F 
ATOM      3  F   UNL     1     -11.650  11.217  19.889  0.00  0.00    -0.166 F 
ATOM     31  C   UNL     1     -12.370  10.717  20.935  0.00  0.00    +0.417 C 
ENDBRANCH  28  31
ENDBRANCH  12  25
ENDBRANCH   6  20
ENDBRANCH  16   6
TORSDOF 5
ENDMDL
MODEL 3
REMARK VINA RESULT:      -7.4     16.580     19.109
REMARK  Name = 11883396
REMARK  5 active torsions:
REMARK  status: ('A' for Active; 'I' for Inactive)
REMARK    1  A    between atoms: O_6  and  C_16
REMARK    2  A    between atoms: O_6  and  C_20
REMARK    3  A    between atoms: N_10  and  C_15
REMARK    4  A    between atoms: N_12  and  C_25
REMARK    5  A    between atoms: C_28  and  C_31
REMARK                            x       y       z     vdW  Elec       q    Type
REMARK                         _______ _______ _______ _____ _____    ______ ____
ROOT
ATOM      4  O   UNL     1     -11.968  -8.459  15.061  0.00  0.00    -0.368 OA
ATOM      5  O   UNL     1     -11.101  -5.959  16.610  0.00  0.00    -0.368 OA
ATOM     13  C   UNL     1     -11.002  -6.299  15.212  0.00  0.00    +0.173 C 
ATOM     14  C   UNL     1     -10.703  -7.782  15.141  0.00  0.00    +0.192 C 
ATOM     15  C   UNL     1     -12.353  -6.170  14.549  0.00  0.00    +0.131 C 
ATOM     16  C   UNL     1     -10.012  -8.040  16.459  0.00  0.00    +0.235 C 
ATOM     17  C   UNL     1     -13.015  -7.489  14.909  0.00  0.00    +0.185 C 
ATOM     18  C   UNL     1     -10.752  -7.110  17.394  0.00  0.00    +0.207 C 
ENDROOT
BRANCH  15  10
ATOM      7  O   UNL     1     -12.467  -3.739  13.138  0.00  0.00    -0.253 OA
ATOM      8  O   UNL     1     -11.276  -4.616   8.415  0.00  0.00    -0.377 OA
ATOM     10  N   UNL     1     -12.223  -6.020  13.117  0.00  0.00    -0.292 N 
ATOM     11  N   UNL     1     -12.154  -4.795  11.096  0.00  0.00    -0.281 N 
ATOM     19  C   UNL     1     -12.291  -4.779  12.494  0.00  0.00    +0.303 C 
ATOM     21  C   UNL     1     -12.094  -5.992  10.245  0.00  0.00    +0.137 C 
ATOM     22  C   UNL     1     -12.220  -3.532  10.358  0.00  0.00    +0.137 C 
ATOM     23  C   UNL     1     -11.052  -5.823   9.145  0.00  0.00    +0.179 C 
ATOM     24  C   UNL     1     -11.157  -3.479   9.272  0.00  0.00    +0.179 C 
ATOM     32  H   UNL     1     -11.960  -6.849  12.603  0.00  0.00    +0.151 HD
ENDBRANCH  15  10
BRANCH  16   6
ATOM      6  O   UNL     1     -10.084  -9.384  16.880  0.00  0.00    -0.442 OA
BRANCH   6  20
ATOM      9  O   UNL     1      -9.083 -11.266  16.054  0.00  0.00    -0.226 OA
ATOM     12  N   UNL     1      -7.844  -9.560  17.072  0.00  0.00    -0.251 N 
ATOM     20  C   UNL     1      -8.990 -10.180  16.615  0.00  0.00    +0.405 C 
ATOM     33  H   UNL     1      -7.971  -8.653  17.514  0.00  0.00    +0.158 HD
BRANCH  12  25
ATOM     25  C   UNL     1      -6.513 -10.030  17.002  0.00  0.00    +0.037 A 
ATOM     26  C   UNL     1      -5.981 -10.780  18.052  0.00  0.00    +0.035 A 
ATOM     27  C   UNL     1      -5.730  -9.743  15.884  0.00  0.00    +0.023 A 
ATOM     28  C   UNL     1      -4.667 -11.243  17.983  0.00  0.00    +0.057 A 
ATOM     29  C   UNL     1      -4.416 -10.206  15.815  0.00  0.00    +0.002 A 
ATOM     30  C   UNL     1      -3.885 -10.956  16.865  0.00  0.00    +0.012 A 
BRANCH  28  31
ATOM      1  F   UNL     1      -4.169 -13.393  18.904  0.00  0.00    -0.166 F 
ATOM      2  F   UNL     1      -2.780 -11.787  19.348  0.00  0.00    -0.166 F 
ATOM      3  F   UNL     1      -4.741 -11.818  20.288  0.00  0.00    -0.166 F 
ATOM     31  C   UNL     1      -4.099 -12.044  19.105  0.00  0.00    +0.417 C 
ENDBRANCH  28  31
ENDBRANCH  12  25
ENDBRANCH   6  20
ENDBRANCH  16   6
TORSDOF 5
ENDMDL
MODEL 4
REMARK VINA RESULT:      -7.2     27.899     31.046
REMARK  Name = 11883396
REMARK  5 active torsions:
REMARK  status: ('A' for Active; 'I' for Inactive)
REMARK    1  A    between atoms: O_6  and  C_16
REMARK    2  A    between atoms: O_6  and  C_20
REMARK    3  A    between atoms: N_10  and  C_15
REMARK    4  A    between atoms: N_12  and  C_25
REMARK    5  A    between atoms: C_28  and  C_31
REMARK                            x       y       z     vdW  Elec       q    Type
REMARK                         _______ _______ _______ _____ _____    ______ ____
ROOT
ATOM      4  O   UNL     1      14.701   9.527  19.873  0.00  0.00    -0.368 OA
ATOM      5  O   UNL     1      12.116   8.549  18.546  0.00  0.00    -0.368 OA
ATOM     13  C   UNL     1      12.399   8.960  19.899  0.00  0.00    +0.173 C 
ATOM     14  C   UNL     1      13.794   8.468  20.224  0.00  0.00    +0.192 C 
ATOM     15  C   UNL     1      12.518  10.464  19.971  0.00  0.00    +0.131 C 
ATOM     16  C   UNL     1      13.942   7.277  19.308  0.00  0.00    +0.235 C 
ATOM     17  C   UNL     1      13.949  10.695  19.513  0.00  0.00    +0.185 C 
ATOM     18  C   UNL     1      13.195   7.728  18.074  0.00  0.00    +0.207 C 
ENDROOT
BRANCH  15  10
ATOM      7  O   UNL     1      11.614  13.032  20.680  0.00  0.00    -0.253 OA
ATOM      8  O   UNL     1      10.800  13.109  25.561  0.00  0.00    -0.377 OA
ATOM     10  N   UNL     1      12.314  10.943  21.319  0.00  0.00    -0.292 N 
ATOM     11  N   UNL     1      11.721  12.551  22.948  0.00  0.00    -0.281 N 
ATOM     19  C   UNL     1      11.863  12.230  21.587  0.00  0.00    +0.303 C 
ATOM     21  C   UNL     1      12.137  11.716  24.083  0.00  0.00    +0.137 C 
ATOM     22  C   UNL     1      11.257  13.889  23.320  0.00  0.00    +0.137 C 
ATOM     23  C   UNL     1      11.098  11.760  25.198  0.00  0.00    +0.179 C 
ATOM     24  C   UNL     1      10.245  13.820  24.453  0.00  0.00    +0.179 C 
ATOM     32  H   UNL     1      12.401  10.256  22.056  0.00  0.00    +0.151 HD
ENDBRANCH  15  10
BRANCH  16   6
ATOM      6  O   UNL     1      15.284   6.948  19.026  0.00  0.00    -0.442 OA
BRANCH   6  20
ATOM      9  O   UNL     1      15.634   5.963  21.060  0.00  0.00    -0.226 OA
ATOM     12  N   UNL     1      17.372   6.994  19.876  0.00  0.00    -0.251 N 
ATOM     20  C   UNL     1      16.073   6.574  20.093  0.00  0.00    +0.405 C 
ATOM     33  H   UNL     1      17.544   7.490  19.006  0.00  0.00    +0.158 HD
BRANCH  12  25
ATOM     25  C   UNL     1      18.495   6.818  20.717  0.00  0.00    +0.037 A 
ATOM     26  C   UNL     1      19.409   5.796  20.457  0.00  0.00    +0.035 A 
ATOM     27  C   UNL     1      18.687   7.665  21.808  0.00  0.00    +0.023 A 
ATOM     28  C   UNL     1      20.516   5.623  21.288  0.00  0.00    +0.057 A 
ATOM     29  C   UNL     1      19.795   7.491  22.639  0.00  0.00    +0.002 A 
ATOM     30  C   UNL     1      20.709   6.470  22.378  0.00  0.00    +0.012 A 
BRANCH  28  31
ATOM      1  F   UNL     1      20.908   3.361  20.617  0.00  0.00    -0.166 F 
ATOM      2  F   UNL     1      22.384   4.833  20.021  0.00  0.00    -0.166 F 
ATOM      3  F   UNL     1      22.249   4.213  22.101  0.00  0.00    -0.166 F 
ATOM     31  C   UNL     1      21.492   4.531  21.010  0.00  0.00    +0.417 C 
ENDBRANCH  28  31
ENDBRANCH  12  25
ENDBRANCH   6  20
ENDBRANCH  16   6
TORSDOF 5
ENDMDL
MODEL 5
REMARK VINA RESULT:      -7.1     18.191     19.633
REMARK  Name = 11883396
REMARK  5 active torsions:
REMARK  status: ('A' for Active; 'I' for Inactive)
REMARK    1  A    between atoms: O_6  and  C_16
REMARK    2  A    between atoms: O_6  and  C_20
REMARK    3  A    between atoms: N_10  and  C_15
REMARK    4  A    between atoms: N_12  and  C_25
REMARK    5  A    between atoms: C_28  and  C_31
REMARK                            x       y       z     vdW  Elec       q    Type
REMARK                         _______ _______ _______ _____ _____    ______ ____
ROOT
ATOM      4  O   UNL     1      -6.853 -11.540  16.711  0.00  0.00    -0.368 OA
ATOM      5  O   UNL     1      -6.806 -10.936  19.717  0.00  0.00    -0.368 OA
ATOM     13  C   UNL     1      -7.196 -10.130  18.587  0.00  0.00    +0.173 C 
ATOM     14  C   UNL     1      -6.247 -10.471  17.456  0.00  0.00    +0.192 C 
ATOM     15  C   UNL     1      -8.546 -10.573  18.073  0.00  0.00    +0.131 C 
ATOM     16  C   UNL     1      -5.013 -10.932  18.194  0.00  0.00    +0.235 C 
ATOM     17  C   UNL     1      -8.183 -11.766  17.204  0.00  0.00    +0.185 C 
ATOM     18  C   UNL     1      -5.603 -11.647  19.388  0.00  0.00    +0.207 C 
ENDROOT
BRANCH  15  10
ATOM      7  O   UNL     1     -11.261 -10.495  17.343  0.00  0.00    -0.253 OA
ATOM      8  O   UNL     1     -12.191  -6.111  15.246  0.00  0.00    -0.377 OA
ATOM     10  N   UNL     1      -9.180  -9.531  17.299  0.00  0.00    -0.292 N 
ATOM     11  N   UNL     1     -11.002  -8.485  16.214  0.00  0.00    -0.281 N 
ATOM     19  C   UNL     1     -10.532  -9.566  16.979  0.00  0.00    +0.303 C 
ATOM     21  C   UNL     1     -10.179  -7.426  15.615  0.00  0.00    +0.137 C 
ATOM     22  C   UNL     1     -12.414  -8.446  15.827  0.00  0.00    +0.137 C 
ATOM     23  C   UNL     1     -10.857  -6.067  15.756  0.00  0.00    +0.179 C 
ATOM     24  C   UNL     1     -12.983  -7.044  15.982  0.00  0.00    +0.179 C 
ATOM     32  H   UNL     1      -8.618  -8.715  17.103  0.00  0.00    +0.151 HD
ENDBRANCH  15  10
BRANCH  16   6
ATOM      6  O   UNL     1      -4.181 -11.775  17.428  0.00  0.00    -0.442 OA
BRANCH   6  20
ATOM      9  O   UNL     1      -2.519 -10.485  16.533  0.00  0.00    -0.226 OA
ATOM     12  N   UNL     1      -4.110 -11.549  15.185  0.00  0.00    -0.251 N 
ATOM     20  C   UNL     1      -3.505 -11.196  16.375  0.00  0.00    +0.405 C 
ATOM     33  H   UNL     1      -4.925 -12.154  15.258  0.00  0.00    +0.158 HD
BRANCH  12  25
ATOM     25  C   UNL     1      -3.738 -11.173  13.874  0.00  0.00    +0.037 A 
ATOM     26  C   UNL     1      -4.573 -10.346  13.121  0.00  0.00    +0.035 A 
ATOM     27  C   UNL     1      -2.538 -11.631  13.333  0.00  0.00    +0.023 A 
ATOM     28  C   UNL     1      -4.205  -9.976  11.828  0.00  0.00    +0.057 A 
ATOM     29  C   UNL     1      -2.170 -11.261  12.038  0.00  0.00    +0.002 A 
ATOM     30  C   UNL     1      -3.005 -10.433  11.287  0.00  0.00    +0.012 A 
BRANCH  28  31
ATOM      1  F   UNL     1      -5.740  -9.742  10.009  0.00  0.00    -0.166 F 
ATOM      2  F   UNL     1      -6.090  -8.505  11.755  0.00  0.00    -0.166 F 
ATOM      3  F   UNL     1      -4.422  -8.065  10.431  0.00  0.00    -0.166 F 
ATOM     31  C   UNL     1      -5.098  -9.092  11.024  0.00  0.00    +0.417 C 
ENDBRANCH  28  31
ENDBRANCH  12  25
ENDBRANCH   6  20
ENDBRANCH  16   6
TORSDOF 5
ENDMDL
MODEL 6
REMARK VINA RESULT:      -7.0     20.318     21.591
REMARK  Name = 11883396
REMARK  5 active torsions:
REMARK  status: ('A' for Active; 'I' for Inactive)
REMARK    1  A    between atoms: O_6  and  C_16
REMARK    2  A    between atoms: O_6  and  C_20
REMARK    3  A    between atoms: N_10  and  C_15
REMARK    4  A    between atoms: N_12  and  C_25
REMARK    5  A    between atoms: C_28  and  C_31
REMARK                            x       y       z     vdW  Elec       q    Type
REMARK                         _______ _______ _______ _____ _____    ______ ____
ROOT
ATOM      4  O   UNL     1      -3.931 -12.105  14.584  0.00  0.00    -0.368 OA
ATOM      5  O   UNL     1      -2.132 -10.827  16.714  0.00  0.00    -0.368 OA
ATOM     13  C   UNL     1      -3.485 -10.537  16.306  0.00  0.00    +0.173 C 
ATOM     14  C   UNL     1      -3.544 -10.739  14.806  0.00  0.00    +0.192 C 
ATOM     15  C   UNL     1      -4.428 -11.584  16.850  0.00  0.00    +0.131 C 
ATOM     16  C   UNL     1      -2.116 -10.486  14.386  0.00  0.00    +0.235 C 
ATOM     17  C   UNL     1      -4.277 -12.709  15.840  0.00  0.00    +0.185 C 
ATOM     18  C   UNL     1      -1.336 -11.065  15.544  0.00  0.00    +0.207 C 
ENDROOT
BRANCH  15  10
ATOM      7  O   UNL     1      -6.445 -12.493  18.588  0.00  0.00    -0.253 OA
ATOM      8  O   UNL     1     -10.396  -9.560  18.067  0.00  0.00    -0.377 OA
ATOM     10  N   UNL     1      -5.787 -11.095  16.893  0.00  0.00    -0.292 N 
ATOM     11  N   UNL     1      -8.009 -11.027  17.700  0.00  0.00    -0.281 N 
ATOM     19  C   UNL     1      -6.727 -11.598  17.784  0.00  0.00    +0.303 C 
ATOM     21  C   UNL     1      -8.467 -10.075  16.680  0.00  0.00    +0.137 C 
ATOM     22  C   UNL     1      -9.062 -11.504  18.599  0.00  0.00    +0.137 C 
ATOM     23  C   UNL     1      -9.334  -8.987  17.304  0.00  0.00    +0.179 C 
ATOM     24  C   UNL     1      -9.879 -10.343  19.145  0.00  0.00    +0.179 C 
ATOM     32  H   UNL     1      -5.989 -10.285  16.323  0.00  0.00    +0.151 HD
ENDBRANCH  15  10
BRANCH  16   6
ATOM      6  O   UNL     1      -1.774 -11.092  13.159  0.00  0.00    -0.442 OA
BRANCH   6  20
ATOM      9  O   UNL     1      -1.330  -9.623  11.464  0.00  0.00    -0.226 OA
ATOM     12  N   UNL     1      -3.382 -10.740  11.617  0.00  0.00    -0.251 N 
ATOM     20  C   UNL     1      -2.101 -10.403  12.010  0.00  0.00    +0.405 C 
ATOM     33  H   UNL     1      -3.869 -11.412  12.205  0.00  0.00    +0.158 HD
BRANCH  12  25
ATOM     25  C   UNL     1      -4.102 -10.264  10.498  0.00  0.00    +0.037 A 
ATOM     26  C   UNL     1      -4.171 -11.032   9.334  0.00  0.00    +0.035 A 
ATOM     27  C   UNL     1      -4.743  -9.027  10.556  0.00  0.00    +0.023 A 
ATOM     28  C   UNL     1      -4.881 -10.561   8.230  0.00  0.00    +0.057 A 
ATOM     29  C   UNL     1      -5.453  -8.557   9.450  0.00  0.00    +0.002 A 
ATOM     30  C   UNL     1      -5.522  -9.325   8.288  0.00  0.00    +0.012 A 
BRANCH  28  31
ATOM      1  F   UNL     1      -3.850 -12.160   6.779  0.00  0.00    -0.166 F 
ATOM      2  F   UNL     1      -6.009 -12.248   6.963  0.00  0.00    -0.166 F 
ATOM      3  F   UNL     1      -5.080 -10.620   5.862  0.00  0.00    -0.166 F 
ATOM     31  C   UNL     1      -4.954 -11.382   6.987  0.00  0.00    +0.417 C 
ENDBRANCH  28  31
ENDBRANCH  12  25
ENDBRANCH   6  20
ENDBRANCH  16   6
TORSDOF 5
ENDMDL
MODEL 7
REMARK VINA RESULT:      -6.9     17.131     19.065
REMARK  Name = 11883396
REMARK  5 active torsions:
REMARK  status: ('A' for Active; 'I' for Inactive)
REMARK    1  A    between atoms: O_6  and  C_16
REMARK    2  A    between atoms: O_6  and  C_20
REMARK    3  A    between atoms: N_10  and  C_15
REMARK    4  A    between atoms: N_12  and  C_25
REMARK    5  A    between atoms: C_28  and  C_31
REMARK                            x       y       z     vdW  Elec       q    Type
REMARK                         _______ _______ _______ _____ _____    ______ ____
ROOT
ATOM      4  O   UNL     1     -10.839  -9.532  15.161  0.00  0.00    -0.368 OA
ATOM      5  O   UNL     1      -9.515  -7.937  17.421  0.00  0.00    -0.368 OA
ATOM     13  C   UNL     1      -9.915  -7.555  16.088  0.00  0.00    +0.173 C 
ATOM     14  C   UNL     1      -9.638  -8.743  15.190  0.00  0.00    +0.192 C 
ATOM     15  C   UNL     1     -11.415  -7.392  16.023  0.00  0.00    +0.131 C 
ATOM     16  C   UNL     1      -8.521  -9.451  15.918  0.00  0.00    +0.235 C 
ATOM     17  C   UNL     1     -11.887  -8.826  15.843  0.00  0.00    +0.185 C 
ATOM     18  C   UNL     1      -8.894  -9.230  17.367  0.00  0.00    +0.207 C 
ENDROOT
BRANCH  15  10
ATOM      7  O   UNL     1     -14.001  -6.396  15.540  0.00  0.00    -0.253 OA
ATOM      8  O   UNL     1     -13.778  -3.253  11.724  0.00  0.00    -0.377 OA
ATOM     10  N   UNL     1     -11.804  -6.566  14.902  0.00  0.00    -0.292 N 
ATOM     11  N   UNL     1     -13.333  -5.327  13.592  0.00  0.00    -0.281 N 
ATOM     19  C   UNL     1     -13.107  -6.113  14.734  0.00  0.00    +0.303 C 
ATOM     21  C   UNL     1     -12.370  -5.071  12.512  0.00  0.00    +0.137 C 
ATOM     22  C   UNL     1     -14.680  -4.813  13.335  0.00  0.00    +0.137 C 
ATOM     23  C   UNL     1     -12.438  -3.618  12.057  0.00  0.00    +0.179 C 
ATOM     24  C   UNL     1     -14.631  -3.367  12.864  0.00  0.00    +0.179 C 
ATOM     32  H   UNL     1     -11.056  -6.235  14.309  0.00  0.00    +0.151 HD
ENDBRANCH  15  10
BRANCH  16   6
ATOM      6  O   UNL     1      -8.419 -10.820  15.599  0.00  0.00    -0.442 OA
BRANCH   6  20
ATOM      9  O   UNL     1      -7.076 -12.286  14.470  0.00  0.00    -0.226 OA
ATOM     12  N   UNL     1      -6.206 -10.392  15.536  0.00  0.00    -0.251 N 
ATOM     20  C   UNL     1      -7.199 -11.264  15.135  0.00  0.00    +0.405 C 
ATOM     33  H   UNL     1      -6.507  -9.591  16.086  0.00  0.00    +0.158 HD
BRANCH  12  25
ATOM     25  C   UNL     1      -4.819 -10.473  15.275  0.00  0.00    +0.037 A 
ATOM     26  C   UNL     1      -4.352 -10.445  13.961  0.00  0.00    +0.035 A 
ATOM     27  C   UNL     1      -3.917 -10.583  16.333  0.00  0.00    +0.023 A 
ATOM     28  C   UNL     1      -2.983 -10.526  13.705  0.00  0.00    +0.057 A 
ATOM     29  C   UNL     1      -2.547 -10.664  16.077  0.00  0.00    +0.002 A 
ATOM     30  C   UNL     1      -2.082 -10.635  14.762  0.00  0.00    +0.012 A 
BRANCH  28  31
ATOM      1  F   UNL     1      -3.344  -9.889  11.428  0.00  0.00    -0.166 F 
ATOM      2  F   UNL     1      -1.301  -9.832  12.153  0.00  0.00    -0.166 F 
ATOM      3  F   UNL     1      -2.270 -11.744  11.792  0.00  0.00    -0.166 F 
ATOM     31  C   UNL     1      -2.485 -10.496  12.300  0.00  0.00    +0.417 C 
ENDBRANCH  28  31
ENDBRANCH  12  25
ENDBRANCH   6  20
ENDBRANCH  16   6
TORSDOF 5
ENDMDL
MODEL 8
REMARK VINA RESULT:      -6.8     20.569     23.350
REMARK  Name = 11883396
REMARK  5 active torsions:
REMARK  status: ('A' for Active; 'I' for Inactive)
REMARK    1  A    between atoms: O_6  and  C_16
REMARK    2  A    between atoms: O_6  and  C_20
REMARK    3  A    between atoms: N_10  and  C_15
REMARK    4  A    between atoms: N_12  and  C_25
REMARK    5  A    between atoms: C_28  and  C_31
REMARK                            x       y       z     vdW  Elec       q    Type
REMARK                         _______ _______ _______ _____ _____    ______ ____
ROOT
ATOM      4  O   UNL     1      -4.398  -9.669  10.444  0.00  0.00    -0.368 OA
ATOM      5  O   UNL     1      -4.692 -11.987   8.458  0.00  0.00    -0.368 OA
ATOM     13  C   UNL     1      -5.592 -10.920   8.822  0.00  0.00    +0.173 C 
ATOM     14  C   UNL     1      -5.411 -10.680  10.307  0.00  0.00    +0.192 C 
ATOM     15  C   UNL     1      -5.145  -9.624   8.187  0.00  0.00    +0.131 C 
ATOM     16  C   UNL     1      -4.931 -12.024  10.799  0.00  0.00    +0.235 C 
ATOM     17  C   UNL     1      -4.065  -9.152   9.147  0.00  0.00    +0.185 C 
ATOM     18  C   UNL     1      -4.072 -12.497   9.647  0.00  0.00    +0.207 C 
ENDROOT
BRANCH  15  10
ATOM      7  O   UNL     1      -6.797  -9.199   5.951  0.00  0.00    -0.253 OA
ATOM      8  O   UNL     1     -10.449  -6.129   7.266  0.00  0.00    -0.377 OA
ATOM     10  N   UNL     1      -6.232  -8.675   8.112  0.00  0.00    -0.292 N 
ATOM     11  N   UNL     1      -8.020  -7.556   7.042  0.00  0.00    -0.281 N 
ATOM     19  C   UNL     1      -7.004  -8.524   6.966  0.00  0.00    +0.303 C 
ATOM     21  C   UNL     1      -8.235  -6.612   8.147  0.00  0.00    +0.137 C 
ATOM     22  C   UNL     1      -8.877  -7.328   5.877  0.00  0.00    +0.137 C 
ATOM     23  C   UNL     1      -9.722  -6.461   8.450  0.00  0.00    +0.179 C 
ATOM     24  C   UNL     1     -10.331  -7.168   6.292  0.00  0.00    +0.179 C 
ATOM     32  H   UNL     1      -6.481  -8.209   8.973  0.00  0.00    +0.151 HD
ENDBRANCH  15  10
BRANCH  16   6
ATOM      6  O   UNL     1      -4.208 -11.956  12.007  0.00  0.00    -0.442 OA
BRANCH   6  20
ATOM      9  O   UNL     1      -5.852 -12.834  13.332  0.00  0.00    -0.226 OA
ATOM     12  N   UNL     1      -4.465 -11.101  14.078  0.00  0.00    -0.251 N 
ATOM     20  C   UNL     1      -4.936 -12.035  13.176  0.00  0.00    +0.405 C 
ATOM     33  H   UNL     1      -3.690 -10.523  13.763  0.00  0.00    +0.158 HD
BRANCH  12  25
ATOM     25  C   UNL     1      -4.928 -10.848  15.390  0.00  0.00    +0.037 A 
ATOM     26  C   UNL     1      -4.371 -11.532  16.471  0.00  0.00    +0.035 A 
ATOM     27  C   UNL     1      -5.943  -9.916  15.602  0.00  0.00    +0.023 A 
ATOM     28  C   UNL     1      -4.829 -11.282  17.765  0.00  0.00    +0.057 A 
ATOM     29  C   UNL     1      -6.401  -9.667  16.897  0.00  0.00    +0.002 A 
ATOM     30  C   UNL     1      -5.843 -10.350  17.977  0.00  0.00    +0.012 A 
BRANCH  28  31
ATOM      1  F   UNL     1      -2.909 -11.739  19.116  0.00  0.00    -0.166 F 
ATOM      2  F   UNL     1      -4.835 -11.733  20.114  0.00  0.00    -0.166 F 
ATOM      3  F   UNL     1      -4.310 -13.368  18.780  0.00  0.00    -0.166 F 
ATOM     31  C   UNL     1      -4.233 -12.012  18.920  0.00  0.00    +0.417 C 
ENDBRANCH  28  31
ENDBRANCH  12  25
ENDBRANCH   6  20
ENDBRANCH  16   6
TORSDOF 5
ENDMDL
MODEL 9
REMARK VINA RESULT:      -6.8     25.126     29.386
REMARK  Name = 11883396
REMARK  5 active torsions:
REMARK  status: ('A' for Active; 'I' for Inactive)
REMARK    1  A    between atoms: O_6  and  C_16
REMARK    2  A    between atoms: O_6  and  C_20
REMARK    3  A    between atoms: N_10  and  C_15
REMARK    4  A    between atoms: N_12  and  C_25
REMARK    5  A    between atoms: C_28  and  C_31
REMARK                            x       y       z     vdW  Elec       q    Type
REMARK                         _______ _______ _______ _____ _____    ______ ____
ROOT
ATOM      4  O   UNL     1       5.384  12.038   4.280  0.00  0.00    -0.368 OA
ATOM      5  O   UNL     1       5.661  10.332   1.747  0.00  0.00    -0.368 OA
ATOM     13  C   UNL     1       4.602  10.431   2.721  0.00  0.00    +0.173 C 
ATOM     14  C   UNL     1       5.264  10.622   4.071  0.00  0.00    +0.192 C 
ATOM     15  C   UNL     1       3.824  11.710   2.515  0.00  0.00    +0.131 C 
ATOM     16  C   UNL     1       6.611   9.969   3.869  0.00  0.00    +0.235 C 
ATOM     17  C   UNL     1       4.692  12.733   3.231  0.00  0.00    +0.185 C 
ATOM     18  C   UNL     1       6.923  10.319   2.432  0.00  0.00    +0.207 C 
ENDROOT
BRANCH  15  10
ATOM      7  O   UNL     1       1.535  10.629   1.290  0.00  0.00    -0.253 OA
ATOM      8  O   UNL     1      -2.091  10.431   4.651  0.00  0.00    -0.377 OA
ATOM     10  N   UNL     1       2.510  11.626   3.111  0.00  0.00    -0.292 N 
ATOM     11  N   UNL     1       0.212  11.071   3.144  0.00  0.00    -0.281 N 
ATOM     19  C   UNL     1       1.427  11.075   2.437  0.00  0.00    +0.303 C 
ATOM     21  C   UNL     1      -0.037  11.714   4.442  0.00  0.00    +0.137 C 
ATOM     22  C   UNL     1      -0.983  10.515   2.506  0.00  0.00    +0.137 C 
ATOM     23  C   UNL     1      -0.898  10.825   5.331  0.00  0.00    +0.179 C 
ATOM     24  C   UNL     1      -1.780   9.667   3.485  0.00  0.00    +0.179 C 
ATOM     32  H   UNL     1       2.445  11.879   4.087  0.00  0.00    +0.151 HD
ENDBRANCH  15  10
BRANCH  16   6
ATOM      6  O   UNL     1       7.602  10.437   4.756  0.00  0.00    -0.442 OA
BRANCH   6  20
ATOM      9  O   UNL     1       9.743   9.860   5.315  0.00  0.00    -0.226 OA
ATOM     12  N   UNL     1       8.014   8.281   5.274  0.00  0.00    -0.251 N 
ATOM     20  C   UNL     1       8.574   9.537   5.138  0.00  0.00    +0.405 C 
ATOM     33  H   UNL     1       7.018   8.211   5.082  0.00  0.00    +0.158 HD
BRANCH  12  25
ATOM     25  C   UNL     1       8.655   7.078   5.647  0.00  0.00    +0.037 A 
ATOM     26  C   UNL     1       8.768   6.736   6.995  0.00  0.00    +0.035 A 
ATOM     27  C   UNL     1       9.177   6.234   4.667  0.00  0.00    +0.023 A 
ATOM     28  C   UNL     1       9.402   5.549   7.362  0.00  0.00    +0.057 A 
ATOM     29  C   UNL     1       9.812   5.047   5.035  0.00  0.00    +0.002 A 
ATOM     30  C   UNL     1       9.923   4.705   6.383  0.00  0.00    +0.012 A 
BRANCH  28  31
ATOM      1  F   UNL     1       8.553   5.737   9.591  0.00  0.00    -0.166 F 
ATOM      2  F   UNL     1       9.445   3.840   9.035  0.00  0.00    -0.166 F 
ATOM      3  F   UNL     1      10.708   5.582   9.349  0.00  0.00    -0.166 F 
ATOM     31  C   UNL     1       9.522   5.183   8.803  0.00  0.00    +0.417 C 
ENDBRANCH  28  31
ENDBRANCH  12  25
ENDBRANCH   6  20
ENDBRANCH  16   6
TORSDOF 5
ENDMDL
MODEL 10
REMARK VINA RESULT:      -6.8     20.051     21.391
REMARK  Name = 11883396
REMARK  5 active torsions:
REMARK  status: ('A' for Active; 'I' for Inactive)
REMARK    1  A    between atoms: O_6  and  C_16
REMARK    2  A    between atoms: O_6  and  C_20
REMARK    3  A    between atoms: N_10  and  C_15
REMARK    4  A    between atoms: N_12  and  C_25
REMARK    5  A    between atoms: C_28  and  C_31
REMARK                            x       y       z     vdW  Elec       q    Type
REMARK                         _______ _______ _______ _____ _____    ______ ____
ROOT
ATOM      4  O   UNL     1      -4.268 -12.370  12.612  0.00  0.00    -0.368 OA
ATOM      5  O   UNL     1      -2.039 -10.418  13.402  0.00  0.00    -0.368 OA
ATOM     13  C   UNL     1      -3.322 -10.696  14.000  0.00  0.00    +0.173 C 
ATOM     14  C   UNL     1      -4.289 -10.955  12.863  0.00  0.00    +0.192 C 
ATOM     15  C   UNL     1      -3.275 -12.011  14.742  0.00  0.00    +0.131 C 
ATOM     16  C   UNL     1      -3.673 -10.175  11.726  0.00  0.00    +0.235 C 
ATOM     17  C   UNL     1      -3.484 -13.019  13.624  0.00  0.00    +0.185 C 
ATOM     18  C   UNL     1      -2.193 -10.363  11.976  0.00  0.00    +0.207 C 
ENDROOT
BRANCH  15  10
ATOM      7  O   UNL     1      -3.104 -11.112  17.402  0.00  0.00    -0.253 OA
ATOM      8  O   UNL     1      -7.590 -11.462  19.462  0.00  0.00    -0.377 OA
ATOM     10  N   UNL     1      -4.328 -12.094  15.729  0.00  0.00    -0.292 N 
ATOM     11  N   UNL     1      -5.275 -11.783  17.873  0.00  0.00    -0.281 N 
ATOM     19  C   UNL     1      -4.164 -11.625  17.027  0.00  0.00    +0.303 C 
ATOM     21  C   UNL     1      -6.509 -12.513  17.554  0.00  0.00    +0.137 C 
ATOM     22  C   UNL     1      -5.186 -11.322  19.260  0.00  0.00    +0.137 C 
ATOM     23  C   UNL     1      -7.732 -11.764  18.073  0.00  0.00    +0.179 C 
ATOM     24  C   UNL     1      -6.463 -10.612  19.681  0.00  0.00    +0.179 C 
ATOM     32  H   UNL     1      -5.231 -12.401  15.395  0.00  0.00    +0.151 HD
ENDBRANCH  15  10
BRANCH  16   6
ATOM      6  O   UNL     1      -4.058 -10.639  10.451  0.00  0.00    -0.442 OA
BRANCH   6  20
ATOM      9  O   UNL     1      -3.692  -8.771   9.183  0.00  0.00    -0.226 OA
ATOM     12  N   UNL     1      -5.717  -9.944   9.090  0.00  0.00    -0.251 N 
ATOM     20  C   UNL     1      -4.432  -9.686   9.527  0.00  0.00    +0.405 C 
ATOM     33  H   UNL     1      -6.174 -10.758   9.494  0.00  0.00    +0.158 HD
BRANCH  12  25
ATOM     25  C   UNL     1      -6.478  -9.216   8.148  0.00  0.00    +0.037 A 
ATOM     26  C   UNL     1      -7.317  -8.186   8.575  0.00  0.00    +0.035 A 
ATOM     27  C   UNL     1      -6.392  -9.527   6.791  0.00  0.00    +0.023 A 
ATOM     28  C   UNL     1      -8.069  -7.468   7.645  0.00  0.00    +0.057 A 
ATOM     29  C   UNL     1      -7.144  -8.809   5.861  0.00  0.00    +0.002 A 
ATOM     30  C   UNL     1      -7.982  -7.779   6.289  0.00  0.00    +0.012 A 
BRANCH  28  31
ATOM      1  F   UNL     1      -9.907  -6.010   7.179  0.00  0.00    -0.166 F 
ATOM      2  F   UNL     1      -9.671  -6.669   9.232  0.00  0.00    -0.166 F 
ATOM      3  F   UNL     1      -8.284  -5.221   8.391  0.00  0.00    -0.166 F 
ATOM     31  C   UNL     1      -8.966  -6.367   8.102  0.00  0.00    +0.417 C 
ENDBRANCH  28  31
ENDBRANCH  12  25
ENDBRANCH   6  20
ENDBRANCH  16   6
TORSDOF 5
ENDMDL
