MODEL 1
REMARK VINA RESULT:      -7.3      0.000      0.000
REMARK  Name = 7143829
REMARK  7 active torsions:
REMARK  status: ('A' for Active; 'I' for Inactive)
REMARK    1  A    between atoms: S_1  and  C_27
REMARK    2  A    between atoms: S_1  and  C_28
REMARK    3  A    between atoms: N_6  and  C_19
REMARK    4  A    between atoms: N_6  and  C_23
REMARK    5  A    between atoms: N_6  and  C_24
REMARK    6  A    between atoms: C_16  and  C_19
REMARK    7  A    between atoms: C_17  and  C_20
REMARK                            x       y       z     vdW  Elec       q    Type
REMARK                         _______ _______ _______ _____ _____    ______ ____
ROOT
ATOM      2  O   UNL     1      15.529   6.239  21.822  0.00  0.00    -0.267 OA
ATOM      3  O   UNL     1      11.756   7.260  17.506  0.00  0.00    -0.274 OA
ATOM      4  N   UNL     1      12.233   8.877  19.103  0.00  0.00    -0.299 N 
ATOM      5  N   UNL     1      14.443   8.240  21.319  0.00  0.00    -0.311 N 
ATOM      7  C   UNL     1      11.910   8.530  21.556  0.00  0.00    +0.027 C 
ATOM      8  C   UNL     1      13.285  10.407  20.760  0.00  0.00    +0.054 C 
ATOM      9  C   UNL     1      12.240   9.998  21.796  0.00  0.00    +0.018 C 
ATOM     10  C   UNL     1      11.352   8.328  20.136  0.00  0.00    +0.113 C 
ATOM     11  C   UNL     1      13.169   7.692  21.804  0.00  0.00    +0.130 C 
ATOM     12  C   UNL     1      12.696  10.252  19.344  0.00  0.00    +0.117 C 
ATOM     13  C   UNL     1      14.541   9.565  20.888  0.00  0.00    +0.027 A 
ATOM     14  C   UNL     1      15.737  10.082  20.564  0.00  0.00    +0.022 A 
ATOM     15  C   UNL     1      15.571   7.401  21.414  0.00  0.00    +0.259 A 
ATOM     16  C   UNL     1      12.506   8.126  17.960  0.00  0.00    +0.230 C 
ATOM     17  C   UNL     1      16.892   7.997  21.008  0.00  0.00    +0.047 A 
ATOM     18  C   UNL     1      16.926   9.280  20.620  0.00  0.00    +0.015 A 
ENDROOT
BRANCH  17  20
ATOM     20  C   UNL     1      18.127   7.195  21.023  0.00  0.00    -0.013 A 
ATOM     21  C   UNL     1      18.304   6.168  20.094  0.00  0.00    +0.010 A 
ATOM     22  C   UNL     1      19.122   7.461  21.965  0.00  0.00    +0.010 A 
ATOM     25  C   UNL     1      19.474   5.407  20.109  0.00  0.00    +0.015 A 
ATOM     26  C   UNL     1      20.291   6.701  21.979  0.00  0.00    +0.015 A 
ATOM     27  C   UNL     1      20.467   5.674  21.052  0.00  0.00    +0.008 A 
BRANCH  27   1
ATOM      1  S   UNL     1      21.961   4.703  21.070  0.00  0.00    -0.129 S 
ATOM     28  C   UNL     1      22.301   4.580  22.849  0.00  0.00    +0.090 C 
ENDBRANCH  27   1
ENDBRANCH  17  20
BRANCH  16  19
ATOM     19  C   UNL     1      13.811   8.412  17.260  0.00  0.00    +0.180 C 
BRANCH  19   6
ATOM      6  N   UNL     1      13.490   8.591  15.861  0.00  0.00    -0.300 NA
ATOM     23  C   UNL     1      14.707   8.755  15.057  0.00  0.00    +0.105 C 
ATOM     24  C   UNL     1      12.606   9.746  15.668  0.00  0.00    +0.105 C 
ENDBRANCH  19   6
ENDBRANCH  16  19
TORSDOF 4
ENDMDL
MODEL 2
REMARK VINA RESULT:      -6.4      2.151      2.746
REMARK  Name = 7143829
REMARK  7 active torsions:
REMARK  status: ('A' for Active; 'I' for Inactive)
REMARK    1  A    between atoms: S_1  and  C_27
REMARK    2  A    between atoms: S_1  and  C_28
REMARK    3  A    between atoms: N_6  and  C_19
REMARK    4  A    between atoms: N_6  and  C_23
REMARK    5  A    between atoms: N_6  and  C_24
REMARK    6  A    between atoms: C_16  and  C_19
REMARK    7  A    between atoms: C_17  and  C_20
REMARK                            x       y       z     vdW  Elec       q    Type
REMARK                         _______ _______ _______ _____ _____    ______ ____
ROOT
ATOM      2  O   UNL     1      15.923   6.178  18.751  0.00  0.00    -0.267 OA
ATOM      3  O   UNL     1      14.046  10.910  15.923  0.00  0.00    -0.274 OA
ATOM      4  N   UNL     1      13.116  10.264  17.951  0.00  0.00    -0.299 N 
ATOM      5  N   UNL     1      14.351   7.742  19.472  0.00  0.00    -0.311 N 
ATOM      7  C   UNL     1      12.073   8.028  18.340  0.00  0.00    +0.027 C 
ATOM      8  C   UNL     1      12.668   9.446  20.258  0.00  0.00    +0.054 C 
ATOM      9  C   UNL     1      11.604   8.497  19.711  0.00  0.00    +0.018 C 
ATOM     10  C   UNL     1      12.247   9.226  17.390  0.00  0.00    +0.113 C 
ATOM     11  C   UNL     1      13.371   7.230  18.504  0.00  0.00    +0.130 C 
ATOM     12  C   UNL     1      12.796  10.669  19.328  0.00  0.00    +0.117 C 
ATOM     13  C   UNL     1      14.012   8.750  20.378  0.00  0.00    +0.027 A 
ATOM     14  C   UNL     1      14.881   9.118  21.332  0.00  0.00    +0.022 A 
ATOM     15  C   UNL     1      15.601   7.094  19.510  0.00  0.00    +0.259 A 
ATOM     16  C   UNL     1      14.103  10.842  17.153  0.00  0.00    +0.230 C 
ATOM     17  C   UNL     1      16.569   7.555  20.566  0.00  0.00    +0.047 A 
ATOM     18  C   UNL     1      16.180   8.514  21.420  0.00  0.00    +0.015 A 
ENDROOT
BRANCH  17  20
ATOM     20  C   UNL     1      17.921   6.979  20.666  0.00  0.00    -0.013 A 
ATOM     21  C   UNL     1      18.896   7.616  21.434  0.00  0.00    +0.010 A 
ATOM     22  C   UNL     1      18.228   5.795  19.994  0.00  0.00    +0.010 A 
ATOM     25  C   UNL     1      20.177   7.071  21.529  0.00  0.00    +0.015 A 
ATOM     26  C   UNL     1      19.508   5.250  20.088  0.00  0.00    +0.015 A 
ATOM     27  C   UNL     1      20.483   5.888  20.855  0.00  0.00    +0.008 A 
BRANCH  27   1
ATOM      1  S   UNL     1      22.119   5.193  20.975  0.00  0.00    -0.129 S 
ATOM     28  C   UNL     1      22.167   4.658  22.710  0.00  0.00    +0.090 C 
ENDBRANCH  27   1
ENDBRANCH  17  20
BRANCH  16  19
ATOM     19  C   UNL     1      15.305  11.405  17.867  0.00  0.00    +0.180 C 
BRANCH  19   6
ATOM      6  N   UNL     1      15.560  12.699  17.273  0.00  0.00    -0.300 NA
ATOM     23  C   UNL     1      16.982  13.051  17.366  0.00  0.00    +0.105 C 
ATOM     24  C   UNL     1      14.746  13.741  17.912  0.00  0.00    +0.105 C 
ENDBRANCH  19   6
ENDBRANCH  16  19
TORSDOF 4
ENDMDL
MODEL 3
REMARK VINA RESULT:      -6.4     17.729     20.696
REMARK  Name = 7143829
REMARK  7 active torsions:
REMARK  status: ('A' for Active; 'I' for Inactive)
REMARK    1  A    between atoms: S_1  and  C_27
REMARK    2  A    between atoms: S_1  and  C_28
REMARK    3  A    between atoms: N_6  and  C_19
REMARK    4  A    between atoms: N_6  and  C_23
REMARK    5  A    between atoms: N_6  and  C_24
REMARK    6  A    between atoms: C_16  and  C_19
REMARK    7  A    between atoms: C_17  and  C_20
REMARK                            x       y       z     vdW  Elec       q    Type
REMARK                         _______ _______ _______ _____ _____    ______ ____
ROOT
ATOM      2  O   UNL     1      12.147   7.850   2.316  0.00  0.00    -0.267 OA
ATOM      3  O   UNL     1      13.167   5.299  -2.818  0.00  0.00    -0.274 OA
ATOM      4  N   UNL     1      13.479   4.160  -0.818  0.00  0.00    -0.299 N 
ATOM      5  N   UNL     1      12.726   5.626   1.917  0.00  0.00    -0.311 N 
ATOM      7  C   UNL     1      15.013   4.943   0.990  0.00  0.00    +0.027 C 
ATOM      8  C   UNL     1      13.331   3.219   1.481  0.00  0.00    +0.054 C 
ATOM      9  C   UNL     1      14.775   3.641   1.742  0.00  0.00    +0.018 C 
ATOM     10  C   UNL     1      14.788   4.744  -0.519  0.00  0.00    +0.113 C 
ATOM     11  C   UNL     1      14.097   6.027   1.571  0.00  0.00    +0.130 C 
ATOM     12  C   UNL     1      13.131   2.969  -0.027  0.00  0.00    +0.117 C 
ATOM     13  C   UNL     1      12.356   4.280   1.959  0.00  0.00    +0.027 A 
ATOM     14  C   UNL     1      11.135   3.930   2.394  0.00  0.00    +0.022 A 
ATOM     15  C   UNL     1      11.846   6.655   2.306  0.00  0.00    +0.259 A 
ATOM     16  C   UNL     1      12.705   4.694  -1.848  0.00  0.00    +0.230 C 
ATOM     17  C   UNL     1      10.472   6.234   2.754  0.00  0.00    +0.047 A 
ATOM     18  C   UNL     1      10.180   4.925   2.790  0.00  0.00    +0.015 A 
ENDROOT
BRANCH  17  20
ATOM     20  C   UNL     1       9.456   7.230   3.138  0.00  0.00    -0.013 A 
ATOM     21  C   UNL     1       9.106   7.388   4.479  0.00  0.00    +0.010 A 
ATOM     22  C   UNL     1       8.843   8.016   2.160  0.00  0.00    +0.010 A 
ATOM     25  C   UNL     1       8.144   8.330   4.843  0.00  0.00    +0.015 A 
ATOM     26  C   UNL     1       7.881   8.957   2.524  0.00  0.00    +0.015 A 
ATOM     27  C   UNL     1       7.531   9.115   3.865  0.00  0.00    +0.008 A 
BRANCH  27   1
ATOM      1  S   UNL     1       6.302  10.318   4.330  0.00  0.00    -0.129 S 
ATOM     28  C   UNL     1       5.149  10.230   2.930  0.00  0.00    +0.090 C 
ENDBRANCH  27   1
ENDBRANCH  17  20
BRANCH  16  19
ATOM     19  C   UNL     1      11.212   4.508  -1.738  0.00  0.00    +0.180 C 
BRANCH  19   6
ATOM      6  N   UNL     1      10.793   3.867  -2.966  0.00  0.00    -0.300 NA
ATOM     23  C   UNL     1       9.434   4.281  -3.338  0.00  0.00    +0.105 C 
ATOM     24  C   UNL     1      10.852   2.406  -2.844  0.00  0.00    +0.105 C 
ENDBRANCH  19   6
ENDBRANCH  16  19
TORSDOF 4
ENDMDL
MODEL 4
REMARK VINA RESULT:      -6.3     14.422     17.819
REMARK  Name = 7143829
REMARK  7 active torsions:
REMARK  status: ('A' for Active; 'I' for Inactive)
REMARK    1  A    between atoms: S_1  and  C_27
REMARK    2  A    between atoms: S_1  and  C_28
REMARK    3  A    between atoms: N_6  and  C_19
REMARK    4  A    between atoms: N_6  and  C_23
REMARK    5  A    between atoms: N_6  and  C_24
REMARK    6  A    between atoms: C_16  and  C_19
REMARK    7  A    between atoms: C_17  and  C_20
REMARK                            x       y       z     vdW  Elec       q    Type
REMARK                         _______ _______ _______ _____ _____    ______ ____
ROOT
ATOM      2  O   UNL     1       9.888   7.348   2.267  0.00  0.00    -0.267 OA
ATOM      3  O   UNL     1      12.601   9.831   6.781  0.00  0.00    -0.274 OA
ATOM      4  N   UNL     1      10.818   8.375   7.093  0.00  0.00    -0.299 N 
ATOM      5  N   UNL     1       9.528   6.959   4.537  0.00  0.00    -0.311 N 
ATOM      7  C   UNL     1       8.554   8.737   6.101  0.00  0.00    +0.027 C 
ATOM      8  C   UNL     1       9.157   6.526   6.992  0.00  0.00    +0.054 C 
ATOM      9  C   UNL     1       8.028   7.550   6.898  0.00  0.00    +0.018 C 
ATOM     10  C   UNL     1       9.773   9.360   6.804  0.00  0.00    +0.113 C 
ATOM     11  C   UNL     1       8.884   8.273   4.678  0.00  0.00    +0.130 C 
ATOM     12  C   UNL     1      10.351   7.143   7.745  0.00  0.00    +0.117 C 
ATOM     13  C   UNL     1       9.599   6.071   5.613  0.00  0.00    +0.027 A 
ATOM     14  C   UNL     1      10.081   4.831   5.432  0.00  0.00    +0.022 A 
ATOM     15  C   UNL     1       9.967   6.604   3.247  0.00  0.00    +0.259 A 
ATOM     16  C   UNL     1      12.150   8.684   6.818  0.00  0.00    +0.230 C 
ATOM     17  C   UNL     1      10.537   5.221   3.083  0.00  0.00    +0.047 A 
ATOM     18  C   UNL     1      10.562   4.406   4.148  0.00  0.00    +0.015 A 
ENDROOT
BRANCH  17  20
ATOM     20  C   UNL     1      11.068   4.763   1.788  0.00  0.00    -0.013 A 
ATOM     21  C   UNL     1      10.225   4.676   0.679  0.00  0.00    +0.010 A 
ATOM     22  C   UNL     1      12.414   4.416   1.668  0.00  0.00    +0.010 A 
ATOM     25  C   UNL     1      10.727   4.240  -0.547  0.00  0.00    +0.015 A 
ATOM     26  C   UNL     1      12.916   3.981   0.442  0.00  0.00    +0.015 A 
ATOM     27  C   UNL     1      12.073   3.893  -0.666  0.00  0.00    +0.008 A 
BRANCH  27   1
ATOM      1  S   UNL     1      12.714   3.337  -2.233  0.00  0.00    -0.129 S 
ATOM     28  C   UNL     1      11.352   2.303  -2.844  0.00  0.00    +0.090 C 
ENDBRANCH  27   1
ENDBRANCH  17  20
BRANCH  16  19
ATOM     19  C   UNL     1      13.071   7.521   6.547  0.00  0.00    +0.180 C 
BRANCH  19   6
ATOM      6  N   UNL     1      13.901   7.914   5.429  0.00  0.00    -0.300 NA
ATOM     23  C   UNL     1      13.381   7.367   4.169  0.00  0.00    +0.105 C 
ATOM     24  C   UNL     1      15.289   7.479   5.625  0.00  0.00    +0.105 C 
ENDBRANCH  19   6
ENDBRANCH  16  19
TORSDOF 4
ENDMDL
MODEL 5
REMARK VINA RESULT:      -6.3     31.266     32.968
REMARK  Name = 7143829
REMARK  7 active torsions:
REMARK  status: ('A' for Active; 'I' for Inactive)
REMARK    1  A    between atoms: S_1  and  C_27
REMARK    2  A    between atoms: S_1  and  C_28
REMARK    3  A    between atoms: N_6  and  C_19
REMARK    4  A    between atoms: N_6  and  C_23
REMARK    5  A    between atoms: N_6  and  C_24
REMARK    6  A    between atoms: C_16  and  C_19
REMARK    7  A    between atoms: C_17  and  C_20
REMARK                            x       y       z     vdW  Elec       q    Type
REMARK                         _______ _______ _______ _____ _____    ______ ____
ROOT
ATOM      2  O   UNL     1     -11.600  -7.540  10.052  0.00  0.00    -0.267 OA
ATOM      3  O   UNL     1     -17.011  -5.400  10.268  0.00  0.00    -0.274 OA
ATOM      4  N   UNL     1     -15.265  -4.397  11.427  0.00  0.00    -0.299 N 
ATOM      5  N   UNL     1     -12.318  -5.580  11.090  0.00  0.00    -0.311 N 
ATOM      7  C   UNL     1     -13.873  -5.589  13.124  0.00  0.00    +0.027 C 
ATOM      8  C   UNL     1     -13.095  -3.451  12.192  0.00  0.00    +0.054 C 
ATOM      9  C   UNL     1     -13.193  -4.272  13.476  0.00  0.00    +0.018 C 
ATOM     10  C   UNL     1     -15.279  -5.335  12.552  0.00  0.00    +0.113 C 
ATOM     11  C   UNL     1     -12.983  -6.360  12.143  0.00  0.00    +0.130 C 
ATOM     12  C   UNL     1     -14.510  -3.156  11.658  0.00  0.00    +0.117 C 
ATOM     13  C   UNL     1     -12.290  -4.184  11.135  0.00  0.00    +0.027 A 
ATOM     14  C   UNL     1     -11.576  -3.496  10.230  0.00  0.00    +0.022 A 
ATOM     15  C   UNL     1     -11.626  -6.309  10.103  0.00  0.00    +0.259 A 
ATOM     16  C   UNL     1     -16.005  -4.685  10.281  0.00  0.00    +0.230 C 
ATOM     17  C   UNL     1     -10.865  -5.509   9.081  0.00  0.00    +0.047 A 
ATOM     18  C   UNL     1     -10.859  -4.172   9.186  0.00  0.00    +0.015 A 
ENDROOT
BRANCH  17  20
ATOM     20  C   UNL     1     -10.145  -6.168   7.978  0.00  0.00    -0.013 A 
ATOM     21  C   UNL     1     -10.840  -6.587   6.843  0.00  0.00    +0.010 A 
ATOM     22  C   UNL     1      -8.767  -6.372   8.066  0.00  0.00    +0.010 A 
ATOM     25  C   UNL     1     -10.158  -7.212   5.798  0.00  0.00    +0.015 A 
ATOM     26  C   UNL     1      -8.086  -6.997   7.022  0.00  0.00    +0.015 A 
ATOM     27  C   UNL     1      -8.781  -7.416   5.888  0.00  0.00    +0.008 A 
BRANCH  27   1
ATOM      1  S   UNL     1      -7.911  -8.215   4.554  0.00  0.00    -0.129 S 
ATOM     28  C   UNL     1      -6.733  -9.263   5.454  0.00  0.00    +0.090 C 
ENDBRANCH  27   1
ENDBRANCH  17  20
BRANCH  16  19
ATOM     19  C   UNL     1     -15.517  -4.076   8.991  0.00  0.00    +0.180 C 
BRANCH  19   6
ATOM      6  N   UNL     1     -15.681  -5.093   7.975  0.00  0.00    -0.300 NA
ATOM     23  C   UNL     1     -14.443  -5.864   7.797  0.00  0.00    +0.105 C 
ATOM     24  C   UNL     1     -16.086  -4.500   6.696  0.00  0.00    +0.105 C 
ENDBRANCH  19   6
ENDBRANCH  16  19
TORSDOF 4
ENDMDL
MODEL 6
REMARK VINA RESULT:      -6.1     27.230     29.670
REMARK  Name = 7143829
REMARK  7 active torsions:
REMARK  status: ('A' for Active; 'I' for Inactive)
REMARK    1  A    between atoms: S_1  and  C_27
REMARK    2  A    between atoms: S_1  and  C_28
REMARK    3  A    between atoms: N_6  and  C_19
REMARK    4  A    between atoms: N_6  and  C_23
REMARK    5  A    between atoms: N_6  and  C_24
REMARK    6  A    between atoms: C_16  and  C_19
REMARK    7  A    between atoms: C_17  and  C_20
REMARK                            x       y       z     vdW  Elec       q    Type
REMARK                         _______ _______ _______ _____ _____    ______ ____
ROOT
ATOM      2  O   UNL     1      -6.657 -10.466  14.233  0.00  0.00    -0.267 OA
ATOM      3  O   UNL     1      -3.620 -14.933  12.059  0.00  0.00    -0.274 OA
ATOM      4  N   UNL     1      -2.582 -12.945  12.666  0.00  0.00    -0.299 N 
ATOM      5  N   UNL     1      -4.344 -10.638  13.996  0.00  0.00    -0.311 N 
ATOM      7  C   UNL     1      -3.196 -10.721  11.709  0.00  0.00    +0.027 C 
ATOM      8  C   UNL     1      -1.843 -10.835  13.758  0.00  0.00    +0.054 C 
ATOM      9  C   UNL     1      -2.013 -10.094  12.433  0.00  0.00    +0.018 C 
ATOM     10  C   UNL     1      -2.939 -12.216  11.447  0.00  0.00    +0.113 C 
ATOM     11  C   UNL     1      -4.465 -10.492  12.538  0.00  0.00    +0.130 C 
ATOM     12  C   UNL     1      -1.531 -12.319  13.483  0.00  0.00    +0.117 C 
ATOM     13  C   UNL     1      -3.093 -10.723  14.611  0.00  0.00    +0.027 A 
ATOM     14  C   UNL     1      -3.001 -10.733  15.950  0.00  0.00    +0.022 A 
ATOM     15  C   UNL     1      -5.539 -10.576  14.739  0.00  0.00    +0.259 A 
ATOM     16  C   UNL     1      -3.176 -14.180  12.929  0.00  0.00    +0.230 C 
ATOM     17  C   UNL     1      -5.406 -10.627  16.237  0.00  0.00    +0.047 A 
ATOM     18  C   UNL     1      -4.177 -10.691  16.772  0.00  0.00    +0.015 A 
ENDROOT
BRANCH  17  20
ATOM     20  C   UNL     1      -6.593 -10.618  17.110  0.00  0.00    -0.013 A 
ATOM     21  C   UNL     1      -6.824 -11.679  17.985  0.00  0.00    +0.010 A 
ATOM     22  C   UNL     1      -7.487  -9.546  17.062  0.00  0.00    +0.010 A 
ATOM     25  C   UNL     1      -7.949 -11.671  18.811  0.00  0.00    +0.015 A 
ATOM     26  C   UNL     1      -8.610  -9.538  17.888  0.00  0.00    +0.015 A 
ATOM     27  C   UNL     1      -8.842 -10.600  18.762  0.00  0.00    +0.008 A 
BRANCH  27   1
ATOM      1  S   UNL     1     -10.277 -10.589  19.817  0.00  0.00    -0.129 S 
ATOM     28  C   UNL     1     -10.461 -12.353  20.210  0.00  0.00    +0.090 C 
ENDBRANCH  27   1
ENDBRANCH  17  20
BRANCH  16  19
ATOM     19  C   UNL     1      -3.271 -14.588  14.377  0.00  0.00    +0.180 C 
BRANCH  19   6
ATOM      6  N   UNL     1      -2.860 -15.974  14.434  0.00  0.00    -0.300 NA
ATOM     23  C   UNL     1      -3.392 -16.633  15.634  0.00  0.00    +0.105 C 
ATOM     24  C   UNL     1      -1.397 -16.090  14.410  0.00  0.00    +0.105 C 
ENDBRANCH  19   6
ENDBRANCH  16  19
TORSDOF 4
ENDMDL
MODEL 7
REMARK VINA RESULT:      -6.1     23.015     26.595
REMARK  Name = 7143829
REMARK  7 active torsions:
REMARK  status: ('A' for Active; 'I' for Inactive)
REMARK    1  A    between atoms: S_1  and  C_27
REMARK    2  A    between atoms: S_1  and  C_28
REMARK    3  A    between atoms: N_6  and  C_19
REMARK    4  A    between atoms: N_6  and  C_23
REMARK    5  A    between atoms: N_6  and  C_24
REMARK    6  A    between atoms: C_16  and  C_19
REMARK    7  A    between atoms: C_17  and  C_20
REMARK                            x       y       z     vdW  Elec       q    Type
REMARK                         _______ _______ _______ _____ _____    ______ ____
ROOT
ATOM      2  O   UNL     1      -6.491   9.783   5.808  0.00  0.00    -0.267 OA
ATOM      3  O   UNL     1      -2.329  12.310   2.614  0.00  0.00    -0.274 OA
ATOM      4  N   UNL     1      -1.810  10.818   4.318  0.00  0.00    -0.299 N 
ATOM      5  N   UNL     1      -4.196   9.382   5.881  0.00  0.00    -0.311 N 
ATOM      7  C   UNL     1      -2.516  11.136   6.692  0.00  0.00    +0.027 C 
ATOM      8  C   UNL     1      -1.716   8.936   5.943  0.00  0.00    +0.054 C 
ATOM      9  C   UNL     1      -1.668   9.938   7.095  0.00  0.00    +0.018 C 
ATOM     10  C   UNL     1      -1.964  11.782   5.409  0.00  0.00    +0.113 C 
ATOM     11  C   UNL     1      -3.971  10.683   6.528  0.00  0.00    +0.130 C 
ATOM     12  C   UNL     1      -1.111   9.575   4.677  0.00  0.00    +0.117 C 
ATOM     13  C   UNL     1      -3.141   8.493   5.663  0.00  0.00    +0.027 A 
ATOM     14  C   UNL     1      -3.385   7.264   5.182  0.00  0.00    +0.022 A 
ATOM     15  C   UNL     1      -5.532   9.039   5.596  0.00  0.00    +0.259 A 
ATOM     16  C   UNL     1      -2.243  11.153   3.035  0.00  0.00    +0.230 C 
ATOM     17  C   UNL     1      -5.770   7.668   5.024  0.00  0.00    +0.047 A 
ATOM     18  C   UNL     1      -4.720   6.852   4.853  0.00  0.00    +0.015 A 
ENDROOT
BRANCH  17  20
ATOM     20  C   UNL     1      -7.122   7.224   4.646  0.00  0.00    -0.013 A 
ATOM     21  C   UNL     1      -7.719   7.714   3.484  0.00  0.00    +0.010 A 
ATOM     22  C   UNL     1      -7.808   6.310   5.448  0.00  0.00    +0.010 A 
ATOM     25  C   UNL     1      -9.001   7.294   3.125  0.00  0.00    +0.015 A 
ATOM     26  C   UNL     1      -9.089   5.890   5.091  0.00  0.00    +0.015 A 
ATOM     27  C   UNL     1      -9.685   6.381   3.929  0.00  0.00    +0.008 A 
BRANCH  27   1
ATOM      1  S   UNL     1     -11.321   5.845   3.472  0.00  0.00    -0.129 S 
ATOM     28  C   UNL     1     -11.899   5.067   5.008  0.00  0.00    +0.090 C 
ENDBRANCH  27   1
ENDBRANCH  17  20
BRANCH  16  19
ATOM     19  C   UNL     1      -2.630  10.009   2.132  0.00  0.00    +0.180 C 
BRANCH  19   6
ATOM      6  N   UNL     1      -2.140  10.351   0.814  0.00  0.00    -0.300 NA
ATOM     23  C   UNL     1      -3.138  10.037  -0.217  0.00  0.00    +0.105 C 
ATOM     24  C   UNL     1      -0.884   9.651   0.521  0.00  0.00    +0.105 C 
ENDBRANCH  19   6
ENDBRANCH  16  19
TORSDOF 4
ENDMDL
MODEL 8
REMARK VINA RESULT:      -6.1      4.305      5.275
REMARK  Name = 7143829
REMARK  7 active torsions:
REMARK  status: ('A' for Active; 'I' for Inactive)
REMARK    1  A    between atoms: S_1  and  C_27
REMARK    2  A    between atoms: S_1  and  C_28
REMARK    3  A    between atoms: N_6  and  C_19
REMARK    4  A    between atoms: N_6  and  C_23
REMARK    5  A    between atoms: N_6  and  C_24
REMARK    6  A    between atoms: C_16  and  C_19
REMARK    7  A    between atoms: C_17  and  C_20
REMARK                            x       y       z     vdW  Elec       q    Type
REMARK                         _______ _______ _______ _____ _____    ______ ____
ROOT
ATOM      2  O   UNL     1      15.431   9.540  22.339  0.00  0.00    -0.267 OA
ATOM      3  O   UNL     1      13.661   7.574  17.151  0.00  0.00    -0.274 OA
ATOM      4  N   UNL     1      12.167   7.876  18.905  0.00  0.00    -0.299 N 
ATOM      5  N   UNL     1      13.246   9.114  21.644  0.00  0.00    -0.311 N 
ATOM      7  C   UNL     1      12.401   6.754  21.124  0.00  0.00    +0.027 C 
ATOM      8  C   UNL     1      10.885   8.674  20.882  0.00  0.00    +0.054 C 
ATOM      9  C   UNL     1      11.039   7.301  21.532  0.00  0.00    +0.018 C 
ATOM     10  C   UNL     1      12.495   6.625  19.593  0.00  0.00    +0.113 C 
ATOM     11  C   UNL     1      13.494   7.666  21.693  0.00  0.00    +0.130 C 
ATOM     12  C   UNL     1      10.925   8.526  19.348  0.00  0.00    +0.117 C 
ATOM     13  C   UNL     1      11.981   9.620  21.336  0.00  0.00    +0.027 A 
ATOM     14  C   UNL     1      11.746  10.939  21.415  0.00  0.00    +0.022 A 
ATOM     15  C   UNL     1      14.312   9.952  22.027  0.00  0.00    +0.259 A 
ATOM     16  C   UNL     1      12.975   8.318  17.857  0.00  0.00    +0.230 C 
ATOM     17  C   UNL     1      14.028  11.429  22.070  0.00  0.00    +0.047 A 
ATOM     18  C   UNL     1      12.789  11.854  21.781  0.00  0.00    +0.015 A 
ENDROOT
BRANCH  17  20
ATOM     20  C   UNL     1      15.083  12.399  22.412  0.00  0.00    -0.013 A 
ATOM     21  C   UNL     1      15.870  12.958  21.404  0.00  0.00    +0.010 A 
ATOM     22  C   UNL     1      15.295  12.762  23.743  0.00  0.00    +0.010 A 
ATOM     25  C   UNL     1      16.870  13.876  21.727  0.00  0.00    +0.015 A 
ATOM     26  C   UNL     1      16.294  13.679  24.066  0.00  0.00    +0.015 A 
ATOM     27  C   UNL     1      17.081  14.236  23.059  0.00  0.00    +0.008 A 
BRANCH  27   1
ATOM      1  S   UNL     1      18.358  15.409  23.471  0.00  0.00    -0.129 S 
ATOM     28  C   UNL     1      19.775  14.755  22.543  0.00  0.00    +0.090 C 
ENDBRANCH  27   1
ENDBRANCH  17  20
BRANCH  16  19
ATOM     19  C   UNL     1      12.994   9.803  17.599  0.00  0.00    +0.180 C 
BRANCH  19   6
ATOM      6  N   UNL     1      14.373  10.149  17.331  0.00  0.00    -0.300 NA
ATOM     23  C   UNL     1      14.987  10.806  18.492  0.00  0.00    +0.105 C 
ATOM     24  C   UNL     1      14.479  11.020  16.154  0.00  0.00    +0.105 C 
ENDBRANCH  19   6
ENDBRANCH  16  19
TORSDOF 4
ENDMDL
MODEL 9
REMARK VINA RESULT:      -5.9     22.503     24.531
REMARK  Name = 7143829
REMARK  7 active torsions:
REMARK  status: ('A' for Active; 'I' for Inactive)
REMARK    1  A    between atoms: S_1  and  C_27
REMARK    2  A    between atoms: S_1  and  C_28
REMARK    3  A    between atoms: N_6  and  C_19
REMARK    4  A    between atoms: N_6  and  C_23
REMARK    5  A    between atoms: N_6  and  C_24
REMARK    6  A    between atoms: C_16  and  C_19
REMARK    7  A    between atoms: C_17  and  C_20
REMARK                            x       y       z     vdW  Elec       q    Type
REMARK                         _______ _______ _______ _____ _____    ______ ____
ROOT
ATOM      2  O   UNL     1       8.948 -12.050  31.944  0.00  0.00    -0.267 OA
ATOM      3  O   UNL     1       6.522  -9.728  36.701  0.00  0.00    -0.274 OA
ATOM      4  N   UNL     1       7.393  -8.392  35.011  0.00  0.00    -0.299 N 
ATOM      5  N   UNL     1       8.546  -9.796  32.385  0.00  0.00    -0.311 N 
ATOM      7  C   UNL     1       9.764  -8.517  34.239  0.00  0.00    +0.027 C 
ATOM      8  C   UNL     1       8.091  -7.363  32.857  0.00  0.00    +0.054 C 
ATOM      9  C   UNL     1       9.531  -7.296  33.359  0.00  0.00    +0.018 C 
ATOM     10  C   UNL     1       8.791  -8.519  35.430  0.00  0.00    +0.113 C 
ATOM     11  C   UNL     1       9.627  -9.780  33.381  0.00  0.00    +0.130 C 
ATOM     12  C   UNL     1       7.123  -7.308  34.055  0.00  0.00    +0.117 C 
ATOM     13  C   UNL     1       7.849  -8.631  32.058  0.00  0.00    +0.027 A 
ATOM     14  C   UNL     1       6.950  -8.641  31.062  0.00  0.00    +0.022 A 
ATOM     15  C   UNL     1       8.328 -11.011  31.707  0.00  0.00    +0.259 A 
ATOM     16  C   UNL     1       6.425  -9.220  35.582  0.00  0.00    +0.230 C 
ATOM     17  C   UNL     1       7.288 -11.001  30.620  0.00  0.00    +0.047 A 
ATOM     18  C   UNL     1       6.663  -9.847  30.338  0.00  0.00    +0.015 A 
ENDROOT
BRANCH  17  20
ATOM     20  C   UNL     1       6.946 -12.227  29.879  0.00  0.00    -0.013 A 
ATOM     21  C   UNL     1       5.804 -12.953  30.219  0.00  0.00    +0.010 A 
ATOM     22  C   UNL     1       7.763 -12.664  28.835  0.00  0.00    +0.010 A 
ATOM     25  C   UNL     1       5.481 -14.115  29.518  0.00  0.00    +0.015 A 
ATOM     26  C   UNL     1       7.440 -13.825  28.134  0.00  0.00    +0.015 A 
ATOM     27  C   UNL     1       6.299 -14.551  28.475  0.00  0.00    +0.008 A 
BRANCH  27   1
ATOM      1  S   UNL     1       5.886 -16.035  27.580  0.00  0.00    -0.129 S 
ATOM     28  C   UNL     1       6.290 -15.563  25.874  0.00  0.00    +0.090 C 
ENDBRANCH  27   1
ENDBRANCH  17  20
BRANCH  16  19
ATOM     19  C   UNL     1       5.197  -9.495  34.751  0.00  0.00    +0.180 C 
BRANCH  19   6
ATOM      6  N   UNL     1       4.893 -10.898  34.932  0.00  0.00    -0.300 NA
ATOM     23  C   UNL     1       5.377 -11.693  33.797  0.00  0.00    +0.105 C 
ATOM     24  C   UNL     1       3.450 -11.105  35.106  0.00  0.00    +0.105 C 
ENDBRANCH  19   6
ENDBRANCH  16  19
TORSDOF 4
ENDMDL
MODEL 10
REMARK VINA RESULT:      -5.9     27.825     29.845
REMARK  Name = 7143829
REMARK  7 active torsions:
REMARK  status: ('A' for Active; 'I' for Inactive)
REMARK    1  A    between atoms: S_1  and  C_27
REMARK    2  A    between atoms: S_1  and  C_28
REMARK    3  A    between atoms: N_6  and  C_19
REMARK    4  A    between atoms: N_6  and  C_23
REMARK    5  A    between atoms: N_6  and  C_24
REMARK    6  A    between atoms: C_16  and  C_19
REMARK    7  A    between atoms: C_17  and  C_20
REMARK                            x       y       z     vdW  Elec       q    Type
REMARK                         _______ _______ _______ _____ _____    ______ ____
ROOT
ATOM      2  O   UNL     1      -4.837 -12.959  10.016  0.00  0.00    -0.267 OA
ATOM      3  O   UNL     1      -5.561 -13.418  15.776  0.00  0.00    -0.274 OA
ATOM      4  N   UNL     1      -3.471 -13.013  14.847  0.00  0.00    -0.299 N 
ATOM      5  N   UNL     1      -3.245 -12.623  11.686  0.00  0.00    -0.311 N 
ATOM      7  C   UNL     1      -2.389 -14.521  13.176  0.00  0.00    +0.027 C 
ATOM      8  C   UNL     1      -1.532 -12.239  13.494  0.00  0.00    +0.054 C 
ATOM      9  C   UNL     1      -1.116 -13.690  13.266  0.00  0.00    +0.018 C 
ATOM     10  C   UNL     1      -3.203 -14.404  14.476  0.00  0.00    +0.113 C 
ATOM     11  C   UNL     1      -3.192 -14.067  11.951  0.00  0.00    +0.130 C 
ATOM     12  C   UNL     1      -2.299 -12.125  14.826  0.00  0.00    +0.117 C 
ATOM     13  C   UNL     1      -2.401 -11.734  12.356  0.00  0.00    +0.027 A 
ATOM     14  C   UNL     1      -2.380 -10.437  12.013  0.00  0.00    +0.022 A 
ATOM     15  C   UNL     1      -4.105 -12.200  10.653  0.00  0.00    +0.259 A 
ATOM     16  C   UNL     1      -4.751 -12.644  15.261  0.00  0.00    +0.230 C 
ATOM     17  C   UNL     1      -4.086 -10.733  10.317  0.00  0.00    +0.047 A 
ATOM     18  C   UNL     1      -3.241  -9.932  10.982  0.00  0.00    +0.015 A 
ENDROOT
BRANCH  17  20
ATOM     20  C   UNL     1      -4.978 -10.176   9.286  0.00  0.00    -0.013 A 
ATOM     21  C   UNL     1      -4.778 -10.495   7.942  0.00  0.00    +0.010 A 
ATOM     22  C   UNL     1      -6.025  -9.328   9.652  0.00  0.00    +0.010 A 
ATOM     25  C   UNL     1      -5.623  -9.966   6.966  0.00  0.00    +0.015 A 
ATOM     26  C   UNL     1      -6.869  -8.799   8.676  0.00  0.00    +0.015 A 
ATOM     27  C   UNL     1      -6.668  -9.118   7.333  0.00  0.00    +0.008 A 
BRANCH  27   1
ATOM      1  S   UNL     1      -7.746  -8.443   6.086  0.00  0.00    -0.129 S 
ATOM     28  C   UNL     1      -8.406  -6.973   6.923  0.00  0.00    +0.090 C 
ENDBRANCH  27   1
ENDBRANCH  17  20
BRANCH  16  19
ATOM     19  C   UNL     1      -5.141 -11.203  15.046  0.00  0.00    +0.180 C 
BRANCH  19   6
ATOM      6  N   UNL     1      -5.636 -10.725  16.319  0.00  0.00    -0.300 NA
ATOM     23  C   UNL     1      -6.552  -9.591  16.135  0.00  0.00    +0.105 C 
ATOM     24  C   UNL     1      -4.530 -10.334  17.201  0.00  0.00    +0.105 C 
ENDBRANCH  19   6
ENDBRANCH  16  19
TORSDOF 4
ENDMDL
