MODEL 1
REMARK VINA RESULT:      -7.0      0.000      0.000
REMARK  Name = 45783852
REMARK  14 active torsions:
REMARK  status: ('A' for Active; 'I' for Inactive)
REMARK    1  A    between atoms: O_2  and  C_21
REMARK    2  A    between atoms: O_2  and  C_28
REMARK    3  A    between atoms: O_4  and  C_24
REMARK    4  A    between atoms: O_6  and  C_31
REMARK    5  A    between atoms: O_6  and  C_32
REMARK    6  A    between atoms: N_8  and  C_22
REMARK    7  A    between atoms: C_10  and  C_21
REMARK    8  A    between atoms: C_11  and  C_14
REMARK    9  A    between atoms: C_11  and  C_18
REMARK   10  A    between atoms: C_11  and  C_19
REMARK   11  A    between atoms: C_11  and  C_20
REMARK   12  A    between atoms: C_14  and  C_17
REMARK   13  A    between atoms: C_18  and  C_24
REMARK   14  A    between atoms: C_22  and  C_25
REMARK                            x       y       z     vdW  Elec       q    Type
REMARK                         _______ _______ _______ _____ _____    ______ ____
ROOT
ATOM      1  O   UNL     1      15.711   6.122  18.810  0.00  0.00    -0.276 OA
ATOM      7  N   UNL     1      14.193   7.519  19.897  0.00  0.00    -0.282 N 
ATOM      8  N   UNL     1      12.136   9.518  22.311  0.00  0.00    -0.328 N 
ATOM      9  N   UNL     1      10.614   7.909  22.028  0.00  0.00    -0.240 NA
ATOM     10  C   UNL     1      13.021   6.804  19.324  0.00  0.00    +0.191 C 
ATOM     12  C   UNL     1      13.961   8.745  20.712  0.00  0.00    +0.163 C 
ATOM     13  C   UNL     1      11.883   6.529  20.330  0.00  0.00    +0.091 C 
ATOM     15  C   UNL     1      12.659   8.650  21.398  0.00  0.00    +0.059 A 
ATOM     16  C   UNL     1      11.706   7.677  21.240  0.00  0.00    +0.066 A 
ATOM     17  C   UNL     1      15.476   7.128  19.485  0.00  0.00    +0.217 C 
ATOM     23  C   UNL     1      10.903   9.028  22.661  0.00  0.00    +0.200 A 
ENDROOT
BRANCH  10  21
ATOM      3  O   UNL     1      11.512   7.441  17.554  0.00  0.00    -0.249 OA
ATOM     21  C   UNL     1      12.556   7.635  18.161  0.00  0.00    +0.328 C 
BRANCH  21   2
ATOM      2  O   UNL     1      13.471   8.613  17.906  0.00  0.00    -0.467 OA
ATOM     28  C   UNL     1      13.075   9.588  16.935  0.00  0.00    +0.280 C 
ENDBRANCH  21   2
ENDBRANCH  10  21
BRANCH  17  14
ATOM     14  C   UNL     1      16.620   8.012  19.917  0.00  0.00    +0.103 C 
BRANCH  14  11
ATOM     11  C   UNL     1      17.587   7.308  20.890  0.00  0.00    -0.017 C 
ATOM     19  C   UNL     1      18.335   8.356  21.743  0.00  0.00    +0.012 C 
ATOM     20  C   UNL     1      16.741   6.445  21.847  0.00  0.00    +0.012 C 
BRANCH  11  18
ATOM     18  C   UNL     1      18.641   6.435  20.168  0.00  0.00    +0.127 C 
BRANCH  18  24
ATOM      5  O   UNL     1      20.119   5.862  21.997  0.00  0.00    -0.251 OA
ATOM     24  C   UNL     1      19.973   6.336  20.878  0.00  0.00    +0.305 C 
BRANCH  24   4
ATOM      4  O   UNL     1      20.999   6.834  20.144  0.00  0.00    -0.481 OA
ATOM     33  H   UNL     1      20.918   6.600  19.195  0.00  0.00    +0.295 HD
ENDBRANCH  24   4
ENDBRANCH  18  24
ENDBRANCH  11  18
ENDBRANCH  14  11
ENDBRANCH  17  14
BRANCH   8  22
ATOM     22  C   UNL     1      12.745  10.723  22.818  0.00  0.00    +0.158 C 
BRANCH  22  25
ATOM     25  C   UNL     1      11.769  11.859  22.994  0.00  0.00    -0.028 A 
ATOM     26  C   UNL     1      11.326  12.578  21.884  0.00  0.00    +0.009 A 
ATOM     27  C   UNL     1      11.306  12.189  24.268  0.00  0.00    +0.009 A 
ATOM     29  C   UNL     1      10.422  13.628  22.047  0.00  0.00    +0.046 A 
ATOM     30  C   UNL     1      10.403  13.239  24.431  0.00  0.00    +0.046 A 
ATOM     31  C   UNL     1       9.960  13.959  23.321  0.00  0.00    +0.120 A 
BRANCH  31   6
ATOM      6  O   UNL     1       9.078  14.981  23.481  0.00  0.00    -0.495 OA
ATOM     32  C   UNL     1       8.351  15.398  22.326  0.00  0.00    +0.277 C 
ENDBRANCH  31   6
ENDBRANCH  22  25
ENDBRANCH   8  22
TORSDOF 10
ENDMDL
MODEL 2
REMARK VINA RESULT:      -6.7      2.437      7.897
REMARK  Name = 45783852
REMARK  14 active torsions:
REMARK  status: ('A' for Active; 'I' for Inactive)
REMARK    1  A    between atoms: O_2  and  C_21
REMARK    2  A    between atoms: O_2  and  C_28
REMARK    3  A    between atoms: O_4  and  C_24
REMARK    4  A    between atoms: O_6  and  C_31
REMARK    5  A    between atoms: O_6  and  C_32
REMARK    6  A    between atoms: N_8  and  C_22
REMARK    7  A    between atoms: C_10  and  C_21
REMARK    8  A    between atoms: C_11  and  C_14
REMARK    9  A    between atoms: C_11  and  C_18
REMARK   10  A    between atoms: C_11  and  C_19
REMARK   11  A    between atoms: C_11  and  C_20
REMARK   12  A    between atoms: C_14  and  C_17
REMARK   13  A    between atoms: C_18  and  C_24
REMARK   14  A    between atoms: C_22  and  C_25
REMARK                            x       y       z     vdW  Elec       q    Type
REMARK                         _______ _______ _______ _____ _____    ______ ____
ROOT
ATOM      1  O   UNL     1      12.815  11.197  18.666  0.00  0.00    -0.276 OA
ATOM      7  N   UNL     1      13.982   9.248  19.194  0.00  0.00    -0.282 N 
ATOM      8  N   UNL     1      16.509   6.588  19.960  0.00  0.00    -0.328 N 
ATOM      9  N   UNL     1      16.144   5.924  17.860  0.00  0.00    -0.240 NA
ATOM     10  C   UNL     1      13.374   8.496  18.063  0.00  0.00    +0.191 C 
ATOM     12  C   UNL     1      14.864   8.521  20.151  0.00  0.00    +0.163 C 
ATOM     13  C   UNL     1      14.367   7.625  17.266  0.00  0.00    +0.091 C 
ATOM     15  C   UNL     1      15.548   7.414  19.458  0.00  0.00    +0.059 A 
ATOM     16  C   UNL     1      15.340   6.984  18.172  0.00  0.00    +0.066 A 
ATOM     17  C   UNL     1      13.544  10.560  19.430  0.00  0.00    +0.217 C 
ATOM     23  C   UNL     1      16.836   5.707  18.960  0.00  0.00    +0.200 A 
ENDROOT
BRANCH  10  21
ATOM      3  O   UNL     1      12.425   6.619  19.242  0.00  0.00    -0.249 OA
ATOM     21  C   UNL     1      12.260   7.681  18.657  0.00  0.00    +0.328 C 
BRANCH  21   2
ATOM      2  O   UNL     1      11.071   8.309  18.439  0.00  0.00    -0.467 OA
ATOM     28  C   UNL     1      10.776   8.610  17.071  0.00  0.00    +0.280 C 
ENDBRANCH  21   2
ENDBRANCH  10  21
BRANCH  17  14
ATOM     14  C   UNL     1      14.020  11.208  20.708  0.00  0.00    +0.103 C 
BRANCH  14  11
ATOM     11  C   UNL     1      12.890  11.403  21.737  0.00  0.00    -0.017 C 
ATOM     19  C   UNL     1      13.395  11.042  23.152  0.00  0.00    +0.012 C 
ATOM     20  C   UNL     1      12.515  12.898  21.743  0.00  0.00    +0.012 C 
BRANCH  11  18
ATOM     18  C   UNL     1      11.643  10.537  21.437  0.00  0.00    +0.127 C 
BRANCH  18  24
ATOM      5  O   UNL     1      10.986   8.838  23.032  0.00  0.00    -0.251 OA
ATOM     24  C   UNL     1      10.933  10.004  22.662  0.00  0.00    +0.305 C 
BRANCH  24   4
ATOM      4  O   UNL     1      10.218  10.956  23.313  0.00  0.00    -0.481 OA
ATOM     33  H   UNL     1      10.129  11.775  22.779  0.00  0.00    +0.295 HD
ENDBRANCH  24   4
ENDBRANCH  18  24
ENDBRANCH  11  18
ENDBRANCH  14  11
ENDBRANCH  17  14
BRANCH   8  22
ATOM     22  C   UNL     1      17.079   6.616  21.285  0.00  0.00    +0.158 C 
BRANCH  22  25
ATOM     25  C   UNL     1      18.415   7.312  21.347  0.00  0.00    -0.028 A 
ATOM     26  C   UNL     1      19.593   6.581  21.187  0.00  0.00    +0.009 A 
ATOM     27  C   UNL     1      18.474   8.690  21.563  0.00  0.00    +0.009 A 
ATOM     29  C   UNL     1      20.828   7.226  21.244  0.00  0.00    +0.046 A 
ATOM     30  C   UNL     1      19.709   9.334  21.620  0.00  0.00    +0.046 A 
ATOM     31  C   UNL     1      20.886   8.603  21.461  0.00  0.00    +0.120 A 
BRANCH  31   6
ATOM      6  O   UNL     1      22.091   9.232  21.515  0.00  0.00    -0.495 OA
ATOM     32  C   UNL     1      23.204   8.556  20.933  0.00  0.00    +0.277 C 
ENDBRANCH  31   6
ENDBRANCH  22  25
ENDBRANCH   8  22
TORSDOF 10
ENDMDL
MODEL 3
REMARK VINA RESULT:      -6.5      4.548      7.658
REMARK  Name = 45783852
REMARK  14 active torsions:
REMARK  status: ('A' for Active; 'I' for Inactive)
REMARK    1  A    between atoms: O_2  and  C_21
REMARK    2  A    between atoms: O_2  and  C_28
REMARK    3  A    between atoms: O_4  and  C_24
REMARK    4  A    between atoms: O_6  and  C_31
REMARK    5  A    between atoms: O_6  and  C_32
REMARK    6  A    between atoms: N_8  and  C_22
REMARK    7  A    between atoms: C_10  and  C_21
REMARK    8  A    between atoms: C_11  and  C_14
REMARK    9  A    between atoms: C_11  and  C_18
REMARK   10  A    between atoms: C_11  and  C_19
REMARK   11  A    between atoms: C_11  and  C_20
REMARK   12  A    between atoms: C_14  and  C_17
REMARK   13  A    between atoms: C_18  and  C_24
REMARK   14  A    between atoms: C_22  and  C_25
REMARK                            x       y       z     vdW  Elec       q    Type
REMARK                         _______ _______ _______ _____ _____    ______ ____
ROOT
ATOM      1  O   UNL     1      23.213   7.043  22.030  0.00  0.00    -0.276 OA
ATOM      7  N   UNL     1      20.895   7.250  21.869  0.00  0.00    -0.282 N 
ATOM      8  N   UNL     1      17.326   7.734  20.831  0.00  0.00    -0.328 N 
ATOM      9  N   UNL     1      17.548   9.758  21.748  0.00  0.00    -0.240 NA
ATOM     10  C   UNL     1      20.850   8.315  22.907  0.00  0.00    +0.191 C 
ATOM     12  C   UNL     1      19.613   6.727  21.318  0.00  0.00    +0.163 C 
ATOM     13  C   UNL     1      19.930   9.505  22.565  0.00  0.00    +0.091 C 
ATOM     15  C   UNL     1      18.589   7.787  21.342  0.00  0.00    +0.059 A 
ATOM     16  C   UNL     1      18.698   9.035  21.901  0.00  0.00    +0.066 A 
ATOM     17  C   UNL     1      22.130   6.642  21.594  0.00  0.00    +0.217 C 
ATOM     23  C   UNL     1      16.739   8.944  21.101  0.00  0.00    +0.200 A 
ENDROOT
BRANCH  10  21
ATOM      3  O   UNL     1      20.282   6.426  24.294  0.00  0.00    -0.249 OA
ATOM     21  C   UNL     1      20.441   7.634  24.182  0.00  0.00    +0.328 C 
BRANCH  21   2
ATOM      2  O   UNL     1      20.281   8.565  25.165  0.00  0.00    -0.467 OA
ATOM     28  C   UNL     1      20.615   8.128  26.487  0.00  0.00    +0.280 C 
ENDBRANCH  21   2
ENDBRANCH  10  21
BRANCH  17  14
ATOM     14  C   UNL     1      22.097   5.427  20.700  0.00  0.00    +0.103 C 
BRANCH  14  11
ATOM     11  C   UNL     1      22.568   4.145  21.415  0.00  0.00    -0.017 C 
ATOM     19  C   UNL     1      22.354   4.280  22.939  0.00  0.00    +0.012 C 
ATOM     20  C   UNL     1      21.684   2.982  20.921  0.00  0.00    +0.012 C 
BRANCH  11  18
ATOM     18  C   UNL     1      24.062   3.828  21.167  0.00  0.00    +0.127 C 
BRANCH  18  24
ATOM      5  O   UNL     1      24.437   1.466  20.794  0.00  0.00    -0.251 OA
ATOM     24  C   UNL     1      24.317   2.593  20.331  0.00  0.00    +0.305 C 
BRANCH  24   4
ATOM      4  O   UNL     1      24.405   2.863  19.005  0.00  0.00    -0.481 OA
ATOM     33  H   UNL     1      23.752   3.540  18.725  0.00  0.00    +0.295 HD
ENDBRANCH  24   4
ENDBRANCH  18  24
ENDBRANCH  11  18
ENDBRANCH  14  11
ENDBRANCH  17  14
BRANCH   8  22
ATOM     22  C   UNL     1      16.709   6.626  20.144  0.00  0.00    +0.158 C 
BRANCH  22  25
ATOM     25  C   UNL     1      15.308   6.921  19.670  0.00  0.00    -0.028 A 
ATOM     26  C   UNL     1      15.094   7.414  18.383  0.00  0.00    +0.009 A 
ATOM     27  C   UNL     1      14.224   6.697  20.520  0.00  0.00    +0.009 A 
ATOM     29  C   UNL     1      13.798   7.686  17.946  0.00  0.00    +0.046 A 
ATOM     30  C   UNL     1      12.928   6.969  20.082  0.00  0.00    +0.046 A 
ATOM     31  C   UNL     1      12.714   7.464  18.796  0.00  0.00    +0.120 A 
BRANCH  31   6
ATOM      6  O   UNL     1      11.450   7.727  18.369  0.00  0.00    -0.495 OA
ATOM     32  C   UNL     1      11.314   8.511  17.185  0.00  0.00    +0.277 C 
ENDBRANCH  31   6
ENDBRANCH  22  25
ENDBRANCH   8  22
TORSDOF 10
ENDMDL
MODEL 4
REMARK VINA RESULT:      -6.3      2.318      7.682
REMARK  Name = 45783852
REMARK  14 active torsions:
REMARK  status: ('A' for Active; 'I' for Inactive)
REMARK    1  A    between atoms: O_2  and  C_21
REMARK    2  A    between atoms: O_2  and  C_28
REMARK    3  A    between atoms: O_4  and  C_24
REMARK    4  A    between atoms: O_6  and  C_31
REMARK    5  A    between atoms: O_6  and  C_32
REMARK    6  A    between atoms: N_8  and  C_22
REMARK    7  A    between atoms: C_10  and  C_21
REMARK    8  A    between atoms: C_11  and  C_14
REMARK    9  A    between atoms: C_11  and  C_18
REMARK   10  A    between atoms: C_11  and  C_19
REMARK   11  A    between atoms: C_11  and  C_20
REMARK   12  A    between atoms: C_14  and  C_17
REMARK   13  A    between atoms: C_18  and  C_24
REMARK   14  A    between atoms: C_22  and  C_25
REMARK                            x       y       z     vdW  Elec       q    Type
REMARK                         _______ _______ _______ _____ _____    ______ ____
ROOT
ATOM      1  O   UNL     1      10.527   9.671  22.261  0.00  0.00    -0.276 OA
ATOM      7  N   UNL     1      12.641  10.650  22.153  0.00  0.00    -0.282 N 
ATOM      8  N   UNL     1      16.299  11.471  22.130  0.00  0.00    -0.328 N 
ATOM      9  N   UNL     1      15.927  12.252  24.190  0.00  0.00    -0.240 NA
ATOM     10  C   UNL     1      12.319  11.625  23.230  0.00  0.00    +0.191 C 
ATOM     12  C   UNL     1      13.951  10.760  21.450  0.00  0.00    +0.163 C 
ATOM     13  C   UNL     1      13.436  11.816  24.278  0.00  0.00    +0.091 C 
ATOM     15  C   UNL     1      14.964  11.316  22.365  0.00  0.00    +0.059 A 
ATOM     16  C   UNL     1      14.763  11.805  23.630  0.00  0.00    +0.066 A 
ATOM     17  C   UNL     1      11.624   9.792  21.709  0.00  0.00    +0.217 C 
ATOM     23  C   UNL     1      16.835  12.039  23.259  0.00  0.00    +0.200 A 
ENDROOT
BRANCH  10  21
ATOM      3  O   UNL     1      12.767  13.824  22.346  0.00  0.00    -0.249 OA
ATOM     21  C   UNL     1      11.973  12.911  22.534  0.00  0.00    +0.328 C 
BRANCH  21   2
ATOM      2  O   UNL     1      10.663  12.888  22.161  0.00  0.00    -0.467 OA
ATOM     28  C   UNL     1      10.144  14.125  21.661  0.00  0.00    +0.280 C 
ENDBRANCH  21   2
ENDBRANCH  10  21
BRANCH  17  14
ATOM     14  C   UNL     1      11.925   8.974  20.477  0.00  0.00    +0.103 C 
BRANCH  14  11
ATOM     11  C   UNL     1      12.318   7.520  20.805  0.00  0.00    -0.017 C 
ATOM     19  C   UNL     1      13.485   7.502  21.816  0.00  0.00    +0.012 C 
ATOM     20  C   UNL     1      11.104   6.849  21.480  0.00  0.00    +0.012 C 
BRANCH  11  18
ATOM     18  C   UNL     1      12.752   6.714  19.557  0.00  0.00    +0.127 C 
BRANCH  18  24
ATOM      5  O   UNL     1      13.549   8.363  17.973  0.00  0.00    -0.251 OA
ATOM     24  C   UNL     1      12.734   7.496  18.262  0.00  0.00    +0.305 C 
BRANCH  24   4
ATOM      4  O   UNL     1      11.711   7.140  17.446  0.00  0.00    -0.481 OA
ATOM     33  H   UNL     1      12.032   6.763  16.598  0.00  0.00    +0.295 HD
ENDBRANCH  24   4
ENDBRANCH  18  24
ENDBRANCH  11  18
ENDBRANCH  14  11
ENDBRANCH  17  14
BRANCH   8  22
ATOM     22  C   UNL     1      17.021  11.119  20.933  0.00  0.00    +0.158 C 
BRANCH  22  25
ATOM     25  C   UNL     1      17.738   9.796  21.034  0.00  0.00    -0.028 A 
ATOM     26  C   UNL     1      17.038   8.604  20.847  0.00  0.00    +0.009 A 
ATOM     27  C   UNL     1      19.106   9.765  21.313  0.00  0.00    +0.009 A 
ATOM     29  C   UNL     1      17.703   7.382  20.940  0.00  0.00    +0.046 A 
ATOM     30  C   UNL     1      19.770   8.541  21.407  0.00  0.00    +0.046 A 
ATOM     31  C   UNL     1      19.069   7.350  21.220  0.00  0.00    +0.120 A 
BRANCH  31   6
ATOM      6  O   UNL     1      19.717   6.158  21.310  0.00  0.00    -0.495 OA
ATOM     32  C   UNL     1      20.684   6.021  22.351  0.00  0.00    +0.277 C 
ENDBRANCH  31   6
ENDBRANCH  22  25
ENDBRANCH   8  22
TORSDOF 10
ENDMDL
MODEL 5
REMARK VINA RESULT:      -6.2     26.956     29.168
REMARK  Name = 45783852
REMARK  14 active torsions:
REMARK  status: ('A' for Active; 'I' for Inactive)
REMARK    1  A    between atoms: O_2  and  C_21
REMARK    2  A    between atoms: O_2  and  C_28
REMARK    3  A    between atoms: O_4  and  C_24
REMARK    4  A    between atoms: O_6  and  C_31
REMARK    5  A    between atoms: O_6  and  C_32
REMARK    6  A    between atoms: N_8  and  C_22
REMARK    7  A    between atoms: C_10  and  C_21
REMARK    8  A    between atoms: C_11  and  C_14
REMARK    9  A    between atoms: C_11  and  C_18
REMARK   10  A    between atoms: C_11  and  C_19
REMARK   11  A    between atoms: C_11  and  C_20
REMARK   12  A    between atoms: C_14  and  C_17
REMARK   13  A    between atoms: C_18  and  C_24
REMARK   14  A    between atoms: C_22  and  C_25
REMARK                            x       y       z     vdW  Elec       q    Type
REMARK                         _______ _______ _______ _____ _____    ______ ____
ROOT
ATOM      1  O   UNL     1      -3.343 -12.335  10.056  0.00  0.00    -0.276 OA
ATOM      7  N   UNL     1      -3.601 -11.964  12.344  0.00  0.00    -0.282 N 
ATOM      8  N   UNL     1      -3.947 -10.588  15.814  0.00  0.00    -0.328 N 
ATOM      9  N   UNL     1      -1.810 -11.194  16.046  0.00  0.00    -0.240 NA
ATOM     10  C   UNL     1      -2.430 -12.817  12.683  0.00  0.00    +0.191 C 
ATOM     12  C   UNL     1      -4.427 -11.402  13.450  0.00  0.00    +0.163 C 
ATOM     13  C   UNL     1      -1.494 -12.224  13.756  0.00  0.00    +0.091 C 
ATOM     15  C   UNL     1      -3.586 -11.182  14.640  0.00  0.00    +0.059 A 
ATOM     16  C   UNL     1      -2.275 -11.547  14.810  0.00  0.00    +0.066 A 
ATOM     17  C   UNL     1      -3.997 -11.884  11.000  0.00  0.00    +0.217 C 
ATOM     23  C   UNL     1      -2.843 -10.620  16.628  0.00  0.00    +0.200 A 
ENDROOT
BRANCH  10  21
ATOM      3  O   UNL     1      -3.979 -14.663  12.590  0.00  0.00    -0.249 OA
ATOM     21  C   UNL     1      -2.993 -14.147  13.098  0.00  0.00    +0.328 C 
BRANCH  21   2
ATOM      2  O   UNL     1      -2.239 -14.664  14.110  0.00  0.00    -0.467 OA
ATOM     28  C   UNL     1      -1.737 -15.987  13.888  0.00  0.00    +0.280 C 
ENDBRANCH  21   2
ENDBRANCH  10  21
BRANCH  17  14
ATOM     14  C   UNL     1      -5.309 -11.189  10.726  0.00  0.00    +0.103 C 
BRANCH  14  11
ATOM     11  C   UNL     1      -5.132  -9.835  10.011  0.00  0.00    -0.017 C 
ATOM     19  C   UNL     1      -3.797  -9.183  10.435  0.00  0.00    +0.012 C 
ATOM     20  C   UNL     1      -5.054 -10.113   8.496  0.00  0.00    +0.012 C 
BRANCH  11  18
ATOM     18  C   UNL     1      -6.272  -8.836  10.316  0.00  0.00    +0.127 C 
BRANCH  18  24
ATOM      5  O   UNL     1      -8.163  -9.771  11.505  0.00  0.00    -0.251 OA
ATOM     24  C   UNL     1      -7.096  -9.171  11.540  0.00  0.00    +0.305 C 
BRANCH  24   4
ATOM      4  O   UNL     1      -6.533  -8.728  12.692  0.00  0.00    -0.481 OA
ATOM     33  H   UNL     1      -5.800  -8.097  12.522  0.00  0.00    +0.295 HD
ENDBRANCH  24   4
ENDBRANCH  18  24
ENDBRANCH  11  18
ENDBRANCH  14  11
ENDBRANCH  17  14
BRANCH   8  22
ATOM     22  C   UNL     1      -5.235 -10.035  16.152  0.00  0.00    +0.158 C 
BRANCH  22  25
ATOM     25  C   UNL     1      -5.923 -10.765  17.278  0.00  0.00    -0.028 A 
ATOM     26  C   UNL     1      -6.597 -11.960  17.029  0.00  0.00    +0.009 A 
ATOM     27  C   UNL     1      -5.884 -10.244  18.573  0.00  0.00    +0.009 A 
ATOM     29  C   UNL     1      -7.232 -12.635  18.072  0.00  0.00    +0.046 A 
ATOM     30  C   UNL     1      -6.519 -10.918  19.615  0.00  0.00    +0.046 A 
ATOM     31  C   UNL     1      -7.193 -12.113  19.365  0.00  0.00    +0.120 A 
BRANCH  31   6
ATOM      6  O   UNL     1      -7.812 -12.772  20.382  0.00  0.00    -0.495 OA
ATOM     32  C   UNL     1      -8.946 -13.569  20.045  0.00  0.00    +0.277 C 
ENDBRANCH  31   6
ENDBRANCH  22  25
ENDBRANCH   8  22
TORSDOF 10
ENDMDL
MODEL 6
REMARK VINA RESULT:      -6.2     27.543     29.595
REMARK  Name = 45783852
REMARK  14 active torsions:
REMARK  status: ('A' for Active; 'I' for Inactive)
REMARK    1  A    between atoms: O_2  and  C_21
REMARK    2  A    between atoms: O_2  and  C_28
REMARK    3  A    between atoms: O_4  and  C_24
REMARK    4  A    between atoms: O_6  and  C_31
REMARK    5  A    between atoms: O_6  and  C_32
REMARK    6  A    between atoms: N_8  and  C_22
REMARK    7  A    between atoms: C_10  and  C_21
REMARK    8  A    between atoms: C_11  and  C_14
REMARK    9  A    between atoms: C_11  and  C_18
REMARK   10  A    between atoms: C_11  and  C_19
REMARK   11  A    between atoms: C_11  and  C_20
REMARK   12  A    between atoms: C_14  and  C_17
REMARK   13  A    between atoms: C_18  and  C_24
REMARK   14  A    between atoms: C_22  and  C_25
REMARK                            x       y       z     vdW  Elec       q    Type
REMARK                         _______ _______ _______ _____ _____    ______ ____
ROOT
ATOM      1  O   UNL     1      -7.815  -9.464  16.410  0.00  0.00    -0.276 OA
ATOM      7  N   UNL     1      -6.578  -9.958  14.496  0.00  0.00    -0.282 N 
ATOM      8  N   UNL     1      -4.258 -10.027  11.553  0.00  0.00    -0.328 N 
ATOM      9  N   UNL     1      -6.076  -9.499  10.368  0.00  0.00    -0.240 NA
ATOM     10  C   UNL     1      -7.801 -10.153  13.673  0.00  0.00    +0.191 C 
ATOM     12  C   UNL     1      -5.247 -10.244  13.888  0.00  0.00    +0.163 C 
ATOM     13  C   UNL     1      -7.742  -9.507  12.272  0.00  0.00    +0.091 C 
ATOM     15  C   UNL     1      -5.294  -9.983  12.438  0.00  0.00    +0.059 A 
ATOM     16  C   UNL     1      -6.395  -9.662  11.686  0.00  0.00    +0.066 A 
ATOM     17  C   UNL     1      -6.734  -9.704  15.868  0.00  0.00    +0.217 C 
ATOM     23  C   UNL     1      -4.779  -9.728  10.319  0.00  0.00    +0.200 A 
ENDROOT
BRANCH  10  21
ATOM      3  O   UNL     1      -7.523 -12.363  12.750  0.00  0.00    -0.249 OA
ATOM     21  C   UNL     1      -8.020 -11.638  13.600  0.00  0.00    +0.328 C 
BRANCH  21   2
ATOM      2  O   UNL     1      -8.845 -12.026  14.613  0.00  0.00    -0.467 OA
ATOM     28  C   UNL     1     -10.155 -11.448  14.597  0.00  0.00    +0.280 C 
ENDBRANCH  21   2
ENDBRANCH  10  21
BRANCH  17  14
ATOM     14  C   UNL     1      -5.477  -9.729  16.703  0.00  0.00    +0.103 C 
BRANCH  14  11
ATOM     11  C   UNL     1      -5.391 -10.967  17.618  0.00  0.00    -0.017 C 
ATOM     19  C   UNL     1      -5.992 -10.643  19.004  0.00  0.00    +0.012 C 
ATOM     20  C   UNL     1      -6.252 -12.078  16.984  0.00  0.00    +0.012 C 
BRANCH  11  18
ATOM     18  C   UNL     1      -3.941 -11.464  17.828  0.00  0.00    +0.127 C 
BRANCH  18  24
ATOM      5  O   UNL     1      -3.331 -12.199  20.052  0.00  0.00    -0.251 OA
ATOM     24  C   UNL     1      -3.773 -12.472  18.943  0.00  0.00    +0.305 C 
BRANCH  24   4
ATOM      4  O   UNL     1      -4.158 -13.723  18.586  0.00  0.00    -0.481 OA
ATOM     33  H   UNL     1      -3.549 -14.119  17.926  0.00  0.00    +0.295 HD
ENDBRANCH  24   4
ENDBRANCH  18  24
ENDBRANCH  11  18
ENDBRANCH  14  11
ENDBRANCH  17  14
BRANCH   8  22
ATOM     22  C   UNL     1      -2.877 -10.332  11.839  0.00  0.00    +0.158 C 
BRANCH  22  25
ATOM     25  C   UNL     1      -2.639 -11.787  12.154  0.00  0.00    -0.028 A 
ATOM     26  C   UNL     1      -3.218 -12.778  11.361  0.00  0.00    +0.009 A 
ATOM     27  C   UNL     1      -1.835 -12.143  13.238  0.00  0.00    +0.009 A 
ATOM     29  C   UNL     1      -2.996 -14.124  11.652  0.00  0.00    +0.046 A 
ATOM     30  C   UNL     1      -1.614 -13.490  13.529  0.00  0.00    +0.046 A 
ATOM     31  C   UNL     1      -2.194 -14.480  12.736  0.00  0.00    +0.120 A 
BRANCH  31   6
ATOM      6  O   UNL     1      -1.976 -15.792  13.019  0.00  0.00    -0.495 OA
ATOM     32  C   UNL     1      -0.745 -16.123  13.660  0.00  0.00    +0.277 C 
ENDBRANCH  31   6
ENDBRANCH  22  25
ENDBRANCH   8  22
TORSDOF 10
ENDMDL
MODEL 7
REMARK VINA RESULT:      -6.1     26.648     28.945
REMARK  Name = 45783852
REMARK  14 active torsions:
REMARK  status: ('A' for Active; 'I' for Inactive)
REMARK    1  A    between atoms: O_2  and  C_21
REMARK    2  A    between atoms: O_2  and  C_28
REMARK    3  A    between atoms: O_4  and  C_24
REMARK    4  A    between atoms: O_6  and  C_31
REMARK    5  A    between atoms: O_6  and  C_32
REMARK    6  A    between atoms: N_8  and  C_22
REMARK    7  A    between atoms: C_10  and  C_21
REMARK    8  A    between atoms: C_11  and  C_14
REMARK    9  A    between atoms: C_11  and  C_18
REMARK   10  A    between atoms: C_11  and  C_19
REMARK   11  A    between atoms: C_11  and  C_20
REMARK   12  A    between atoms: C_14  and  C_17
REMARK   13  A    between atoms: C_18  and  C_24
REMARK   14  A    between atoms: C_22  and  C_25
REMARK                            x       y       z     vdW  Elec       q    Type
REMARK                         _______ _______ _______ _____ _____    ______ ____
ROOT
ATOM      1  O   UNL     1      -3.446  -9.403  10.727  0.00  0.00    -0.276 OA
ATOM      7  N   UNL     1      -3.948 -10.466  12.741  0.00  0.00    -0.282 N 
ATOM      8  N   UNL     1      -5.132 -11.479  16.150  0.00  0.00    -0.328 N 
ATOM      9  N   UNL     1      -3.037 -11.036  16.785  0.00  0.00    -0.240 NA
ATOM     10  C   UNL     1      -2.512 -10.705  13.050  0.00  0.00    +0.191 C 
ATOM     12  C   UNL     1      -4.985 -11.035  13.648  0.00  0.00    +0.163 C 
ATOM     13  C   UNL     1      -2.114 -10.413  14.512  0.00  0.00    +0.091 C 
ATOM     15  C   UNL     1      -4.458 -11.114  15.022  0.00  0.00    +0.059 A 
ATOM     16  C   UNL     1      -3.177 -10.852  15.438  0.00  0.00    +0.066 A 
ATOM     17  C   UNL     1      -4.273  -9.885  11.505  0.00  0.00    +0.217 C 
ATOM     23  C   UNL     1      -4.233 -11.417  17.185  0.00  0.00    +0.200 A 
ENDROOT
BRANCH  10  21
ATOM      3  O   UNL     1      -2.717 -12.681  11.683  0.00  0.00    -0.249 OA
ATOM     21  C   UNL     1      -2.238 -12.132  12.665  0.00  0.00    +0.328 C 
BRANCH  21   2
ATOM      2  O   UNL     1      -1.389 -12.692  13.572  0.00  0.00    -0.467 OA
ATOM     28  C   UNL     1      -1.453 -14.119  13.675  0.00  0.00    +0.280 C 
ENDBRANCH  21   2
ENDBRANCH  10  21
BRANCH  17  14
ATOM     14  C   UNL     1      -5.737  -9.858  11.140  0.00  0.00    +0.103 C 
BRANCH  14  11
ATOM     11  C   UNL     1      -6.094 -10.864  10.027  0.00  0.00    -0.017 C 
ATOM     19  C   UNL     1      -4.872 -11.754   9.706  0.00  0.00    +0.012 C 
ATOM     20  C   UNL     1      -7.210 -11.782  10.567  0.00  0.00    +0.012 C 
BRANCH  11  18
ATOM     18  C   UNL     1      -6.547 -10.180   8.716  0.00  0.00    +0.127 C 
BRANCH  18  24
ATOM      5  O   UNL     1      -5.170 -10.431   6.741  0.00  0.00    -0.251 OA
ATOM     24  C   UNL     1      -5.424  -9.818   7.770  0.00  0.00    +0.305 C 
BRANCH  24   4
ATOM      4  O   UNL     1      -4.715  -8.738   8.183  0.00  0.00    -0.481 OA
ATOM     33  H   UNL     1      -4.954  -8.471   9.097  0.00  0.00    +0.295 HD
ENDBRANCH  24   4
ENDBRANCH  18  24
ENDBRANCH  11  18
ENDBRANCH  14  11
ENDBRANCH  17  14
BRANCH   8  22
ATOM     22  C   UNL     1      -6.518 -11.864  16.252  0.00  0.00    +0.158 C 
BRANCH  22  25
ATOM     25  C   UNL     1      -7.468 -10.693  16.231  0.00  0.00    -0.028 A 
ATOM     26  C   UNL     1      -8.242 -10.442  15.098  0.00  0.00    +0.009 A 
ATOM     27  C   UNL     1      -7.574  -9.861  17.346  0.00  0.00    +0.009 A 
ATOM     29  C   UNL     1      -9.121  -9.360  15.079  0.00  0.00    +0.046 A 
ATOM     30  C   UNL     1      -8.453  -8.778  17.326  0.00  0.00    +0.046 A 
ATOM     31  C   UNL     1      -9.226  -8.527  16.193  0.00  0.00    +0.120 A 
BRANCH  31   6
ATOM      6  O   UNL     1     -10.084  -7.472  16.175  0.00  0.00    -0.495 OA
ATOM     32  C   UNL     1     -11.067  -7.451  15.141  0.00  0.00    +0.277 C 
ENDBRANCH  31   6
ENDBRANCH  22  25
ENDBRANCH   8  22
TORSDOF 10
ENDMDL
MODEL 8
REMARK VINA RESULT:      -6.1     27.801     30.314
REMARK  Name = 45783852
REMARK  14 active torsions:
REMARK  status: ('A' for Active; 'I' for Inactive)
REMARK    1  A    between atoms: O_2  and  C_21
REMARK    2  A    between atoms: O_2  and  C_28
REMARK    3  A    between atoms: O_4  and  C_24
REMARK    4  A    between atoms: O_6  and  C_31
REMARK    5  A    between atoms: O_6  and  C_32
REMARK    6  A    between atoms: N_8  and  C_22
REMARK    7  A    between atoms: C_10  and  C_21
REMARK    8  A    between atoms: C_11  and  C_14
REMARK    9  A    between atoms: C_11  and  C_18
REMARK   10  A    between atoms: C_11  and  C_19
REMARK   11  A    between atoms: C_11  and  C_20
REMARK   12  A    between atoms: C_14  and  C_17
REMARK   13  A    between atoms: C_18  and  C_24
REMARK   14  A    between atoms: C_22  and  C_25
REMARK                            x       y       z     vdW  Elec       q    Type
REMARK                         _______ _______ _______ _____ _____    ______ ____
ROOT
ATOM      1  O   UNL     1      -6.683 -12.090  20.611  0.00  0.00    -0.276 OA
ATOM      7  N   UNL     1      -8.233 -11.083  19.189  0.00  0.00    -0.282 N 
ATOM      8  N   UNL     1     -10.483  -8.782  17.266  0.00  0.00    -0.328 N 
ATOM      9  N   UNL     1     -12.073  -9.510  18.654  0.00  0.00    -0.240 NA
ATOM     10  C   UNL     1      -9.349 -11.922  19.700  0.00  0.00    +0.191 C 
ATOM     12  C   UNL     1      -8.490 -10.160  18.046  0.00  0.00    +0.163 C 
ATOM     13  C   UNL     1     -10.662 -11.154  19.962  0.00  0.00    +0.091 C 
ATOM     15  C   UNL     1      -9.892  -9.707  18.076  0.00  0.00    +0.059 A 
ATOM     16  C   UNL     1     -10.888 -10.139  18.913  0.00  0.00    +0.066 A 
ATOM     17  C   UNL     1      -6.938 -11.335  19.670  0.00  0.00    +0.217 C 
ATOM     23  C   UNL     1     -11.796  -8.699  17.654  0.00  0.00    +0.200 A 
ENDROOT
BRANCH  10  21
ATOM      3  O   UNL     1     -10.285 -12.956  17.733  0.00  0.00    -0.249 OA
ATOM     21  C   UNL     1      -9.533 -13.025  18.696  0.00  0.00    +0.328 C 
BRANCH  21   2
ATOM      2  O   UNL     1      -8.742 -14.083  19.032  0.00  0.00    -0.467 OA
ATOM     28  C   UNL     1      -9.358 -15.070  19.867  0.00  0.00    +0.280 C 
ENDBRANCH  21   2
ENDBRANCH  10  21
BRANCH  17  14
ATOM     14  C   UNL     1      -5.810 -10.615  18.971  0.00  0.00    +0.103 C 
BRANCH  14  11
ATOM     11  C   UNL     1      -4.856 -11.574  18.233  0.00  0.00    -0.017 C 
ATOM     19  C   UNL     1      -3.742 -12.054  19.190  0.00  0.00    +0.012 C 
ATOM     20  C   UNL     1      -5.672 -12.812  17.808  0.00  0.00    +0.012 C 
BRANCH  11  18
ATOM     18  C   UNL     1      -4.182 -10.926  17.000  0.00  0.00    +0.127 C 
BRANCH  18  24
ATOM      5  O   UNL     1      -5.554 -11.188  15.022  0.00  0.00    -0.251 OA
ATOM     24  C   UNL     1      -5.140 -10.468  15.922  0.00  0.00    +0.305 C 
BRANCH  24   4
ATOM      4  O   UNL     1      -5.494  -9.165  16.051  0.00  0.00    -0.481 OA
ATOM     33  H   UNL     1      -5.878  -8.806  15.223  0.00  0.00    +0.295 HD
ENDBRANCH  24   4
ENDBRANCH  18  24
ENDBRANCH  11  18
ENDBRANCH  14  11
ENDBRANCH  17  14
BRANCH   8  22
ATOM     22  C   UNL     1      -9.863  -8.032  16.201  0.00  0.00    +0.158 C 
BRANCH  22  25
ATOM     25  C   UNL     1     -10.856  -7.419  15.245  0.00  0.00    -0.028 A 
ATOM     26  C   UNL     1     -11.212  -6.076  15.374  0.00  0.00    +0.009 A 
ATOM     27  C   UNL     1     -11.416  -8.195  14.230  0.00  0.00    +0.009 A 
ATOM     29  C   UNL     1     -12.129  -5.509  14.489  0.00  0.00    +0.046 A 
ATOM     30  C   UNL     1     -12.334  -7.627  13.345  0.00  0.00    +0.046 A 
ATOM     31  C   UNL     1     -12.691  -6.285  13.475  0.00  0.00    +0.120 A 
BRANCH  31   6
ATOM      6  O   UNL     1     -13.584  -5.732  12.611  0.00  0.00    -0.495 OA
ATOM     32  C   UNL     1     -14.619  -4.927  13.175  0.00  0.00    +0.277 C 
ENDBRANCH  31   6
ENDBRANCH  22  25
ENDBRANCH   8  22
TORSDOF 10
ENDMDL
MODEL 9
REMARK VINA RESULT:      -6.1     26.213     29.379
REMARK  Name = 45783852
REMARK  14 active torsions:
REMARK  status: ('A' for Active; 'I' for Inactive)
REMARK    1  A    between atoms: O_2  and  C_21
REMARK    2  A    between atoms: O_2  and  C_28
REMARK    3  A    between atoms: O_4  and  C_24
REMARK    4  A    between atoms: O_6  and  C_31
REMARK    5  A    between atoms: O_6  and  C_32
REMARK    6  A    between atoms: N_8  and  C_22
REMARK    7  A    between atoms: C_10  and  C_21
REMARK    8  A    between atoms: C_11  and  C_14
REMARK    9  A    between atoms: C_11  and  C_18
REMARK   10  A    between atoms: C_11  and  C_19
REMARK   11  A    between atoms: C_11  and  C_20
REMARK   12  A    between atoms: C_14  and  C_17
REMARK   13  A    between atoms: C_18  and  C_24
REMARK   14  A    between atoms: C_22  and  C_25
REMARK                            x       y       z     vdW  Elec       q    Type
REMARK                         _______ _______ _______ _____ _____    ______ ____
ROOT
ATOM      1  O   UNL     1      -4.264 -12.170  17.851  0.00  0.00    -0.276 OA
ATOM      7  N   UNL     1      -6.221 -11.507  16.770  0.00  0.00    -0.282 N 
ATOM      8  N   UNL     1      -8.860 -10.031  14.554  0.00  0.00    -0.328 N 
ATOM      9  N   UNL     1      -9.174  -8.592  16.232  0.00  0.00    -0.240 NA
ATOM     10  C   UNL     1      -6.796 -10.934  18.017  0.00  0.00    +0.191 C 
ATOM     12  C   UNL     1      -7.060 -11.539  15.539  0.00  0.00    +0.163 C 
ATOM     13  C   UNL     1      -7.476  -9.560  17.839  0.00  0.00    +0.091 C 
ATOM     15  C   UNL     1      -8.003 -10.405  15.547  0.00  0.00    +0.059 A 
ATOM     16  C   UNL     1      -8.218  -9.510  16.563  0.00  0.00    +0.066 A 
ATOM     17  C   UNL     1      -4.988 -12.171  16.852  0.00  0.00    +0.217 C 
ATOM     23  C   UNL     1      -9.544  -8.934  15.015  0.00  0.00    +0.200 A 
ENDROOT
BRANCH  10  21
ATOM      3  O   UNL     1      -7.963 -13.045  18.006  0.00  0.00    -0.249 OA
ATOM     21  C   UNL     1      -7.748 -11.969  18.548  0.00  0.00    +0.328 C 
BRANCH  21   2
ATOM      2  O   UNL     1      -8.315 -11.517  19.702  0.00  0.00    -0.467 OA
ATOM     28  C   UNL     1      -9.696 -11.851  19.881  0.00  0.00    +0.280 C 
ENDBRANCH  21   2
ENDBRANCH  10  21
BRANCH  17  14
ATOM     14  C   UNL     1      -4.546 -12.921  15.620  0.00  0.00    +0.103 C 
BRANCH  14  11
ATOM     11  C   UNL     1      -3.643 -12.078  14.698  0.00  0.00    -0.017 C 
ATOM     19  C   UNL     1      -2.317 -12.823  14.430  0.00  0.00    +0.012 C 
ATOM     20  C   UNL     1      -4.371 -11.920  13.347  0.00  0.00    +0.012 C 
BRANCH  11  18
ATOM     18  C   UNL     1      -3.302 -10.690  15.290  0.00  0.00    +0.127 C 
BRANCH  18  24
ATOM      5  O   UNL     1      -1.005  -9.939  15.157  0.00  0.00    -0.251 OA
ATOM     24  C   UNL     1      -1.876 -10.540  15.772  0.00  0.00    +0.305 C 
BRANCH  24   4
ATOM      4  O   UNL     1      -1.656 -11.150  16.963  0.00  0.00    -0.481 OA
ATOM     33  H   UNL     1      -2.336 -11.832  17.156  0.00  0.00    +0.295 HD
ENDBRANCH  24   4
ENDBRANCH  18  24
ENDBRANCH  11  18
ENDBRANCH  14  11
ENDBRANCH  17  14
BRANCH   8  22
ATOM     22  C   UNL     1      -9.032 -10.659  13.267  0.00  0.00    +0.158 C 
BRANCH  22  25
ATOM     25  C   UNL     1      -7.907 -10.368  12.305  0.00  0.00    -0.028 A 
ATOM     26  C   UNL     1      -7.099  -9.247  12.492  0.00  0.00    +0.009 A 
ATOM     27  C   UNL     1      -7.674 -11.224  11.227  0.00  0.00    +0.009 A 
ATOM     29  C   UNL     1      -6.059  -8.980  11.602  0.00  0.00    +0.046 A 
ATOM     30  C   UNL     1      -6.634 -10.956  10.337  0.00  0.00    +0.046 A 
ATOM     31  C   UNL     1      -5.826  -9.834  10.524  0.00  0.00    +0.120 A 
BRANCH  31   6
ATOM      6  O   UNL     1      -4.811  -9.574   9.657  0.00  0.00    -0.495 OA
ATOM     32  C   UNL     1      -4.931 -10.107   8.338  0.00  0.00    +0.277 C 
ENDBRANCH  31   6
ENDBRANCH  22  25
ENDBRANCH   8  22
TORSDOF 10
ENDMDL
MODEL 10
REMARK VINA RESULT:      -6.1     14.874     17.913
REMARK  Name = 45783852
REMARK  14 active torsions:
REMARK  status: ('A' for Active; 'I' for Inactive)
REMARK    1  A    between atoms: O_2  and  C_21
REMARK    2  A    between atoms: O_2  and  C_28
REMARK    3  A    between atoms: O_4  and  C_24
REMARK    4  A    between atoms: O_6  and  C_31
REMARK    5  A    between atoms: O_6  and  C_32
REMARK    6  A    between atoms: N_8  and  C_22
REMARK    7  A    between atoms: C_10  and  C_21
REMARK    8  A    between atoms: C_11  and  C_14
REMARK    9  A    between atoms: C_11  and  C_18
REMARK   10  A    between atoms: C_11  and  C_19
REMARK   11  A    between atoms: C_11  and  C_20
REMARK   12  A    between atoms: C_14  and  C_17
REMARK   13  A    between atoms: C_18  and  C_24
REMARK   14  A    between atoms: C_22  and  C_25
REMARK                            x       y       z     vdW  Elec       q    Type
REMARK                         _______ _______ _______ _____ _____    ______ ____
ROOT
ATOM      1  O   UNL     1       9.743   4.990   1.278  0.00  0.00    -0.276 OA
ATOM      7  N   UNL     1      10.232   6.076   3.283  0.00  0.00    -0.282 N 
ATOM      8  N   UNL     1      10.885   7.094   6.832  0.00  0.00    -0.328 N 
ATOM      9  N   UNL     1       8.823   7.947   6.750  0.00  0.00    -0.240 NA
ATOM     10  C   UNL     1       9.154   7.082   3.080  0.00  0.00    +0.191 C 
ATOM     12  C   UNL     1      11.144   6.225   4.453  0.00  0.00    +0.163 C 
ATOM     13  C   UNL     1       8.311   7.381   4.338  0.00  0.00    +0.091 C 
ATOM     15  C   UNL     1      10.429   6.877   5.565  0.00  0.00    +0.059 A 
ATOM     16  C   UNL     1       9.166   7.412   5.541  0.00  0.00    +0.066 A 
ATOM     17  C   UNL     1      10.472   5.145   2.261  0.00  0.00    +0.217 C 
ATOM     23  C   UNL     1       9.881   7.741   7.507  0.00  0.00    +0.200 A 
ENDROOT
BRANCH  10  21
ATOM      3  O   UNL     1      11.020   8.376   2.271  0.00  0.00    -0.249 OA
ATOM     21  C   UNL     1       9.830   8.313   2.548  0.00  0.00    +0.328 C 
BRANCH  21   2
ATOM      2  O   UNL     1       8.918   9.319   2.432  0.00  0.00    -0.467 OA
ATOM     28  C   UNL     1       9.466  10.635   2.299  0.00  0.00    +0.280 C 
ENDBRANCH  21   2
ENDBRANCH  10  21
BRANCH  17  14
ATOM     14  C   UNL     1      11.706   4.288   2.409  0.00  0.00    +0.103 C 
BRANCH  14  11
ATOM     11  C   UNL     1      12.830   4.685   1.432  0.00  0.00    -0.017 C 
ATOM     19  C   UNL     1      12.228   5.360   0.180  0.00  0.00    +0.012 C 
ATOM     20  C   UNL     1      13.721   5.724   2.140  0.00  0.00    +0.012 C 
BRANCH  11  18
ATOM     18  C   UNL     1      13.678   3.478   0.965  0.00  0.00    +0.127 C 
BRANCH  18  24
ATOM      5  O   UNL     1      15.835   4.299   0.233  0.00  0.00    -0.251 OA
ATOM     24  C   UNL     1      15.174   3.682   1.059  0.00  0.00    +0.305 C 
BRANCH  24   4
ATOM      4  O   UNL     1      15.717   3.102   2.159  0.00  0.00    -0.481 OA
ATOM     33  H   UNL     1      15.028   2.782   2.781  0.00  0.00    +0.295 HD
ENDBRANCH  24   4
ENDBRANCH  18  24
ENDBRANCH  11  18
ENDBRANCH  14  11
ENDBRANCH  17  14
BRANCH   8  22
ATOM     22  C   UNL     1      12.171   6.725   7.371  0.00  0.00    +0.158 C 
BRANCH  22  25
ATOM     25  C   UNL     1      13.284   7.652   6.950  0.00  0.00    -0.028 A 
ATOM     26  C   UNL     1      14.515   7.131   6.553  0.00  0.00    +0.009 A 
ATOM     27  C   UNL     1      13.080   9.033   6.956  0.00  0.00    +0.009 A 
ATOM     29  C   UNL     1      15.543   7.988   6.164  0.00  0.00    +0.046 A 
ATOM     30  C   UNL     1      14.110   9.890   6.566  0.00  0.00    +0.046 A 
ATOM     31  C   UNL     1      15.341   9.369   6.170  0.00  0.00    +0.120 A 
BRANCH  31   6
ATOM      6  O   UNL     1      16.343  10.205   5.789  0.00  0.00    -0.495 OA
ATOM     32  C   UNL     1      17.017   9.898   4.569  0.00  0.00    +0.277 C 
ENDBRANCH  31   6
ENDBRANCH  22  25
ENDBRANCH   8  22
TORSDOF 10
ENDMDL
