MODEL 1
REMARK VINA RESULT:      -6.6      0.000      0.000
REMARK  Name = 51136755
REMARK  12 active torsions:
REMARK  status: ('A' for Active; 'I' for Inactive)
REMARK    1  A    between atoms: O_2  and  C_17
REMARK    2  A    between atoms: N_6  and  C_26
REMARK    3  A    between atoms: C_7  and  C_11
REMARK    4  A    between atoms: C_8  and  C_13
REMARK    5  A    between atoms: C_11  and  C_14
REMARK    6  A    between atoms: C_13  and  C_17
REMARK    7  A    between atoms: C_22  and  C_23
REMARK    8  A    between atoms: C_23  and  C_27
REMARK    9  A    between atoms: C_23  and  C_28
REMARK   10  A    between atoms: C_23  and  C_29
REMARK   11  A    between atoms: C_26  and  C_30
REMARK   12  A    between atoms: C_26  and  C_31
REMARK                            x       y       z     vdW  Elec       q    Type
REMARK                         _______ _______ _______ _____ _____    ______ ____
ROOT
ATOM      1  O   UNL     1      -8.183 -11.350  19.758  0.00  0.00    -0.253 OA
ATOM      4  N   UNL     1      -6.868 -10.246  18.199  0.00  0.00    -0.285 N 
ATOM      6  N   UNL     1      -9.201 -10.481  17.896  0.00  0.00    -0.297 N 
ATOM      7  C   UNL     1      -5.690 -10.248  16.018  0.00  0.00    +0.016 C 
ATOM      8  C   UNL     1      -4.366 -10.535  16.774  0.00  0.00    +0.006 C 
ATOM      9  C   UNL     1      -4.618 -11.232  18.123  0.00  0.00    +0.023 C 
ATOM     10  C   UNL     1      -6.663  -9.502  16.947  0.00  0.00    +0.113 C 
ATOM     12  C   UNL     1      -5.641 -10.470  18.964  0.00  0.00    +0.109 C 
ATOM     16  C   UNL     1      -8.090 -10.731  18.692  0.00  0.00    +0.302 C 
ATOM     32  H   UNL     1      -9.097 -10.118  16.960  0.00  0.00    +0.150 HD
ENDROOT
BRANCH   6  26
ATOM     26  C   UNL     1     -10.527 -10.925  18.265  0.00  0.00    +0.068 C 
ATOM     30  C   UNL     1     -11.050 -11.932  17.249  0.00  0.00    +0.027 C 
ATOM     31  C   UNL     1     -11.471  -9.737  18.400  0.00  0.00    +0.027 C 
ENDBRANCH   6  26
BRANCH   7  11
ATOM     11  C   UNL     1      -6.359 -11.498  15.434  0.00  0.00    +0.061 C 
BRANCH  11  14
ATOM      5  N   UNL     1      -8.649 -11.234  14.759  0.00  0.00    -0.287 NA
ATOM     14  C   UNL     1      -7.409 -11.094  14.426  0.00  0.00    +0.044 C 
ATOM     15  C   UNL     1      -6.969 -10.554  13.114  0.00  0.00    -0.001 A 
ATOM     18  C   UNL     1      -7.921  -9.843  12.373  0.00  0.00    -0.037 A 
ATOM     19  C   UNL     1      -9.294  -9.663  12.949  0.00  0.00    +0.059 C 
ATOM     20  C   UNL     1      -9.667 -10.900  13.757  0.00  0.00    +0.146 C 
ATOM     21  C   UNL     1      -5.671 -10.721  12.625  0.00  0.00    +0.014 A 
ATOM     22  C   UNL     1      -5.325 -10.163  11.394  0.00  0.00    -0.041 A 
ATOM     24  C   UNL     1      -7.560  -9.274  11.149  0.00  0.00    +0.004 A 
ATOM     25  C   UNL     1      -6.264  -9.440  10.659  0.00  0.00    +0.004 A 
BRANCH  22  23
ATOM     23  C   UNL     1      -3.941 -10.337  10.862  0.00  0.00    -0.013 C 
ATOM     27  C   UNL     1      -3.823 -11.639  10.010  0.00  0.00    +0.015 C 
ATOM     28  C   UNL     1      -2.899 -10.436  12.017  0.00  0.00    +0.015 C 
ATOM     29  C   UNL     1      -3.428  -9.184   9.935  0.00  0.00    +0.015 C 
ENDBRANCH  22  23
ENDBRANCH  11  14
ENDBRANCH   7  11
BRANCH   8  13
ATOM     13  C   UNL     1      -3.358 -11.325  15.939  0.00  0.00    +0.124 C 
BRANCH  13  17
ATOM      3  O   UNL     1      -1.498  -9.958  15.155  0.00  0.00    -0.251 OA
ATOM     17  C   UNL     1      -1.989 -10.705  15.989  0.00  0.00    +0.305 C 
BRANCH  17   2
ATOM      2  O   UNL     1      -1.348 -11.097  17.120  0.00  0.00    -0.481 OA
ATOM     33  H   UNL     1      -1.853 -11.782  17.608  0.00  0.00    +0.295 HD
ENDBRANCH  17   2
ENDBRANCH  13  17
ENDBRANCH   8  13
TORSDOF 7
ENDMDL
MODEL 2
REMARK VINA RESULT:      -6.4      2.245      6.693
REMARK  Name = 51136755
REMARK  12 active torsions:
REMARK  status: ('A' for Active; 'I' for Inactive)
REMARK    1  A    between atoms: O_2  and  C_17
REMARK    2  A    between atoms: N_6  and  C_26
REMARK    3  A    between atoms: C_7  and  C_11
REMARK    4  A    between atoms: C_8  and  C_13
REMARK    5  A    between atoms: C_11  and  C_14
REMARK    6  A    between atoms: C_13  and  C_17
REMARK    7  A    between atoms: C_22  and  C_23
REMARK    8  A    between atoms: C_23  and  C_27
REMARK    9  A    between atoms: C_23  and  C_28
REMARK   10  A    between atoms: C_23  and  C_29
REMARK   11  A    between atoms: C_26  and  C_30
REMARK   12  A    between atoms: C_26  and  C_31
REMARK                            x       y       z     vdW  Elec       q    Type
REMARK                         _______ _______ _______ _____ _____    ______ ____
ROOT
ATOM      1  O   UNL     1      -1.723  -9.921  12.296  0.00  0.00    -0.253 OA
ATOM      4  N   UNL     1      -2.964 -11.280  13.708  0.00  0.00    -0.285 N 
ATOM      6  N   UNL     1      -3.883 -10.420  11.706  0.00  0.00    -0.297 N 
ATOM      7  C   UNL     1      -4.710 -11.515  15.452  0.00  0.00    +0.016 C 
ATOM      8  C   UNL     1      -3.584 -11.619  16.515  0.00  0.00    +0.006 C 
ATOM      9  C   UNL     1      -2.290 -10.929  16.045  0.00  0.00    +0.023 C 
ATOM     10  C   UNL     1      -4.183 -12.007  14.093  0.00  0.00    +0.113 C 
ATOM     12  C   UNL     1      -1.864 -11.419  14.662  0.00  0.00    +0.109 C 
ATOM     16  C   UNL     1      -2.783 -10.504  12.551  0.00  0.00    +0.302 C 
ATOM     32  H   UNL     1      -4.787 -10.764  11.996  0.00  0.00    +0.150 HD
ENDROOT
BRANCH   6  26
ATOM     26  C   UNL     1      -3.855  -9.651  10.482  0.00  0.00    +0.068 C 
ATOM     30  C   UNL     1      -4.821  -8.477  10.571  0.00  0.00    +0.027 C 
ATOM     31  C   UNL     1      -4.174 -10.538   9.286  0.00  0.00    +0.027 C 
ENDBRANCH   6  26
BRANCH   7  11
ATOM     11  C   UNL     1      -5.313 -10.112  15.317  0.00  0.00    +0.061 C 
BRANCH  11  14
ATOM      5  N   UNL     1      -6.853  -9.800  13.501  0.00  0.00    -0.287 NA
ATOM     14  C   UNL     1      -6.696 -10.204  14.717  0.00  0.00    +0.044 C 
ATOM     15  C   UNL     1      -7.799 -10.756  15.546  0.00  0.00    -0.001 A 
ATOM     18  C   UNL     1      -8.946 -11.184  14.866  0.00  0.00    -0.037 A 
ATOM     19  C   UNL     1      -8.979 -11.073  13.371  0.00  0.00    +0.059 C 
ATOM     20  C   UNL     1      -8.208  -9.832  12.940  0.00  0.00    +0.146 C 
ATOM     21  C   UNL     1      -7.716 -10.867  16.936  0.00  0.00    +0.014 A 
ATOM     22  C   UNL     1      -8.784 -11.419  17.645  0.00  0.00    -0.041 A 
ATOM     24  C   UNL     1     -10.002 -11.750  15.583  0.00  0.00    +0.004 A 
ATOM     25  C   UNL     1      -9.922 -11.862  16.972  0.00  0.00    +0.004 A 
BRANCH  22  23
ATOM     23  C   UNL     1      -8.707 -11.540  19.130  0.00  0.00    -0.013 C 
ATOM     27  C   UNL     1      -9.892 -10.795  19.820  0.00  0.00    +0.015 C 
ATOM     28  C   UNL     1      -7.383 -10.926  19.680  0.00  0.00    +0.015 C 
ATOM     29  C   UNL     1      -8.752 -13.002  19.688  0.00  0.00    +0.015 C 
ENDBRANCH  22  23
ENDBRANCH  11  14
ENDBRANCH   7  11
BRANCH   8  13
ATOM     13  C   UNL     1      -4.005 -11.098  17.888  0.00  0.00    +0.124 C 
BRANCH  13  17
ATOM      3  O   UNL     1      -3.322 -12.234  19.934  0.00  0.00    -0.251 OA
ATOM     17  C   UNL     1      -4.005 -12.191  18.921  0.00  0.00    +0.305 C 
BRANCH  17   2
ATOM      2  O   UNL     1      -4.891 -13.157  18.567  0.00  0.00    -0.481 OA
ATOM     33  H   UNL     1      -5.635 -12.796  18.040  0.00  0.00    +0.295 HD
ENDBRANCH  17   2
ENDBRANCH  13  17
ENDBRANCH   8  13
TORSDOF 7
ENDMDL
MODEL 3
REMARK VINA RESULT:      -6.3     21.296     25.481
REMARK  Name = 51136755
REMARK  12 active torsions:
REMARK  status: ('A' for Active; 'I' for Inactive)
REMARK    1  A    between atoms: O_2  and  C_17
REMARK    2  A    between atoms: N_6  and  C_26
REMARK    3  A    between atoms: C_7  and  C_11
REMARK    4  A    between atoms: C_8  and  C_13
REMARK    5  A    between atoms: C_11  and  C_14
REMARK    6  A    between atoms: C_13  and  C_17
REMARK    7  A    between atoms: C_22  and  C_23
REMARK    8  A    between atoms: C_23  and  C_27
REMARK    9  A    between atoms: C_23  and  C_28
REMARK   10  A    between atoms: C_23  and  C_29
REMARK   11  A    between atoms: C_26  and  C_30
REMARK   12  A    between atoms: C_26  and  C_31
REMARK                            x       y       z     vdW  Elec       q    Type
REMARK                         _______ _______ _______ _____ _____    ______ ____
ROOT
ATOM      1  O   UNL     1     -17.166   6.773  28.549  0.00  0.00    -0.253 OA
ATOM      4  N   UNL     1     -16.941   4.872  29.859  0.00  0.00    -0.285 N 
ATOM      6  N   UNL     1     -17.316   6.997  30.826  0.00  0.00    -0.297 N 
ATOM      7  C   UNL     1     -15.549   3.458  31.345  0.00  0.00    +0.016 C 
ATOM      8  C   UNL     1     -15.265   2.529  30.136  0.00  0.00    +0.006 C 
ATOM      9  C   UNL     1     -15.404   3.275  28.797  0.00  0.00    +0.023 C 
ATOM     10  C   UNL     1     -16.902   4.163  31.147  0.00  0.00    +0.113 C 
ATOM     12  C   UNL     1     -16.743   4.004  28.698  0.00  0.00    +0.109 C 
ATOM     16  C   UNL     1     -17.146   6.249  29.668  0.00  0.00    +0.302 C 
ATOM     32  H   UNL     1     -17.141   6.593  31.735  0.00  0.00    +0.150 HD
ENDROOT
BRANCH   6  26
ATOM     26  C   UNL     1     -17.527   8.427  30.793  0.00  0.00    +0.068 C 
ATOM     30  C   UNL     1     -17.011   9.069  32.075  0.00  0.00    +0.027 C 
ATOM     31  C   UNL     1     -19.001   8.745  30.572  0.00  0.00    +0.027 C 
ENDBRANCH   6  26
BRANCH   7  11
ATOM     11  C   UNL     1     -14.444   4.486  31.617  0.00  0.00    +0.061 C 
BRANCH  11  14
ATOM      5  N   UNL     1     -15.036   4.119  33.915  0.00  0.00    -0.287 NA
ATOM     14  C   UNL     1     -14.494   4.923  33.062  0.00  0.00    +0.044 C 
ATOM     15  C   UNL     1     -13.918   6.241  33.429  0.00  0.00    -0.001 A 
ATOM     18  C   UNL     1     -13.630   6.448  34.785  0.00  0.00    -0.037 A 
ATOM     19  C   UNL     1     -13.903   5.339  35.756  0.00  0.00    +0.059 C 
ATOM     20  C   UNL     1     -15.139   4.569  35.308  0.00  0.00    +0.146 C 
ATOM     21  C   UNL     1     -13.653   7.239  32.489  0.00  0.00    +0.014 A 
ATOM     22  C   UNL     1     -13.087   8.444  32.907  0.00  0.00    -0.041 A 
ATOM     24  C   UNL     1     -13.048   7.651  35.191  0.00  0.00    +0.004 A 
ATOM     25  C   UNL     1     -12.783   8.650  34.253  0.00  0.00    +0.004 A 
BRANCH  22  23
ATOM     23  C   UNL     1     -12.802   9.517  31.910  0.00  0.00    -0.013 C 
ATOM     27  C   UNL     1     -11.436   9.276  31.196  0.00  0.00    +0.015 C 
ATOM     28  C   UNL     1     -12.735  10.919  32.590  0.00  0.00    +0.015 C 
ATOM     29  C   UNL     1     -13.854   9.661  30.760  0.00  0.00    +0.015 C 
ENDBRANCH  22  23
ENDBRANCH  11  14
ENDBRANCH   7  11
BRANCH   8  13
ATOM     13  C   UNL     1     -13.910   1.827  30.224  0.00  0.00    +0.124 C 
BRANCH  13  17
ATOM      3  O   UNL     1     -14.999  -0.193  29.402  0.00  0.00    -0.251 OA
ATOM     17  C   UNL     1     -14.010   0.377  29.837  0.00  0.00    +0.305 C 
BRANCH  17   2
ATOM      2  O   UNL     1     -12.816  -0.235  30.043  0.00  0.00    -0.481 OA
ATOM     33  H   UNL     1     -12.346   0.132  30.822  0.00  0.00    +0.295 HD
ENDBRANCH  17   2
ENDBRANCH  13  17
ENDBRANCH   8  13
TORSDOF 7
ENDMDL
MODEL 4
REMARK VINA RESULT:      -6.2      2.278      5.563
REMARK  Name = 51136755
REMARK  12 active torsions:
REMARK  status: ('A' for Active; 'I' for Inactive)
REMARK    1  A    between atoms: O_2  and  C_17
REMARK    2  A    between atoms: N_6  and  C_26
REMARK    3  A    between atoms: C_7  and  C_11
REMARK    4  A    between atoms: C_8  and  C_13
REMARK    5  A    between atoms: C_11  and  C_14
REMARK    6  A    between atoms: C_13  and  C_17
REMARK    7  A    between atoms: C_22  and  C_23
REMARK    8  A    between atoms: C_23  and  C_27
REMARK    9  A    between atoms: C_23  and  C_28
REMARK   10  A    between atoms: C_23  and  C_29
REMARK   11  A    between atoms: C_26  and  C_30
REMARK   12  A    between atoms: C_26  and  C_31
REMARK                            x       y       z     vdW  Elec       q    Type
REMARK                         _______ _______ _______ _____ _____    ______ ____
ROOT
ATOM      1  O   UNL     1      -1.845  -9.940  12.364  0.00  0.00    -0.253 OA
ATOM      4  N   UNL     1      -3.198 -11.251  13.717  0.00  0.00    -0.285 N 
ATOM      6  N   UNL     1      -4.051 -10.187  11.785  0.00  0.00    -0.297 N 
ATOM      7  C   UNL     1      -4.937 -11.414  15.476  0.00  0.00    +0.016 C 
ATOM      8  C   UNL     1      -3.815 -11.692  16.511  0.00  0.00    +0.006 C 
ATOM      9  C   UNL     1      -2.465 -11.107  16.059  0.00  0.00    +0.023 C 
ATOM     10  C   UNL     1      -4.479 -11.875  14.082  0.00  0.00    +0.113 C 
ATOM     12  C   UNL     1      -2.106 -11.554  14.642  0.00  0.00    +0.109 C 
ATOM     16  C   UNL     1      -2.955 -10.429  12.604  0.00  0.00    +0.302 C 
ATOM     32  H   UNL     1      -4.981 -10.456  12.071  0.00  0.00    +0.150 HD
ENDROOT
BRANCH   6  26
ATOM     26  C   UNL     1      -3.961  -9.354  10.607  0.00  0.00    +0.068 C 
ATOM     30  C   UNL     1      -5.037  -8.276  10.637  0.00  0.00    +0.027 C 
ATOM     31  C   UNL     1      -4.063 -10.200   9.345  0.00  0.00    +0.027 C 
ENDBRANCH   6  26
BRANCH   7  11
ATOM     11  C   UNL     1      -5.399  -9.953  15.433  0.00  0.00    +0.061 C 
BRANCH  11  14
ATOM      5  N   UNL     1      -7.018  -9.804  17.201  0.00  0.00    -0.287 NA
ATOM     14  C   UNL     1      -6.824  -9.851  15.925  0.00  0.00    +0.044 C 
ATOM     15  C   UNL     1      -7.922  -9.804  14.927  0.00  0.00    -0.001 A 
ATOM     18  C   UNL     1      -9.162  -9.329  15.375  0.00  0.00    -0.037 A 
ATOM     19  C   UNL     1      -9.292  -8.893  16.804  0.00  0.00    +0.059 C 
ATOM     20  C   UNL     1      -8.404  -9.767  17.680  0.00  0.00    +0.146 C 
ATOM     21  C   UNL     1      -7.753 -10.195  13.597  0.00  0.00    +0.014 A 
ATOM     22  C   UNL     1      -8.826 -10.099  12.710  0.00  0.00    -0.041 A 
ATOM     24  C   UNL     1     -10.226  -9.221  14.476  0.00  0.00    +0.004 A 
ATOM     25  C   UNL     1     -10.058  -9.611  13.146  0.00  0.00    +0.004 A 
BRANCH  22  23
ATOM     23  C   UNL     1      -8.655 -10.516  11.288  0.00  0.00    -0.013 C 
ATOM     27  C   UNL     1      -9.839 -11.417  10.817  0.00  0.00    +0.015 C 
ATOM     28  C   UNL     1      -7.339 -11.328  11.090  0.00  0.00    +0.015 C 
ATOM     29  C   UNL     1      -8.583  -9.346  10.250  0.00  0.00    +0.015 C 
ENDBRANCH  22  23
ENDBRANCH  11  14
ENDBRANCH   7  11
BRANCH   8  13
ATOM     13  C   UNL     1      -4.166 -11.214  17.919  0.00  0.00    +0.124 C 
BRANCH  13  17
ATOM      3  O   UNL     1      -3.389 -12.170  20.022  0.00  0.00    -0.251 OA
ATOM     17  C   UNL     1      -3.947 -12.294  18.942  0.00  0.00    +0.305 C 
BRANCH  17   2
ATOM      2  O   UNL     1      -4.469 -13.464  18.492  0.00  0.00    -0.481 OA
ATOM     33  H   UNL     1      -5.073 -13.327  17.732  0.00  0.00    +0.295 HD
ENDBRANCH  17   2
ENDBRANCH  13  17
ENDBRANCH   8  13
TORSDOF 7
ENDMDL
MODEL 5
REMARK VINA RESULT:      -6.0      3.172      7.536
REMARK  Name = 51136755
REMARK  12 active torsions:
REMARK  status: ('A' for Active; 'I' for Inactive)
REMARK    1  A    between atoms: O_2  and  C_17
REMARK    2  A    between atoms: N_6  and  C_26
REMARK    3  A    between atoms: C_7  and  C_11
REMARK    4  A    between atoms: C_8  and  C_13
REMARK    5  A    between atoms: C_11  and  C_14
REMARK    6  A    between atoms: C_13  and  C_17
REMARK    7  A    between atoms: C_22  and  C_23
REMARK    8  A    between atoms: C_23  and  C_27
REMARK    9  A    between atoms: C_23  and  C_28
REMARK   10  A    between atoms: C_23  and  C_29
REMARK   11  A    between atoms: C_26  and  C_30
REMARK   12  A    between atoms: C_26  and  C_31
REMARK                            x       y       z     vdW  Elec       q    Type
REMARK                         _______ _______ _______ _____ _____    ______ ____
ROOT
ATOM      1  O   UNL     1      -8.203 -10.999   8.873  0.00  0.00    -0.253 OA
ATOM      4  N   UNL     1      -7.612  -9.790  10.762  0.00  0.00    -0.285 N 
ATOM      6  N   UNL     1      -5.977 -10.612   9.265  0.00  0.00    -0.297 N 
ATOM      7  C   UNL     1      -6.743  -9.749  13.083  0.00  0.00    +0.016 C 
ATOM      8  C   UNL     1      -8.204  -9.624  13.590  0.00  0.00    +0.006 C 
ATOM      9  C   UNL     1      -9.210 -10.207  12.582  0.00  0.00    +0.023 C 
ATOM     10  C   UNL     1      -6.637  -9.161  11.666  0.00  0.00    +0.113 C 
ATOM     12  C   UNL     1      -9.003  -9.626  11.184  0.00  0.00    +0.109 C 
ATOM     16  C   UNL     1      -7.324 -10.498   9.583  0.00  0.00    +0.302 C 
ATOM     32  H   UNL     1      -5.263 -10.341   9.925  0.00  0.00    +0.150 HD
ENDROOT
BRANCH   6  26
ATOM     26  C   UNL     1      -5.522 -11.319   8.088  0.00  0.00    +0.068 C 
ATOM     30  C   UNL     1      -4.295 -12.159   8.416  0.00  0.00    +0.027 C 
ATOM     31  C   UNL     1      -5.235 -10.342   6.955  0.00  0.00    +0.027 C 
ENDBRANCH   6  26
BRANCH   7  11
ATOM     11  C   UNL     1      -6.193 -11.180  13.113  0.00  0.00    +0.061 C 
BRANCH  11  14
ATOM      5  N   UNL     1      -4.080 -11.148  11.971  0.00  0.00    -0.287 NA
ATOM     14  C   UNL     1      -4.683 -11.149  13.114  0.00  0.00    +0.044 C 
ATOM     15  C   UNL     1      -3.970 -11.115  14.416  0.00  0.00    -0.001 A 
ATOM     18  C   UNL     1      -2.631 -10.703  14.392  0.00  0.00    -0.037 A 
ATOM     19  C   UNL     1      -2.021 -10.315  13.079  0.00  0.00    +0.059 C 
ATOM     20  C   UNL     1      -2.613 -11.179  11.973  0.00  0.00    +0.146 C 
ATOM     21  C   UNL     1      -4.583 -11.459  15.623  0.00  0.00    +0.014 A 
ATOM     22  C   UNL     1      -3.856 -11.379  16.810  0.00  0.00    -0.041 A 
ATOM     24  C   UNL     1      -1.916 -10.610  15.588  0.00  0.00    +0.004 A 
ATOM     25  C   UNL     1      -2.527 -10.953  16.795  0.00  0.00    +0.004 A 
BRANCH  22  23
ATOM     23  C   UNL     1      -4.502 -11.746  18.105  0.00  0.00    -0.013 C 
ATOM     27  C   UNL     1      -5.405 -13.008  17.946  0.00  0.00    +0.015 C 
ATOM     28  C   UNL     1      -5.401 -10.588  18.636  0.00  0.00    +0.015 C 
ATOM     29  C   UNL     1      -3.518 -12.081  19.275  0.00  0.00    +0.015 C 
ENDBRANCH  22  23
ENDBRANCH  11  14
ENDBRANCH   7  11
BRANCH   8  13
ATOM     13  C   UNL     1      -8.413 -10.235  14.975  0.00  0.00    +0.124 C 
BRANCH  13  17
ATOM      3  O   UNL     1      -9.858  -8.703  16.203  0.00  0.00    -0.251 OA
ATOM     17  C   UNL     1      -8.754  -9.187  15.998  0.00  0.00    +0.305 C 
BRANCH  17   2
ATOM      2  O   UNL     1      -7.638  -8.838  16.687  0.00  0.00    -0.481 OA
ATOM     33  H   UNL     1      -6.883  -8.649  16.090  0.00  0.00    +0.295 HD
ENDBRANCH  17   2
ENDBRANCH  13  17
ENDBRANCH   8  13
TORSDOF 7
ENDMDL
MODEL 6
REMARK VINA RESULT:      -6.0     24.682     26.891
REMARK  Name = 51136755
REMARK  12 active torsions:
REMARK  status: ('A' for Active; 'I' for Inactive)
REMARK    1  A    between atoms: O_2  and  C_17
REMARK    2  A    between atoms: N_6  and  C_26
REMARK    3  A    between atoms: C_7  and  C_11
REMARK    4  A    between atoms: C_8  and  C_13
REMARK    5  A    between atoms: C_11  and  C_14
REMARK    6  A    between atoms: C_13  and  C_17
REMARK    7  A    between atoms: C_22  and  C_23
REMARK    8  A    between atoms: C_23  and  C_27
REMARK    9  A    between atoms: C_23  and  C_28
REMARK   10  A    between atoms: C_23  and  C_29
REMARK   11  A    between atoms: C_26  and  C_30
REMARK   12  A    between atoms: C_26  and  C_31
REMARK                            x       y       z     vdW  Elec       q    Type
REMARK                         _______ _______ _______ _____ _____    ______ ____
ROOT
ATOM      1  O   UNL     1       8.313  12.524   7.470  0.00  0.00    -0.253 OA
ATOM      4  N   UNL     1       9.511  10.676   6.742  0.00  0.00    -0.285 N 
ATOM      6  N   UNL     1       8.366  12.077   5.220  0.00  0.00    -0.297 N 
ATOM      7  C   UNL     1       9.535   8.332   5.937  0.00  0.00    +0.016 C 
ATOM      8  C   UNL     1       9.915   7.880   7.372  0.00  0.00    +0.006 C 
ATOM      9  C   UNL     1       9.445   8.893   8.432  0.00  0.00    +0.023 C 
ATOM     10  C   UNL     1      10.025   9.771   5.703  0.00  0.00    +0.113 C 
ATOM     12  C   UNL     1       9.913  10.309   8.100  0.00  0.00    +0.109 C 
ATOM     16  C   UNL     1       8.706  11.810   6.541  0.00  0.00    +0.302 C 
ATOM     32  H   UNL     1       8.556  11.407   4.490  0.00  0.00    +0.150 HD
ENDROOT
BRANCH   6  26
ATOM     26  C   UNL     1       7.536  13.203   4.854  0.00  0.00    +0.068 C 
ATOM     30  C   UNL     1       6.063  12.829   4.950  0.00  0.00    +0.027 C 
ATOM     31  C   UNL     1       7.890  13.696   3.457  0.00  0.00    +0.027 C 
ENDBRANCH   6  26
BRANCH   7  11
ATOM     11  C   UNL     1       8.040   8.216   5.621  0.00  0.00    +0.061 C 
BRANCH  11  14
ATOM      5  N   UNL     1       6.874   9.549   3.999  0.00  0.00    -0.287 NA
ATOM     14  C   UNL     1       7.781   8.652   4.198  0.00  0.00    +0.044 C 
ATOM     15  C   UNL     1       8.579   8.037   3.107  0.00  0.00    -0.001 A 
ATOM     18  C   UNL     1       8.598   8.714   1.881  0.00  0.00    -0.037 A 
ATOM     19  C   UNL     1       7.839  10.001   1.758  0.00  0.00    +0.059 C 
ATOM     20  C   UNL     1       6.580   9.927   2.612  0.00  0.00    +0.146 C 
ATOM     21  C   UNL     1       9.295   6.849   3.271  0.00  0.00    +0.014 A 
ATOM     22  C   UNL     1      10.042   6.345   2.206  0.00  0.00    -0.041 A 
ATOM     24  C   UNL     1       9.363   8.211   0.826  0.00  0.00    +0.004 A 
ATOM     25  C   UNL     1      10.080   7.024   0.988  0.00  0.00    +0.004 A 
BRANCH  22  23
ATOM     23  C   UNL     1      10.810   5.076   2.371  0.00  0.00    -0.013 C 
ATOM     27  C   UNL     1      10.598   4.469   3.793  0.00  0.00    +0.015 C 
ATOM     28  C   UNL     1      12.340   5.311   2.184  0.00  0.00    +0.015 C 
ATOM     29  C   UNL     1      10.438   3.932   1.370  0.00  0.00    +0.015 C 
ENDBRANCH  22  23
ENDBRANCH  11  14
ENDBRANCH   7  11
BRANCH   8  13
ATOM     13  C   UNL     1       9.417   6.475   7.710  0.00  0.00    +0.124 C 
BRANCH  13  17
ATOM      3  O   UNL     1      10.278   5.113   9.539  0.00  0.00    -0.251 OA
ATOM     17  C   UNL     1      10.447   5.691   8.476  0.00  0.00    +0.305 C 
BRANCH  17   2
ATOM      2  O   UNL     1      11.629   5.711   7.807  0.00  0.00    -0.481 OA
ATOM     33  H   UNL     1      11.928   6.626   7.621  0.00  0.00    +0.295 HD
ENDBRANCH  17   2
ENDBRANCH  13  17
ENDBRANCH   8  13
TORSDOF 7
ENDMDL
MODEL 7
REMARK VINA RESULT:      -6.0      2.044      3.032
REMARK  Name = 51136755
REMARK  12 active torsions:
REMARK  status: ('A' for Active; 'I' for Inactive)
REMARK    1  A    between atoms: O_2  and  C_17
REMARK    2  A    between atoms: N_6  and  C_26
REMARK    3  A    between atoms: C_7  and  C_11
REMARK    4  A    between atoms: C_8  and  C_13
REMARK    5  A    between atoms: C_11  and  C_14
REMARK    6  A    between atoms: C_13  and  C_17
REMARK    7  A    between atoms: C_22  and  C_23
REMARK    8  A    between atoms: C_23  and  C_27
REMARK    9  A    between atoms: C_23  and  C_28
REMARK   10  A    between atoms: C_23  and  C_29
REMARK   11  A    between atoms: C_26  and  C_30
REMARK   12  A    between atoms: C_26  and  C_31
REMARK                            x       y       z     vdW  Elec       q    Type
REMARK                         _______ _______ _______ _____ _____    ______ ____
ROOT
ATOM      1  O   UNL     1      -8.752 -11.059  18.921  0.00  0.00    -0.253 OA
ATOM      4  N   UNL     1      -6.923 -10.089  17.875  0.00  0.00    -0.285 N 
ATOM      6  N   UNL     1      -9.125  -9.715  17.100  0.00  0.00    -0.297 N 
ATOM      7  C   UNL     1      -5.307 -10.062  15.995  0.00  0.00    +0.016 C 
ATOM      8  C   UNL     1      -4.275 -10.761  16.918  0.00  0.00    +0.006 C 
ATOM      9  C   UNL     1      -4.962 -11.562  18.039  0.00  0.00    +0.023 C 
ATOM     10  C   UNL     1      -6.293  -9.245  16.849  0.00  0.00    +0.113 C 
ATOM     12  C   UNL     1      -5.972 -10.706  18.801  0.00  0.00    +0.109 C 
ATOM     16  C   UNL     1      -8.297 -10.335  18.028  0.00  0.00    +0.302 C 
ATOM     32  H   UNL     1      -8.740  -9.258  16.286  0.00  0.00    +0.150 HD
ENDROOT
BRANCH   6  26
ATOM     26  C   UNL     1     -10.561  -9.878  17.121  0.00  0.00    +0.068 C 
ATOM     30  C   UNL     1     -11.046 -10.478  15.807  0.00  0.00    +0.027 C 
ATOM     31  C   UNL     1     -11.246  -8.548  17.407  0.00  0.00    +0.027 C 
ENDBRANCH   6  26
BRANCH   7  11
ATOM     11  C   UNL     1      -6.067 -11.019  15.069  0.00  0.00    +0.061 C 
BRANCH  11  14
ATOM      5  N   UNL     1      -6.438  -9.575  13.186  0.00  0.00    -0.287 NA
ATOM     14  C   UNL     1      -5.837 -10.629  13.628  0.00  0.00    +0.044 C 
ATOM     15  C   UNL     1      -4.933 -11.466  12.797  0.00  0.00    -0.001 A 
ATOM     18  C   UNL     1      -4.441 -10.885  11.621  0.00  0.00    -0.037 A 
ATOM     19  C   UNL     1      -4.839  -9.478  11.292  0.00  0.00    +0.059 C 
ATOM     20  C   UNL     1      -6.264  -9.231  11.771  0.00  0.00    +0.146 C 
ATOM     21  C   UNL     1      -4.565 -12.764  13.154  0.00  0.00    +0.014 A 
ATOM     22  C   UNL     1      -3.692 -13.480  12.334  0.00  0.00    -0.041 A 
ATOM     24  C   UNL     1      -3.554 -11.604  10.816  0.00  0.00    +0.004 A 
ATOM     25  C   UNL     1      -3.185 -12.903  11.171  0.00  0.00    +0.004 A 
BRANCH  22  23
ATOM     23  C   UNL     1      -3.294 -14.870  12.706  0.00  0.00    -0.013 C 
ATOM     27  C   UNL     1      -2.630 -14.908  14.118  0.00  0.00    +0.015 C 
ATOM     28  C   UNL     1      -2.269 -15.457  11.689  0.00  0.00    +0.015 C 
ATOM     29  C   UNL     1      -4.463 -15.909  12.767  0.00  0.00    +0.015 C 
ENDBRANCH  22  23
ENDBRANCH  11  14
ENDBRANCH   7  11
BRANCH   8  13
ATOM     13  C   UNL     1      -3.286 -11.641  16.154  0.00  0.00    +0.124 C 
BRANCH  13  17
ATOM      3  O   UNL     1      -2.005 -10.242  14.624  0.00  0.00    -0.251 OA
ATOM     17  C   UNL     1      -2.097 -10.855  15.677  0.00  0.00    +0.305 C 
BRANCH  17   2
ATOM      2  O   UNL     1      -1.105 -10.917  16.603  0.00  0.00    -0.481 OA
ATOM     33  H   UNL     1      -1.148 -10.171  17.236  0.00  0.00    +0.295 HD
ENDBRANCH  17   2
ENDBRANCH  13  17
ENDBRANCH   8  13
TORSDOF 7
ENDMDL
MODEL 8
REMARK VINA RESULT:      -5.9     24.509     27.726
REMARK  Name = 51136755
REMARK  12 active torsions:
REMARK  status: ('A' for Active; 'I' for Inactive)
REMARK    1  A    between atoms: O_2  and  C_17
REMARK    2  A    between atoms: N_6  and  C_26
REMARK    3  A    between atoms: C_7  and  C_11
REMARK    4  A    between atoms: C_8  and  C_13
REMARK    5  A    between atoms: C_11  and  C_14
REMARK    6  A    between atoms: C_13  and  C_17
REMARK    7  A    between atoms: C_22  and  C_23
REMARK    8  A    between atoms: C_23  and  C_27
REMARK    9  A    between atoms: C_23  and  C_28
REMARK   10  A    between atoms: C_23  and  C_29
REMARK   11  A    between atoms: C_26  and  C_30
REMARK   12  A    between atoms: C_26  and  C_31
REMARK                            x       y       z     vdW  Elec       q    Type
REMARK                         _______ _______ _______ _____ _____    ______ ____
ROOT
ATOM      1  O   UNL     1       9.819   9.408   0.625  0.00  0.00    -0.253 OA
ATOM      4  N   UNL     1      10.351   7.174   0.951  0.00  0.00    -0.285 N 
ATOM      6  N   UNL     1       8.706   8.252   2.264  0.00  0.00    -0.297 N 
ATOM      7  C   UNL     1      11.526   5.431   2.265  0.00  0.00    +0.016 C 
ATOM      8  C   UNL     1      12.649   5.431   1.195  0.00  0.00    +0.006 C 
ATOM      9  C   UNL     1      12.722   6.774   0.445  0.00  0.00    +0.023 C 
ATOM     10  C   UNL     1      10.200   5.873   1.622  0.00  0.00    +0.113 C 
ATOM     12  C   UNL     1      11.358   7.181  -0.110  0.00  0.00    +0.109 C 
ATOM     16  C   UNL     1       9.636   8.349   1.236  0.00  0.00    +0.302 C 
ATOM     32  H   UNL     1       8.674   7.438   2.859  0.00  0.00    +0.150 HD
ENDROOT
BRANCH   6  26
ATOM     26  C   UNL     1       7.900   9.378   2.679  0.00  0.00    +0.068 C 
ATOM     30  C   UNL     1       7.384   9.168   4.096  0.00  0.00    +0.027 C 
ATOM     31  C   UNL     1       6.752   9.603   1.703  0.00  0.00    +0.027 C 
ENDBRANCH   6  26
BRANCH   7  11
ATOM     11  C   UNL     1      11.836   6.289   3.497  0.00  0.00    +0.061 C 
BRANCH  11  14
ATOM      5  N   UNL     1      10.506   4.690   4.697  0.00  0.00    -0.287 NA
ATOM     14  C   UNL     1      10.910   5.914   4.629  0.00  0.00    +0.044 C 
ATOM     15  C   UNL     1      10.515   6.962   5.605  0.00  0.00    -0.001 A 
ATOM     18  C   UNL     1       9.991   6.521   6.827  0.00  0.00    -0.037 A 
ATOM     19  C   UNL     1       9.879   5.046   7.072  0.00  0.00    +0.059 C 
ATOM     20  C   UNL     1       9.557   4.341   5.761  0.00  0.00    +0.146 C 
ATOM     21  C   UNL     1      10.661   8.327   5.349  0.00  0.00    +0.014 A 
ATOM     22  C   UNL     1      10.291   9.253   6.326  0.00  0.00    -0.041 A 
ATOM     24  C   UNL     1       9.639   7.455   7.805  0.00  0.00    +0.004 A 
ATOM     25  C   UNL     1       9.785   8.819   7.551  0.00  0.00    +0.004 A 
BRANCH  22  23
ATOM     23  C   UNL     1      10.442  10.714   6.061  0.00  0.00    -0.013 C 
ATOM     27  C   UNL     1       9.152  11.496   6.460  0.00  0.00    +0.015 C 
ATOM     28  C   UNL     1      10.710  10.990   4.550  0.00  0.00    +0.015 C 
ATOM     29  C   UNL     1      11.611  11.418   6.827  0.00  0.00    +0.015 C 
ENDBRANCH  22  23
ENDBRANCH  11  14
ENDBRANCH   7  11
BRANCH   8  13
ATOM     13  C   UNL     1      14.018   5.054   1.761  0.00  0.00    +0.124 C 
BRANCH  13  17
ATOM      3  O   UNL     1      13.475   2.727   1.284  0.00  0.00    -0.251 OA
ATOM     17  C   UNL     1      14.241   3.568   1.729  0.00  0.00    +0.305 C 
BRANCH  17   2
ATOM      2  O   UNL     1      15.447   3.274   2.279  0.00  0.00    -0.481 OA
ATOM     33  H   UNL     1      15.497   3.549   3.219  0.00  0.00    +0.295 HD
ENDBRANCH  17   2
ENDBRANCH  13  17
ENDBRANCH   8  13
TORSDOF 7
ENDMDL
MODEL 9
REMARK VINA RESULT:      -5.9      1.732      4.155
REMARK  Name = 51136755
REMARK  12 active torsions:
REMARK  status: ('A' for Active; 'I' for Inactive)
REMARK    1  A    between atoms: O_2  and  C_17
REMARK    2  A    between atoms: N_6  and  C_26
REMARK    3  A    between atoms: C_7  and  C_11
REMARK    4  A    between atoms: C_8  and  C_13
REMARK    5  A    between atoms: C_11  and  C_14
REMARK    6  A    between atoms: C_13  and  C_17
REMARK    7  A    between atoms: C_22  and  C_23
REMARK    8  A    between atoms: C_23  and  C_27
REMARK    9  A    between atoms: C_23  and  C_28
REMARK   10  A    between atoms: C_23  and  C_29
REMARK   11  A    between atoms: C_26  and  C_30
REMARK   12  A    between atoms: C_26  and  C_31
REMARK                            x       y       z     vdW  Elec       q    Type
REMARK                         _______ _______ _______ _____ _____    ______ ____
ROOT
ATOM      1  O   UNL     1      -7.533 -12.179  20.414  0.00  0.00    -0.253 OA
ATOM      4  N   UNL     1      -6.493 -10.800  18.866  0.00  0.00    -0.285 N 
ATOM      6  N   UNL     1      -8.849 -10.945  18.997  0.00  0.00    -0.297 N 
ATOM      7  C   UNL     1      -5.763 -10.380  16.535  0.00  0.00    +0.016 C 
ATOM      8  C   UNL     1      -4.333 -10.826  16.940  0.00  0.00    +0.006 C 
ATOM      9  C   UNL     1      -4.352 -11.774  18.153  0.00  0.00    +0.023 C 
ATOM     10  C   UNL     1      -6.498  -9.824  17.766  0.00  0.00    +0.113 C 
ATOM     12  C   UNL     1      -5.154 -11.185  19.312  0.00  0.00    +0.109 C 
ATOM     16  C   UNL     1      -7.619 -11.361  19.491  0.00  0.00    +0.302 C 
ATOM     32  H   UNL     1      -8.911 -10.405  18.147  0.00  0.00    +0.150 HD
ENDROOT
BRANCH   6  26
ATOM     26  C   UNL     1     -10.098 -11.440  19.531  0.00  0.00    +0.068 C 
ATOM     30  C   UNL     1     -10.873 -12.192  18.457  0.00  0.00    +0.027 C 
ATOM     31  C   UNL     1     -10.924 -10.297  20.109  0.00  0.00    +0.027 C 
ENDBRANCH   6  26
BRANCH   7  11
ATOM     11  C   UNL     1      -6.594 -11.481  15.867  0.00  0.00    +0.061 C 
BRANCH  11  14
ATOM      5  N   UNL     1      -6.222 -11.381  13.496  0.00  0.00    -0.287 NA
ATOM     14  C   UNL     1      -6.995 -11.049  14.476  0.00  0.00    +0.044 C 
ATOM     15  C   UNL     1      -8.250 -10.274  14.303  0.00  0.00    -0.001 A 
ATOM     18  C   UNL     1      -8.788 -10.225  13.010  0.00  0.00    -0.037 A 
ATOM     19  C   UNL     1      -8.081 -10.957  11.909  0.00  0.00    +0.059 C 
ATOM     20  C   UNL     1      -6.579 -10.908  12.154  0.00  0.00    +0.146 C 
ATOM     21  C   UNL     1      -8.892  -9.629  15.362  0.00  0.00    +0.014 A 
ATOM     22  C   UNL     1     -10.082  -8.940  15.127  0.00  0.00    -0.041 A 
ATOM     24  C   UNL     1      -9.989  -9.547  12.788  0.00  0.00    +0.004 A 
ATOM     25  C   UNL     1     -10.632  -8.901  13.845  0.00  0.00    +0.004 A 
BRANCH  22  23
ATOM     23  C   UNL     1     -10.775  -8.245  16.252  0.00  0.00    -0.013 C 
ATOM     27  C   UNL     1      -9.814  -8.038  17.464  0.00  0.00    +0.015 C 
ATOM     28  C   UNL     1     -11.999  -9.069  16.757  0.00  0.00    +0.015 C 
ATOM     29  C   UNL     1     -11.338  -6.824  15.917  0.00  0.00    +0.015 C 
ENDBRANCH  22  23
ENDBRANCH  11  14
ENDBRANCH   7  11
BRANCH   8  13
ATOM     13  C   UNL     1      -3.547 -11.444  15.784  0.00  0.00    +0.124 C 
BRANCH  13  17
ATOM      3  O   UNL     1      -1.820 -10.140  14.662  0.00  0.00    -0.251 OA
ATOM     17  C   UNL     1      -2.200 -10.797  15.620  0.00  0.00    +0.305 C 
BRANCH  17   2
ATOM      2  O   UNL     1      -1.434 -11.047  16.714  0.00  0.00    -0.481 OA
ATOM     33  H   UNL     1      -1.695 -10.490  17.478  0.00  0.00    +0.295 HD
ENDBRANCH  17   2
ENDBRANCH  13  17
ENDBRANCH   8  13
TORSDOF 7
ENDMDL
MODEL 10
REMARK VINA RESULT:      -5.8      2.433      4.163
REMARK  Name = 51136755
REMARK  12 active torsions:
REMARK  status: ('A' for Active; 'I' for Inactive)
REMARK    1  A    between atoms: O_2  and  C_17
REMARK    2  A    between atoms: N_6  and  C_26
REMARK    3  A    between atoms: C_7  and  C_11
REMARK    4  A    between atoms: C_8  and  C_13
REMARK    5  A    between atoms: C_11  and  C_14
REMARK    6  A    between atoms: C_13  and  C_17
REMARK    7  A    between atoms: C_22  and  C_23
REMARK    8  A    between atoms: C_23  and  C_27
REMARK    9  A    between atoms: C_23  and  C_28
REMARK   10  A    between atoms: C_23  and  C_29
REMARK   11  A    between atoms: C_26  and  C_30
REMARK   12  A    between atoms: C_26  and  C_31
REMARK                            x       y       z     vdW  Elec       q    Type
REMARK                         _______ _______ _______ _____ _____    ______ ____
ROOT
ATOM      1  O   UNL     1     -10.142 -12.232  15.896  0.00  0.00    -0.253 OA
ATOM      4  N   UNL     1      -8.009 -12.977  16.417  0.00  0.00    -0.285 N 
ATOM      6  N   UNL     1      -8.808 -10.891  17.193  0.00  0.00    -0.297 N 
ATOM      7  C   UNL     1      -5.564 -12.893  16.019  0.00  0.00    +0.016 C 
ATOM      8  C   UNL     1      -5.693 -14.186  15.171  0.00  0.00    +0.006 C 
ATOM      9  C   UNL     1      -7.108 -14.346  14.585  0.00  0.00    +0.023 C 
ATOM     10  C   UNL     1      -6.693 -12.845  17.061  0.00  0.00    +0.113 C 
ATOM     12  C   UNL     1      -8.180 -14.221  15.667  0.00  0.00    +0.109 C 
ATOM     16  C   UNL     1      -9.061 -12.048  16.466  0.00  0.00    +0.302 C 
ATOM     32  H   UNL     1      -7.877 -10.678  17.520  0.00  0.00    +0.150 HD
ENDROOT
BRANCH   6  26
ATOM     26  C   UNL     1      -9.789  -9.838  17.328  0.00  0.00    +0.068 C 
ATOM     30  C   UNL     1      -9.137  -8.477  17.125  0.00  0.00    +0.027 C 
ATOM     31  C   UNL     1     -10.481  -9.922  18.683  0.00  0.00    +0.027 C 
ENDBRANCH   6  26
BRANCH   7  11
ATOM     11  C   UNL     1      -5.543 -11.603  15.191  0.00  0.00    +0.061 C 
BRANCH  11  14
ATOM      5  N   UNL     1      -3.434 -11.007  16.173  0.00  0.00    -0.287 NA
ATOM     14  C   UNL     1      -4.129 -11.083  15.087  0.00  0.00    +0.044 C 
ATOM     15  C   UNL     1      -3.607 -10.693  13.752  0.00  0.00    -0.001 A 
ATOM     18  C   UNL     1      -2.216 -10.590  13.623  0.00  0.00    -0.037 A 
ATOM     19  C   UNL     1      -1.359 -10.890  14.817  0.00  0.00    +0.059 C 
ATOM     20  C   UNL     1      -2.082 -10.444  16.081  0.00  0.00    +0.146 C 
ATOM     21  C   UNL     1      -4.440 -10.449  12.657  0.00  0.00    +0.014 A 
ATOM     22  C   UNL     1      -3.874 -10.111  11.427  0.00  0.00    -0.041 A 
ATOM     24  C   UNL     1      -1.660 -10.268  12.383  0.00  0.00    +0.004 A 
ATOM     25  C   UNL     1      -2.489 -10.023  11.288  0.00  0.00    +0.004 A 
BRANCH  22  23
ATOM     23  C   UNL     1      -4.756  -9.847  10.252  0.00  0.00    -0.013 C 
ATOM     27  C   UNL     1      -4.046  -8.927   9.210  0.00  0.00    +0.015 C 
ATOM     28  C   UNL     1      -6.076  -9.137  10.683  0.00  0.00    +0.015 C 
ATOM     29  C   UNL     1      -5.205 -11.114   9.451  0.00  0.00    +0.015 C 
ENDBRANCH  22  23
ENDBRANCH  11  14
ENDBRANCH   7  11
BRANCH   8  13
ATOM     13  C   UNL     1      -4.638 -14.290  14.070  0.00  0.00    +0.124 C 
BRANCH  13  17
ATOM      3  O   UNL     1      -2.211 -14.163  14.255  0.00  0.00    -0.251 OA
ATOM     17  C   UNL     1      -3.282 -14.618  14.630  0.00  0.00    +0.305 C 
BRANCH  17   2
ATOM      2  O   UNL     1      -3.408 -15.516  15.640  0.00  0.00    -0.481 OA
ATOM     33  H   UNL     1      -2.855 -16.313  15.492  0.00  0.00    +0.295 HD
ENDBRANCH  17   2
ENDBRANCH  13  17
ENDBRANCH   8  13
TORSDOF 7
ENDMDL
