MODEL 1
REMARK VINA RESULT:      -7.4      0.000      0.000
REMARK  Name = 38345773
REMARK  7 active torsions:
REMARK  status: ('A' for Active; 'I' for Inactive)
REMARK    1  A    between atoms: O_3  and  C_22
REMARK    2  A    between atoms: O_3  and  C_23
REMARK    3  A    between atoms: N_4  and  C_14
REMARK    4  A    between atoms: N_4  and  C_19
REMARK    5  A    between atoms: N_5  and  C_16
REMARK    6  A    between atoms: N_9  and  C_28
REMARK    7  A    between atoms: C_15  and  C_19
REMARK                            x       y       z     vdW  Elec       q    Type
REMARK                         _______ _______ _______ _____ _____    ______ ____
ROOT
ATOM      5  N   UNL     1      13.169   8.605  19.416  0.00  0.00    -0.187 N 
ATOM      6  N   UNL     1      12.927   9.652  18.615  0.00  0.00    -0.041 NA
ATOM      7  N   UNL     1      14.309   8.219  17.611  0.00  0.00    -0.071 NA
ATOM      8  N   UNL     1      13.626   9.411  17.513  0.00  0.00    -0.020 NA
ATOM     22  C   UNL     1      14.011   7.737  18.795  0.00  0.00    +0.342 A 
ENDROOT
BRANCH   5  16
ATOM      1  O   UNL     1      10.562   9.256  21.975  0.00  0.00    -0.370 OA
ATOM      2  O   UNL     1      13.548  10.002  22.361  0.00  0.00    -0.370 OA
ATOM     12  C   UNL     1      12.439  10.697  21.766  0.00  0.00    +0.168 C 
ATOM     13  C   UNL     1      11.591   9.663  21.052  0.00  0.00    +0.175 C 
ATOM     14  C   UNL     1      11.528  11.250  22.840  0.00  0.00    +0.111 C 
ATOM     16  C   UNL     1      12.541   8.506  20.793  0.00  0.00    +0.171 C 
ATOM     20  C   UNL     1      10.669  10.040  23.173  0.00  0.00    +0.181 C 
ATOM     21  C   UNL     1      13.507   8.623  21.969  0.00  0.00    +0.190 C 
BRANCH  14   4
ATOM      4  N   UNL     1      10.688  12.317  22.303  0.00  0.00    -0.309 NA
ATOM     31  H   UNL     1       9.709  12.116  22.506  0.00  0.00    +0.122 HD
BRANCH   4  19
ATOM     19  C   UNL     1      11.028  13.595  22.909  0.00  0.00    +0.084 C 
BRANCH  19  15
ATOM     15  C   UNL     1      10.140  13.900  24.070  0.00  0.00    +0.003 C 
ATOM     17  C   UNL     1      10.568  14.933  25.071  0.00  0.00    +0.005 C 
ATOM     18  C   UNL     1      10.563  13.480  25.447  0.00  0.00    +0.005 C 
ENDBRANCH  19  15
ENDBRANCH   4  19
ENDBRANCH  14   4
ENDBRANCH   5  16
BRANCH  22   3
ATOM      3  O   UNL     1      14.444   6.605  19.317  0.00  0.00    -0.423 OA
BRANCH   3  23
ATOM     23  C   UNL     1      15.810   6.462  19.609  0.00  0.00    +0.132 A 
ATOM     24  C   UNL     1      16.652   5.813  18.705  0.00  0.00    +0.048 A 
ATOM     25  C   UNL     1      16.326   6.971  20.802  0.00  0.00    +0.048 A 
ATOM     26  C   UNL     1      18.010   5.673  18.994  0.00  0.00    +0.031 A 
ATOM     27  C   UNL     1      17.683   6.830  21.090  0.00  0.00    +0.031 A 
ATOM     28  C   UNL     1      18.525   6.181  20.187  0.00  0.00    +0.067 A 
BRANCH  28   9
ATOM      9  N   UNL     1      19.871   6.043  20.473  0.00  0.00    -0.220 N 
ATOM     10  N   UNL     1      20.478   4.848  20.459  0.00  0.00    -0.154 NA
ATOM     11  N   UNL     1      21.937   6.524  21.001  0.00  0.00    -0.222 NA
ATOM     29  C   UNL     1      20.745   7.035  20.796  0.00  0.00    +0.225 A 
ATOM     30  C   UNL     1      21.726   5.193  20.785  0.00  0.00    +0.245 A 
ENDBRANCH  28   9
ENDBRANCH   3  23
ENDBRANCH  22   3
TORSDOF 7
ENDMDL
MODEL 2
REMARK VINA RESULT:      -6.8      3.620      6.683
REMARK  Name = 38345773
REMARK  7 active torsions:
REMARK  status: ('A' for Active; 'I' for Inactive)
REMARK    1  A    between atoms: O_3  and  C_22
REMARK    2  A    between atoms: O_3  and  C_23
REMARK    3  A    between atoms: N_4  and  C_14
REMARK    4  A    between atoms: N_4  and  C_19
REMARK    5  A    between atoms: N_5  and  C_16
REMARK    6  A    between atoms: N_9  and  C_28
REMARK    7  A    between atoms: C_15  and  C_19
REMARK                            x       y       z     vdW  Elec       q    Type
REMARK                         _______ _______ _______ _____ _____    ______ ____
ROOT
ATOM      5  N   UNL     1      13.442   9.707  16.440  0.00  0.00    -0.187 N 
ATOM      6  N   UNL     1      13.822   8.750  15.583  0.00  0.00    -0.041 NA
ATOM      7  N   UNL     1      14.974  10.621  15.207  0.00  0.00    -0.071 NA
ATOM      8  N   UNL     1      14.759   9.313  14.831  0.00  0.00    -0.020 NA
ATOM     22  C   UNL     1      14.149  10.843  16.204  0.00  0.00    +0.342 A 
ENDROOT
BRANCH   5  16
ATOM      1  O   UNL     1      12.153   9.188  19.881  0.00  0.00    -0.370 OA
ATOM      2  O   UNL     1      11.735   7.147  17.583  0.00  0.00    -0.370 OA
ATOM     12  C   UNL     1      12.793   7.337  18.538  0.00  0.00    +0.168 C 
ATOM     13  C   UNL     1      12.955   8.831  18.739  0.00  0.00    +0.175 C 
ATOM     14  C   UNL     1      12.374   6.820  19.897  0.00  0.00    +0.111 C 
ATOM     16  C   UNL     1      12.369   9.449  17.481  0.00  0.00    +0.171 C 
ATOM     20  C   UNL     1      11.585   7.997  20.448  0.00  0.00    +0.181 C 
ATOM     21  C   UNL     1      11.305   8.425  17.093  0.00  0.00    +0.190 C 
BRANCH  14   4
ATOM      4  N   UNL     1      13.544   6.575  20.736  0.00  0.00    -0.309 NA
ATOM     31  H   UNL     1      13.460   5.660  21.179  0.00  0.00    +0.122 HD
BRANCH   4  19
ATOM     19  C   UNL     1      14.762   6.588  19.940  0.00  0.00    +0.084 C 
BRANCH  19  15
ATOM     15  C   UNL     1      15.976   6.693  20.805  0.00  0.00    +0.003 C 
ATOM     17  C   UNL     1      16.860   7.900  20.685  0.00  0.00    +0.005 C 
ATOM     18  C   UNL     1      17.334   6.569  20.179  0.00  0.00    +0.005 C 
ENDBRANCH  19  15
ENDBRANCH   4  19
ENDBRANCH  14   4
ENDBRANCH   5  16
BRANCH  22   3
ATOM      3  O   UNL     1      14.012  11.969  16.879  0.00  0.00    -0.423 OA
BRANCH   3  23
ATOM     23  C   UNL     1      14.269  11.977  18.260  0.00  0.00    +0.132 A 
ATOM     24  C   UNL     1      13.325  12.503  19.141  0.00  0.00    +0.048 A 
ATOM     25  C   UNL     1      15.467  11.455  18.749  0.00  0.00    +0.048 A 
ATOM     26  C   UNL     1      13.579  12.510  20.513  0.00  0.00    +0.031 A 
ATOM     27  C   UNL     1      15.721  11.463  20.120  0.00  0.00    +0.031 A 
ATOM     28  C   UNL     1      14.778  11.990  21.003  0.00  0.00    +0.067 A 
BRANCH  28   9
ATOM      9  N   UNL     1      15.029  11.994  22.362  0.00  0.00    -0.220 N 
ATOM     10  N   UNL     1      14.100  11.621  23.254  0.00  0.00    -0.154 NA
ATOM     11  N   UNL     1      16.051  12.234  24.280  0.00  0.00    -0.222 NA
ATOM     29  C   UNL     1      16.186  12.357  22.979  0.00  0.00    +0.225 A 
ATOM     30  C   UNL     1      14.768  11.784  24.399  0.00  0.00    +0.245 A 
ENDBRANCH  28   9
ENDBRANCH   3  23
ENDBRANCH  22   3
TORSDOF 7
ENDMDL
MODEL 3
REMARK VINA RESULT:      -6.7     27.477     29.616
REMARK  Name = 38345773
REMARK  7 active torsions:
REMARK  status: ('A' for Active; 'I' for Inactive)
REMARK    1  A    between atoms: O_3  and  C_22
REMARK    2  A    between atoms: O_3  and  C_23
REMARK    3  A    between atoms: N_4  and  C_14
REMARK    4  A    between atoms: N_4  and  C_19
REMARK    5  A    between atoms: N_5  and  C_16
REMARK    6  A    between atoms: N_9  and  C_28
REMARK    7  A    between atoms: C_15  and  C_19
REMARK                            x       y       z     vdW  Elec       q    Type
REMARK                         _______ _______ _______ _____ _____    ______ ____
ROOT
ATOM      5  N   UNL     1      -2.379 -10.404  11.767  0.00  0.00    -0.187 N 
ATOM      6  N   UNL     1      -1.144  -9.891  11.850  0.00  0.00    -0.041 NA
ATOM      7  N   UNL     1      -2.274  -8.913  10.196  0.00  0.00    -0.071 NA
ATOM      8  N   UNL     1      -1.084  -8.980  10.887  0.00  0.00    -0.020 NA
ATOM     22  C   UNL     1      -3.060  -9.802  10.757  0.00  0.00    +0.342 A 
ENDROOT
BRANCH   5  16
ATOM      1  O   UNL     1      -4.624 -11.924  14.301  0.00  0.00    -0.370 OA
ATOM      2  O   UNL     1      -1.578 -11.537  14.741  0.00  0.00    -0.370 OA
ATOM     12  C   UNL     1      -2.711 -10.683  14.968  0.00  0.00    +0.168 C 
ATOM     13  C   UNL     1      -3.692 -10.927  13.839  0.00  0.00    +0.175 C 
ATOM     14  C   UNL     1      -3.457 -11.118  16.211  0.00  0.00    +0.111 C 
ATOM     16  C   UNL     1      -2.843 -11.495  12.714  0.00  0.00    +0.171 C 
ATOM     20  C   UNL     1      -4.333 -12.238  15.672  0.00  0.00    +0.181 C 
ATOM     21  C   UNL     1      -1.738 -12.213  13.486  0.00  0.00    +0.190 C 
BRANCH  14   4
ATOM      4  N   UNL     1      -4.297 -10.034  16.712  0.00  0.00    -0.309 NA
ATOM     31  H   UNL     1      -4.580  -9.434  15.936  0.00  0.00    +0.122 HD
BRANCH   4  19
ATOM     19  C   UNL     1      -5.498 -10.561  17.342  0.00  0.00    +0.084 C 
BRANCH  19  15
ATOM     15  C   UNL     1      -5.280 -10.818  18.798  0.00  0.00    +0.003 C 
ATOM     17  C   UNL     1      -6.139 -11.827  19.502  0.00  0.00    +0.005 C 
ATOM     18  C   UNL     1      -6.313 -10.364  19.786  0.00  0.00    +0.005 C 
ENDBRANCH  19  15
ENDBRANCH   4  19
ENDBRANCH  14   4
ENDBRANCH   5  16
BRANCH  22   3
ATOM      3  O   UNL     1      -4.304 -10.081  10.416  0.00  0.00    -0.423 OA
BRANCH   3  23
ATOM     23  C   UNL     1      -4.587 -10.438   9.088  0.00  0.00    +0.132 A 
ATOM     24  C   UNL     1      -5.260  -9.544   8.254  0.00  0.00    +0.048 A 
ATOM     25  C   UNL     1      -4.194 -11.686   8.601  0.00  0.00    +0.048 A 
ATOM     26  C   UNL     1      -5.540  -9.898   6.934  0.00  0.00    +0.031 A 
ATOM     27  C   UNL     1      -4.475 -12.039   7.282  0.00  0.00    +0.031 A 
ATOM     28  C   UNL     1      -5.148 -11.146   6.448  0.00  0.00    +0.067 A 
BRANCH  28   9
ATOM      9  N   UNL     1      -5.424 -11.496   5.139  0.00  0.00    -0.220 N 
ATOM     10  N   UNL     1      -4.594 -12.270   4.424  0.00  0.00    -0.154 NA
ATOM     11  N   UNL     1      -6.429 -11.654   3.205  0.00  0.00    -0.222 NA
ATOM     29  C   UNL     1      -6.512 -11.134   4.407  0.00  0.00    +0.225 A 
ATOM     30  C   UNL     1      -5.248 -12.336   3.261  0.00  0.00    +0.245 A 
ENDBRANCH  28   9
ENDBRANCH   3  23
ENDBRANCH  22   3
TORSDOF 7
ENDMDL
MODEL 4
REMARK VINA RESULT:      -6.6      4.511      7.862
REMARK  Name = 38345773
REMARK  7 active torsions:
REMARK  status: ('A' for Active; 'I' for Inactive)
REMARK    1  A    between atoms: O_3  and  C_22
REMARK    2  A    between atoms: O_3  and  C_23
REMARK    3  A    between atoms: N_4  and  C_14
REMARK    4  A    between atoms: N_4  and  C_19
REMARK    5  A    between atoms: N_5  and  C_16
REMARK    6  A    between atoms: N_9  and  C_28
REMARK    7  A    between atoms: C_15  and  C_19
REMARK                            x       y       z     vdW  Elec       q    Type
REMARK                         _______ _______ _______ _____ _____    ______ ____
ROOT
ATOM      5  N   UNL     1      12.184   9.093  18.404  0.00  0.00    -0.187 N 
ATOM      6  N   UNL     1      11.381   8.064  18.103  0.00  0.00    -0.041 NA
ATOM      7  N   UNL     1      12.263   8.920  16.243  0.00  0.00    -0.071 NA
ATOM      8  N   UNL     1      11.432   7.962  16.781  0.00  0.00    -0.020 NA
ATOM     22  C   UNL     1      12.718   9.607  17.265  0.00  0.00    +0.342 A 
ENDROOT
BRANCH   5  16
ATOM      1  O   UNL     1      14.180  10.290  21.294  0.00  0.00    -0.370 OA
ATOM      2  O   UNL     1      12.499   7.684  21.351  0.00  0.00    -0.370 OA
ATOM     12  C   UNL     1      13.845   7.966  20.935  0.00  0.00    +0.168 C 
ATOM     13  C   UNL     1      13.836   9.331  20.276  0.00  0.00    +0.175 C 
ATOM     14  C   UNL     1      14.743   8.140  22.140  0.00  0.00    +0.111 C 
ATOM     16  C   UNL     1      12.395   9.532  19.840  0.00  0.00    +0.171 C 
ATOM     20  C   UNL     1      14.489   9.593  22.510  0.00  0.00    +0.181 C 
ATOM     21  C   UNL     1      11.633   8.732  20.894  0.00  0.00    +0.190 C 
BRANCH  14   4
ATOM      4  N   UNL     1      16.144   7.965  21.768  0.00  0.00    -0.309 NA
ATOM     31  H   UNL     1      16.728   8.007  22.603  0.00  0.00    +0.122 HD
BRANCH   4  19
ATOM     19  C   UNL     1      16.350   6.672  21.132  0.00  0.00    +0.084 C 
BRANCH  19  15
ATOM     15  C   UNL     1      17.307   6.775  19.989  0.00  0.00    +0.003 C 
ATOM     17  C   UNL     1      17.273   5.735  18.908  0.00  0.00    +0.005 C 
ATOM     18  C   UNL     1      18.421   5.777  19.873  0.00  0.00    +0.005 C 
ENDBRANCH  19  15
ENDBRANCH   4  19
ENDBRANCH  14   4
ENDBRANCH   5  16
BRANCH  22   3
ATOM      3  O   UNL     1      13.552  10.629  17.219  0.00  0.00    -0.423 OA
BRANCH   3  23
ATOM     23  C   UNL     1      14.086  11.022  15.981  0.00  0.00    +0.132 A 
ATOM     24  C   UNL     1      15.160  10.322  15.431  0.00  0.00    +0.048 A 
ATOM     25  C   UNL     1      13.542  12.113  15.301  0.00  0.00    +0.048 A 
ATOM     26  C   UNL     1      15.690  10.712  14.200  0.00  0.00    +0.031 A 
ATOM     27  C   UNL     1      14.072  12.503  14.072  0.00  0.00    +0.031 A 
ATOM     28  C   UNL     1      15.146  11.804  13.521  0.00  0.00    +0.067 A 
BRANCH  28   9
ATOM      9  N   UNL     1      15.670  12.189  12.301  0.00  0.00    -0.220 N 
ATOM     10  N   UNL     1      14.888  12.617  11.299  0.00  0.00    -0.154 NA
ATOM     11  N   UNL     1      17.097  12.623  10.703  0.00  0.00    -0.222 NA
ATOM     29  C   UNL     1      16.981  12.195  11.939  0.00  0.00    +0.225 A 
ATOM     30  C   UNL     1      15.799  12.867  10.355  0.00  0.00    +0.245 A 
ENDBRANCH  28   9
ENDBRANCH   3  23
ENDBRANCH  22   3
TORSDOF 7
ENDMDL
MODEL 5
REMARK VINA RESULT:      -6.6     27.979     32.004
REMARK  Name = 38345773
REMARK  7 active torsions:
REMARK  status: ('A' for Active; 'I' for Inactive)
REMARK    1  A    between atoms: O_3  and  C_22
REMARK    2  A    between atoms: O_3  and  C_23
REMARK    3  A    between atoms: N_4  and  C_14
REMARK    4  A    between atoms: N_4  and  C_19
REMARK    5  A    between atoms: N_5  and  C_16
REMARK    6  A    between atoms: N_9  and  C_28
REMARK    7  A    between atoms: C_15  and  C_19
REMARK                            x       y       z     vdW  Elec       q    Type
REMARK                         _______ _______ _______ _____ _____    ______ ____
ROOT
ATOM      5  N   UNL     1     -17.756   1.908  24.512  0.00  0.00    -0.187 N 
ATOM      6  N   UNL     1     -17.438   0.778  23.866  0.00  0.00    -0.041 NA
ATOM      7  N   UNL     1     -17.847   0.346  26.014  0.00  0.00    -0.071 NA
ATOM      8  N   UNL     1     -17.495  -0.174  24.789  0.00  0.00    -0.020 NA
ATOM     22  C   UNL     1     -18.005   1.634  25.820  0.00  0.00    +0.342 A 
ENDROOT
BRANCH   5  16
ATOM      1  O   UNL     1     -16.950   4.274  21.770  0.00  0.00    -0.370 OA
ATOM      2  O   UNL     1     -16.320   4.849  24.752  0.00  0.00    -0.370 OA
ATOM     12  C   UNL     1     -15.592   4.169  23.716  0.00  0.00    +0.168 C 
ATOM     13  C   UNL     1     -16.603   3.416  22.874  0.00  0.00    +0.175 C 
ATOM     14  C   UNL     1     -14.982   5.170  22.759  0.00  0.00    +0.111 C 
ATOM     16  C   UNL     1     -17.803   3.241  23.789  0.00  0.00    +0.171 C 
ATOM     20  C   UNL     1     -16.149   5.463  21.829  0.00  0.00    +0.181 C 
ATOM     21  C   UNL     1     -17.704   4.478  24.679  0.00  0.00    +0.190 C 
BRANCH  14   4
ATOM      4  N   UNL     1     -13.891   4.560  22.003  0.00  0.00    -0.309 NA
ATOM     31  H   UNL     1     -14.160   4.478  21.022  0.00  0.00    +0.122 HD
BRANCH   4  19
ATOM     19  C   UNL     1     -12.689   5.376  22.082  0.00  0.00    +0.084 C 
BRANCH  19  15
ATOM     15  C   UNL     1     -12.469   6.143  20.818  0.00  0.00    +0.003 C 
ATOM     17  C   UNL     1     -11.588   7.357  20.841  0.00  0.00    +0.005 C 
ATOM     18  C   UNL     1     -13.071   7.510  20.677  0.00  0.00    +0.005 C 
ENDBRANCH  19  15
ENDBRANCH   4  19
ENDBRANCH  14   4
ENDBRANCH   5  16
BRANCH  22   3
ATOM      3  O   UNL     1     -18.346   2.532  26.725  0.00  0.00    -0.423 OA
BRANCH   3  23
ATOM     23  C   UNL     1     -17.481   2.781  27.804  0.00  0.00    +0.132 A 
ATOM     24  C   UNL     1     -17.999   2.943  29.089  0.00  0.00    +0.048 A 
ATOM     25  C   UNL     1     -16.104   2.864  27.590  0.00  0.00    +0.048 A 
ATOM     26  C   UNL     1     -17.140   3.188  30.161  0.00  0.00    +0.031 A 
ATOM     27  C   UNL     1     -15.246   3.109  28.661  0.00  0.00    +0.031 A 
ATOM     28  C   UNL     1     -15.763   3.272  29.947  0.00  0.00    +0.067 A 
BRANCH  28   9
ATOM      9  N   UNL     1     -14.912   3.513  31.009  0.00  0.00    -0.220 N 
ATOM     10  N   UNL     1     -13.717   2.911  31.109  0.00  0.00    -0.154 NA
ATOM     11  N   UNL     1     -14.101   4.316  32.873  0.00  0.00    -0.222 NA
ATOM     29  C   UNL     1     -15.132   4.347  32.061  0.00  0.00    +0.225 A 
ATOM     30  C   UNL     1     -13.266   3.431  32.254  0.00  0.00    +0.245 A 
ENDBRANCH  28   9
ENDBRANCH   3  23
ENDBRANCH  22   3
TORSDOF 7
ENDMDL
MODEL 6
REMARK VINA RESULT:      -6.6      4.673     11.844
REMARK  Name = 38345773
REMARK  7 active torsions:
REMARK  status: ('A' for Active; 'I' for Inactive)
REMARK    1  A    between atoms: O_3  and  C_22
REMARK    2  A    between atoms: O_3  and  C_23
REMARK    3  A    between atoms: N_4  and  C_14
REMARK    4  A    between atoms: N_4  and  C_19
REMARK    5  A    between atoms: N_5  and  C_16
REMARK    6  A    between atoms: N_9  and  C_28
REMARK    7  A    between atoms: C_15  and  C_19
REMARK                            x       y       z     vdW  Elec       q    Type
REMARK                         _______ _______ _______ _____ _____    ______ ____
ROOT
ATOM      5  N   UNL     1      20.987   5.802  22.334  0.00  0.00    -0.187 N 
ATOM      6  N   UNL     1      21.192   5.627  23.647  0.00  0.00    -0.041 NA
ATOM      7  N   UNL     1      19.869   7.388  23.303  0.00  0.00    -0.071 NA
ATOM      8  N   UNL     1      20.506   6.599  24.235  0.00  0.00    -0.020 NA
ATOM     22  C   UNL     1      20.179   6.876  22.134  0.00  0.00    +0.342 A 
ENDROOT
BRANCH   5  16
ATOM      1  O   UNL     1      22.361   2.578  21.114  0.00  0.00    -0.370 OA
ATOM      2  O   UNL     1      23.967   5.231  21.083  0.00  0.00    -0.370 OA
ATOM     12  C   UNL     1      23.788   4.212  22.081  0.00  0.00    +0.168 C 
ATOM     13  C   UNL     1      22.355   3.730  21.979  0.00  0.00    +0.175 C 
ATOM     14  C   UNL     1      24.617   2.993  21.742  0.00  0.00    +0.111 C 
ATOM     16  C   UNL     1      21.615   4.875  21.310  0.00  0.00    +0.171 C 
ATOM     20  C   UNL     1      23.716   2.268  20.755  0.00  0.00    +0.181 C 
ATOM     21  C   UNL     1      22.710   5.494  20.443  0.00  0.00    +0.190 C 
BRANCH  14   4
ATOM      4  N   UNL     1      24.818   2.163  22.926  0.00  0.00    -0.309 NA
ATOM     31  H   UNL     1      24.060   2.325  23.589  0.00  0.00    +0.122 HD
BRANCH   4  19
ATOM     19  C   UNL     1      24.821   0.751  22.572  0.00  0.00    +0.084 C 
BRANCH  19  15
ATOM     15  C   UNL     1      26.147   0.123  22.854  0.00  0.00    +0.003 C 
ATOM     17  C   UNL     1      26.465  -1.218  22.260  0.00  0.00    +0.005 C 
ATOM     18  C   UNL     1      26.211  -1.091  23.733  0.00  0.00    +0.005 C 
ENDBRANCH  19  15
ENDBRANCH   4  19
ENDBRANCH  14   4
ENDBRANCH   5  16
BRANCH  22   3
ATOM      3  O   UNL     1      19.787   7.314  20.953  0.00  0.00    -0.423 OA
BRANCH   3  23
ATOM     23  C   UNL     1      18.423   7.259  20.620  0.00  0.00    +0.132 A 
ATOM     24  C   UNL     1      17.561   8.271  21.041  0.00  0.00    +0.048 A 
ATOM     25  C   UNL     1      17.931   6.192  19.866  0.00  0.00    +0.048 A 
ATOM     26  C   UNL     1      16.207   8.218  20.710  0.00  0.00    +0.031 A 
ATOM     27  C   UNL     1      16.578   6.138  19.536  0.00  0.00    +0.031 A 
ATOM     28  C   UNL     1      15.715   7.150  19.957  0.00  0.00    +0.067 A 
BRANCH  28   9
ATOM      9  N   UNL     1      14.374   7.098  19.627  0.00  0.00    -0.220 N 
ATOM     10  N   UNL     1      13.439   6.744  20.521  0.00  0.00    -0.154 NA
ATOM     11  N   UNL     1      12.515   7.216  18.482  0.00  0.00    -0.222 NA
ATOM     29  C   UNL     1      13.817   7.377  18.417  0.00  0.00    +0.225 A 
ATOM     30  C   UNL     1      12.332   6.832  19.779  0.00  0.00    +0.245 A 
ENDBRANCH  28   9
ENDBRANCH   3  23
ENDBRANCH  22   3
TORSDOF 7
ENDMDL
MODEL 7
REMARK VINA RESULT:      -6.5      2.589      3.184
REMARK  Name = 38345773
REMARK  7 active torsions:
REMARK  status: ('A' for Active; 'I' for Inactive)
REMARK    1  A    between atoms: O_3  and  C_22
REMARK    2  A    between atoms: O_3  and  C_23
REMARK    3  A    between atoms: N_4  and  C_14
REMARK    4  A    between atoms: N_4  and  C_19
REMARK    5  A    between atoms: N_5  and  C_16
REMARK    6  A    between atoms: N_9  and  C_28
REMARK    7  A    between atoms: C_15  and  C_19
REMARK                            x       y       z     vdW  Elec       q    Type
REMARK                         _______ _______ _______ _____ _____    ______ ____
ROOT
ATOM      5  N   UNL     1      12.363   8.743  20.809  0.00  0.00    -0.187 N 
ATOM      6  N   UNL     1      11.327   8.219  21.477  0.00  0.00    -0.041 NA
ATOM      7  N   UNL     1      12.186   6.708  20.081  0.00  0.00    -0.071 NA
ATOM      8  N   UNL     1      11.223   6.974  21.029  0.00  0.00    -0.020 NA
ATOM     22  C   UNL     1      12.881   7.815  19.961  0.00  0.00    +0.342 A 
ENDROOT
BRANCH   5  16
ATOM      1  O   UNL     1      14.369  11.418  22.419  0.00  0.00    -0.370 OA
ATOM      2  O   UNL     1      11.268  11.392  22.406  0.00  0.00    -0.370 OA
ATOM     12  C   UNL     1      12.244  10.812  23.287  0.00  0.00    +0.168 C 
ATOM     13  C   UNL     1      13.405  10.348  22.431  0.00  0.00    +0.175 C 
ATOM     14  C   UNL     1      12.841  11.874  24.184  0.00  0.00    +0.111 C 
ATOM     16  C   UNL     1      12.808  10.175  21.044  0.00  0.00    +0.171 C 
ATOM     20  C   UNL     1      13.917  12.468  23.287  0.00  0.00    +0.181 C 
ATOM     21  C   UNL     1      11.695  11.220  21.048  0.00  0.00    +0.190 C 
BRANCH  14   4
ATOM      4  N   UNL     1      13.460  11.266  25.359  0.00  0.00    -0.309 NA
ATOM     31  H   UNL     1      14.109  10.537  25.064  0.00  0.00    +0.122 HD
BRANCH   4  19
ATOM     19  C   UNL     1      14.204  12.258  26.121  0.00  0.00    +0.084 C 
BRANCH  19  15
ATOM     15  C   UNL     1      15.300  11.625  26.914  0.00  0.00    +0.003 C 
ATOM     17  C   UNL     1      15.476  12.002  28.355  0.00  0.00    +0.005 C 
ATOM     18  C   UNL     1      16.476  12.457  27.334  0.00  0.00    +0.005 C 
ENDBRANCH  19  15
ENDBRANCH   4  19
ENDBRANCH  14   4
ENDBRANCH   5  16
BRANCH  22   3
ATOM      3  O   UNL     1      13.910   8.018  19.161  0.00  0.00    -0.423 OA
BRANCH   3  23
ATOM     23  C   UNL     1      15.173   7.526  19.530  0.00  0.00    +0.132 A 
ATOM     24  C   UNL     1      15.757   6.489  18.803  0.00  0.00    +0.048 A 
ATOM     25  C   UNL     1      15.843   8.075  20.625  0.00  0.00    +0.048 A 
ATOM     26  C   UNL     1      17.012   6.001  19.169  0.00  0.00    +0.031 A 
ATOM     27  C   UNL     1      17.096   7.587  20.991  0.00  0.00    +0.031 A 
ATOM     28  C   UNL     1      17.682   6.550  20.264  0.00  0.00    +0.067 A 
BRANCH  28   9
ATOM      9  N   UNL     1      18.926   6.068  20.626  0.00  0.00    -0.220 N 
ATOM     10  N   UNL     1      19.505   5.047  19.977  0.00  0.00    -0.154 NA
ATOM     11  N   UNL     1      20.824   5.816  21.680  0.00  0.00    -0.222 NA
ATOM     29  C   UNL     1      19.716   6.519  21.637  0.00  0.00    +0.225 A 
ATOM     30  C   UNL     1      20.651   4.934  20.653  0.00  0.00    +0.245 A 
ENDBRANCH  28   9
ENDBRANCH   3  23
ENDBRANCH  22   3
TORSDOF 7
ENDMDL
MODEL 8
REMARK VINA RESULT:      -6.4     27.980     29.558
REMARK  Name = 38345773
REMARK  7 active torsions:
REMARK  status: ('A' for Active; 'I' for Inactive)
REMARK    1  A    between atoms: O_3  and  C_22
REMARK    2  A    between atoms: O_3  and  C_23
REMARK    3  A    between atoms: N_4  and  C_14
REMARK    4  A    between atoms: N_4  and  C_19
REMARK    5  A    between atoms: N_5  and  C_16
REMARK    6  A    between atoms: N_9  and  C_28
REMARK    7  A    between atoms: C_15  and  C_19
REMARK                            x       y       z     vdW  Elec       q    Type
REMARK                         _______ _______ _______ _____ _____    ______ ____
ROOT
ATOM      5  N   UNL     1      -3.220 -11.811  14.070  0.00  0.00    -0.187 N 
ATOM      6  N   UNL     1      -3.236 -12.965  14.750  0.00  0.00    -0.041 NA
ATOM      7  N   UNL     1      -1.691 -13.039  13.146  0.00  0.00    -0.071 NA
ATOM      8  N   UNL     1      -2.299 -13.713  14.181  0.00  0.00    -0.020 NA
ATOM     22  C   UNL     1      -2.274 -11.865  13.096  0.00  0.00    +0.342 A 
ENDROOT
BRANCH   5  16
ATOM      1  O   UNL     1      -5.377  -9.816  16.338  0.00  0.00    -0.370 OA
ATOM      2  O   UNL     1      -6.402 -11.098  13.706  0.00  0.00    -0.370 OA
ATOM     12  C   UNL     1      -6.290 -11.592  15.051  0.00  0.00    +0.168 C 
ATOM     13  C   UNL     1      -5.013 -11.021  15.635  0.00  0.00    +0.175 C 
ATOM     14  C   UNL     1      -7.388 -11.014  15.917  0.00  0.00    +0.111 C 
ATOM     16  C   UNL     1      -4.163 -10.676  14.424  0.00  0.00    +0.171 C 
ATOM     20  C   UNL     1      -6.804  -9.664  16.301  0.00  0.00    +0.181 C 
ATOM     21  C   UNL     1      -5.224 -10.349  13.377  0.00  0.00    +0.190 C 
BRANCH  14   4
ATOM      4  N   UNL     1      -7.578 -11.827  17.116  0.00  0.00    -0.309 NA
ATOM     31  H   UNL     1      -6.700 -12.284  17.361  0.00  0.00    +0.122 HD
BRANCH   4  19
ATOM     19  C   UNL     1      -7.991 -10.999  18.239  0.00  0.00    +0.084 C 
BRANCH  19  15
ATOM     15  C   UNL     1      -7.198 -11.313  19.466  0.00  0.00    +0.003 C 
ATOM     17  C   UNL     1      -6.102 -10.381  19.891  0.00  0.00    +0.005 C 
ATOM     18  C   UNL     1      -5.764 -11.729  19.326  0.00  0.00    +0.005 C 
ENDBRANCH  19  15
ENDBRANCH   4  19
ENDBRANCH  14   4
ENDBRANCH   5  16
BRANCH  22   3
ATOM      3  O   UNL     1      -2.007 -10.886  12.251  0.00  0.00    -0.423 OA
BRANCH   3  23
ATOM     23  C   UNL     1      -2.813 -10.725  11.112  0.00  0.00    +0.132 A 
ATOM     24  C   UNL     1      -3.006  -9.454  10.569  0.00  0.00    +0.048 A 
ATOM     25  C   UNL     1      -3.419 -11.836  10.523  0.00  0.00    +0.048 A 
ATOM     26  C   UNL     1      -3.805  -9.294   9.437  0.00  0.00    +0.031 A 
ATOM     27  C   UNL     1      -4.218 -11.675   9.392  0.00  0.00    +0.031 A 
ATOM     28  C   UNL     1      -4.412 -10.405   8.848  0.00  0.00    +0.067 A 
BRANCH  28   9
ATOM      9  N   UNL     1      -5.203 -10.246   7.726  0.00  0.00    -0.220 N 
ATOM     10  N   UNL     1      -6.191  -9.340   7.679  0.00  0.00    -0.154 NA
ATOM     11  N   UNL     1      -6.033 -10.514   5.721  0.00  0.00    -0.222 NA
ATOM     29  C   UNL     1      -5.115 -10.939   6.558  0.00  0.00    +0.225 A 
ATOM     30  C   UNL     1      -6.662  -9.542   6.446  0.00  0.00    +0.245 A 
ENDBRANCH  28   9
ENDBRANCH   3  23
ENDBRANCH  22   3
TORSDOF 7
ENDMDL
MODEL 9
REMARK VINA RESULT:      -6.3     27.846     29.587
REMARK  Name = 38345773
REMARK  7 active torsions:
REMARK  status: ('A' for Active; 'I' for Inactive)
REMARK    1  A    between atoms: O_3  and  C_22
REMARK    2  A    between atoms: O_3  and  C_23
REMARK    3  A    between atoms: N_4  and  C_14
REMARK    4  A    between atoms: N_4  and  C_19
REMARK    5  A    between atoms: N_5  and  C_16
REMARK    6  A    between atoms: N_9  and  C_28
REMARK    7  A    between atoms: C_15  and  C_19
REMARK                            x       y       z     vdW  Elec       q    Type
REMARK                         _______ _______ _______ _____ _____    ______ ____
ROOT
ATOM      5  N   UNL     1      -7.116 -11.465  18.751  0.00  0.00    -0.187 N 
ATOM      6  N   UNL     1      -7.157 -10.743  19.879  0.00  0.00    -0.041 NA
ATOM      7  N   UNL     1      -5.235 -11.865  19.754  0.00  0.00    -0.071 NA
ATOM      8  N   UNL     1      -6.005 -10.991  20.489  0.00  0.00    -0.020 NA
ATOM     22  C   UNL     1      -5.941 -12.145  18.683  0.00  0.00    +0.342 A 
ENDROOT
BRANCH   5  16
ATOM      1  O   UNL     1      -9.087 -10.132  15.904  0.00  0.00    -0.370 OA
ATOM      2  O   UNL     1     -10.279 -10.590  18.730  0.00  0.00    -0.370 OA
ATOM     12  C   UNL     1      -9.588  -9.480  18.132  0.00  0.00    +0.168 C 
ATOM     13  C   UNL     1      -8.518 -10.053  17.225  0.00  0.00    +0.175 C 
ATOM     14  C   UNL     1     -10.510  -8.731  17.195  0.00  0.00    +0.111 C 
ATOM     16  C   UNL     1      -8.269 -11.451  17.766  0.00  0.00    +0.171 C 
ATOM     20  C   UNL     1     -10.403  -9.559  15.925  0.00  0.00    +0.181 C 
ATOM     21  C   UNL     1      -9.636 -11.812  18.343  0.00  0.00    +0.190 C 
BRANCH  14   4
ATOM      4  N   UNL     1     -10.006  -7.383  16.948  0.00  0.00    -0.309 NA
ATOM     31  H   UNL     1      -8.986  -7.391  16.968  0.00  0.00    +0.122 HD
BRANCH   4  19
ATOM     19  C   UNL     1     -10.434  -6.904  15.642  0.00  0.00    +0.084 C 
BRANCH  19  15
ATOM     15  C   UNL     1     -11.645  -6.035  15.752  0.00  0.00    +0.003 C 
ATOM     17  C   UNL     1     -12.960  -6.540  15.235  0.00  0.00    +0.005 C 
ATOM     18  C   UNL     1     -12.238  -5.444  14.507  0.00  0.00    +0.005 C 
ENDBRANCH  19  15
ENDBRANCH   4  19
ENDBRANCH  14   4
ENDBRANCH   5  16
BRANCH  22   3
ATOM      3  O   UNL     1      -5.591 -12.947  17.695  0.00  0.00    -0.423 OA
BRANCH   3  23
ATOM     23  C   UNL     1      -5.043 -12.395  16.526  0.00  0.00    +0.132 A 
ATOM     24  C   UNL     1      -5.524 -12.788  15.277  0.00  0.00    +0.048 A 
ATOM     25  C   UNL     1      -4.017 -11.452  16.615  0.00  0.00    +0.048 A 
ATOM     26  C   UNL     1      -4.979 -12.239  14.116  0.00  0.00    +0.031 A 
ATOM     27  C   UNL     1      -3.473 -10.904  15.454  0.00  0.00    +0.031 A 
ATOM     28  C   UNL     1      -3.953 -11.297  14.204  0.00  0.00    +0.067 A 
BRANCH  28   9
ATOM      9  N   UNL     1      -3.415 -10.751  13.054  0.00  0.00    -0.220 N 
ATOM     10  N   UNL     1      -4.179 -10.423  12.002  0.00  0.00    -0.154 NA
ATOM     11  N   UNL     1      -1.972  -9.966  11.611  0.00  0.00    -0.222 NA
ATOM     29  C   UNL     1      -2.104 -10.477  12.814  0.00  0.00    +0.225 A 
ATOM     30  C   UNL     1      -3.259  -9.953  11.156  0.00  0.00    +0.245 A 
ENDBRANCH  28   9
ENDBRANCH   3  23
ENDBRANCH  22   3
TORSDOF 7
ENDMDL
MODEL 10
REMARK VINA RESULT:      -6.3     27.305     29.355
REMARK  Name = 38345773
REMARK  7 active torsions:
REMARK  status: ('A' for Active; 'I' for Inactive)
REMARK    1  A    between atoms: O_3  and  C_22
REMARK    2  A    between atoms: O_3  and  C_23
REMARK    3  A    between atoms: N_4  and  C_14
REMARK    4  A    between atoms: N_4  and  C_19
REMARK    5  A    between atoms: N_5  and  C_16
REMARK    6  A    between atoms: N_9  and  C_28
REMARK    7  A    between atoms: C_15  and  C_19
REMARK                            x       y       z     vdW  Elec       q    Type
REMARK                         _______ _______ _______ _____ _____    ______ ____
ROOT
ATOM      5  N   UNL     1      -2.849 -11.569  15.555  0.00  0.00    -0.187 N 
ATOM      6  N   UNL     1      -2.446 -10.664  16.458  0.00  0.00    -0.041 NA
ATOM      7  N   UNL     1      -0.816 -11.065  14.990  0.00  0.00    -0.071 NA
ATOM      8  N   UNL     1      -1.203 -10.359  16.108  0.00  0.00    -0.020 NA
ATOM     22  C   UNL     1      -1.850 -11.806  14.665  0.00  0.00    +0.342 A 
ENDROOT
BRANCH   5  16
ATOM      1  O   UNL     1      -6.312 -12.158  14.358  0.00  0.00    -0.370 OA
ATOM      2  O   UNL     1      -5.653 -11.052  17.180  0.00  0.00    -0.370 OA
ATOM     12  C   UNL     1      -5.846 -10.417  15.905  0.00  0.00    +0.168 C 
ATOM     13  C   UNL     1      -5.244 -11.327  14.853  0.00  0.00    +0.175 C 
ATOM     14  C   UNL     1      -7.319 -10.369  15.559  0.00  0.00    +0.111 C 
ATOM     16  C   UNL     1      -4.239 -12.174  15.615  0.00  0.00    +0.171 C 
ATOM     20  C   UNL     1      -7.545 -11.753  14.972  0.00  0.00    +0.181 C 
ATOM     21  C   UNL     1      -4.871 -12.241  17.003  0.00  0.00    +0.190 C 
BRANCH  14   4
ATOM      4  N   UNL     1      -7.575  -9.354  14.541  0.00  0.00    -0.309 NA
ATOM     31  H   UNL     1      -6.692  -9.057  14.126  0.00  0.00    +0.122 HD
BRANCH   4  19
ATOM     19  C   UNL     1      -8.421  -9.886  13.484  0.00  0.00    +0.084 C 
BRANCH  19  15
ATOM     15  C   UNL     1      -7.907  -9.507  12.133  0.00  0.00    +0.003 C 
ATOM     17  C   UNL     1      -7.139 -10.515  11.330  0.00  0.00    +0.005 C 
ATOM     18  C   UNL     1      -6.430  -9.338  11.932  0.00  0.00    +0.005 C 
ENDBRANCH  19  15
ENDBRANCH   4  19
ENDBRANCH  14   4
ENDBRANCH   5  16
BRANCH  22   3
ATOM      3  O   UNL     1      -1.929 -12.647  13.650  0.00  0.00    -0.423 OA
BRANCH   3  23
ATOM     23  C   UNL     1      -2.533 -12.223  12.455  0.00  0.00    +0.132 A 
ATOM     24  C   UNL     1      -2.435 -10.889  12.059  0.00  0.00    +0.048 A 
ATOM     25  C   UNL     1      -3.229 -13.137  11.662  0.00  0.00    +0.048 A 
ATOM     26  C   UNL     1      -3.033 -10.469  10.871  0.00  0.00    +0.031 A 
ATOM     27  C   UNL     1      -3.827 -12.717  10.476  0.00  0.00    +0.031 A 
ATOM     28  C   UNL     1      -3.730 -11.383  10.079  0.00  0.00    +0.067 A 
BRANCH  28   9
ATOM      9  N   UNL     1      -4.321 -10.966   8.901  0.00  0.00    -0.220 N 
ATOM     10  N   UNL     1      -4.488 -11.797   7.861  0.00  0.00    -0.154 NA
ATOM     11  N   UNL     1      -5.289  -9.704   7.401  0.00  0.00    -0.222 NA
ATOM     29  C   UNL     1      -4.800  -9.724   8.620  0.00  0.00    +0.225 A 
ATOM     30  C   UNL     1      -5.077 -10.985   6.980  0.00  0.00    +0.245 A 
ENDBRANCH  28   9
ENDBRANCH   3  23
ENDBRANCH  22   3
TORSDOF 7
ENDMDL
