REMARK  Name = 75367099
REMARK  8 active torsions:
REMARK  status: ('A' for Active; 'I' for Inactive)
REMARK    1  A    between atoms: S_1  and  N_8
REMARK    2  A    between atoms: S_1  and  C_19
REMARK    3  A    between atoms: O_3  and  C_10
REMARK    4  A    between atoms: N_6  and  C_9
REMARK    5  A    between atoms: N_6  and  C_11
REMARK    6  A    between atoms: N_8  and  C_16
REMARK    7  A    between atoms: C_12  and  C_16
REMARK    8  A    between atoms: C_24  and  C_25
REMARK                            x       y       z     vdW  Elec       q    Type
REMARK                         _______ _______ _______ _____ _____    ______ ____
ROOT
ATOM      2  O   UNL     1      -0.735   0.839  -1.342  0.00  0.00    -0.371 OA
ATOM      9  C   UNL     1      -2.571   0.235   0.038  0.00  0.00    +0.111 C 
ATOM     10  C   UNL     1      -1.288   0.113   0.840  0.00  0.00    +0.164 C 
ATOM     12  C   UNL     1      -0.353   1.004   0.034  0.00  0.00    +0.164 C 
ATOM     13  C   UNL     1      -2.038   0.231  -1.385  0.00  0.00    +0.181 C 
ENDROOT
BRANCH  10   3
ATOM      3  O   UNL     1      -1.432   0.568   2.171  0.00  0.00    -0.388 OA
ATOM     28  H   UNL     1      -1.751   1.486   2.149  0.00  0.00    +0.210 HD
ENDBRANCH  10   3
BRANCH   9   6
ATOM      6  N   UNL     1      -3.520  -0.837   0.290  0.00  0.00    -0.306 NA
ATOM     26  H   UNL     1      -3.580  -1.024   1.290  0.00  0.00    +0.123 HD
BRANCH   6  11
ATOM      7  N   UNL     1      -7.756  -0.497   0.082  0.00  0.00    -0.316 NA
ATOM     11  C   UNL     1      -4.842  -0.492  -0.228  0.00  0.00    +0.056 C 
ATOM     14  C   UNL     1      -5.682  -1.758  -0.426  0.00  0.00    +0.034 C 
ATOM     15  C   UNL     1      -5.564   0.478   0.713  0.00  0.00    +0.034 C 
ATOM     17  C   UNL     1      -7.104  -1.405  -0.864  0.00  0.00    +0.082 C 
ATOM     18  C   UNL     1      -6.991   0.744   0.231  0.00  0.00    +0.082 C 
ATOM     27  H   UNL     1      -8.693  -0.276  -0.255  0.00  0.00    +0.122 HD
ENDBRANCH   6  11
ENDBRANCH   9   6
BRANCH  12  16
ATOM     16  C   UNL     1       1.113   0.648   0.206  0.00  0.00    +0.140 C 
BRANCH  16   8
ATOM      8  N   UNL     1       1.943   1.558  -0.607  0.00  0.00    -0.187 NA
ATOM     29  H   UNL     1       1.741   1.565  -1.615  0.00  0.00    +0.148 HD
BRANCH   8   1
ATOM      1  S   UNL     1       3.511   1.969  -0.093  0.00  0.00    +0.058 S 
ATOM      4  O   UNL     1       3.452   2.493   1.258  0.00  0.00    -0.153 OA
ATOM      5  O   UNL     1       4.168   2.727  -1.141  0.00  0.00    -0.153 OA
BRANCH   1  19
ATOM     19  C   UNL     1       4.298   0.387  -0.030  0.00  0.00    +0.105 A 
ATOM     20  C   UNL     1       4.952  -0.111  -1.157  0.00  0.00    +0.029 A 
ATOM     21  C   UNL     1       4.261  -0.364   1.144  0.00  0.00    +0.029 A 
ATOM     22  C   UNL     1       5.570  -1.360  -1.109  0.00  0.00    +0.005 A 
ATOM     23  C   UNL     1       4.879  -1.613   1.192  0.00  0.00    +0.005 A 
ATOM     24  C   UNL     1       5.534  -2.111   0.066  0.00  0.00    -0.050 A 
ATOM     25  C   UNL     1       6.195  -3.447   0.117  0.00  0.00    +0.044 C 
ENDBRANCH   1  19
ENDBRANCH   8   1
ENDBRANCH  16   8
ENDBRANCH  12  16
TORSDOF 7
