REMARK  Name = 40777601
REMARK  9 active torsions:
REMARK  status: ('A' for Active; 'I' for Inactive)
REMARK    1  A    between atoms: N_2  and  C_8
REMARK    2  A    between atoms: N_3  and  C_15
REMARK    3  A    between atoms: N_5  and  C_19
REMARK    4  A    between atoms: C_6  and  C_9
REMARK    5  A    between atoms: C_12  and  C_14
REMARK    6  A    between atoms: C_13  and  C_16
REMARK    7  A    between atoms: C_15  and  C_18
REMARK    8  A    between atoms: C_19  and  C_22
REMARK    9  A    between atoms: C_19  and  C_23
REMARK                            x       y       z     vdW  Elec       q    Type
REMARK                         _______ _______ _______ _____ _____    ______ ____
ROOT
ATOM      6  C   UNL     1      -0.711   0.425   0.508  0.00  0.00    +0.047 C 
ATOM      7  C   UNL     1      -1.676  -0.062  -0.592  0.00  0.00    +0.039 C 
ATOM      8  C   UNL     1      -2.611  -1.070   0.087  0.00  0.00    +0.098 C 
ATOM     10  C   UNL     1      -0.791  -0.680   1.520  0.00  0.00    -0.021 C 
ATOM     11  C   UNL     1      -1.830  -1.490   1.289  0.00  0.00    -0.009 C 
ENDROOT
BRANCH   6   9
ATOM      3  N   UNL     1       2.666   0.567  -0.905  0.00  0.00    -0.264 N 
ATOM      4  N   UNL     1       2.607   1.843  -0.487  0.00  0.00    -0.176 NA
ATOM      9  C   UNL     1       0.681   0.714  -0.004  0.00  0.00    +0.003 A 
ATOM     12  C   UNL     1       1.537  -0.152  -0.639  0.00  0.00    +0.041 A 
ATOM     13  C   UNL     1       1.393   1.927   0.062  0.00  0.00    +0.064 A 
ATOM     14  C   UNL     1       1.387  -1.572  -1.012  0.00  0.00    +0.065 C 
ATOM     16  C   UNL     1       0.949   3.204   0.647  0.00  0.00    +0.068 C 
BRANCH   3  15
ATOM     15  C   UNL     1       3.860   0.095  -1.566  0.00  0.00    +0.178 C 
BRANCH  15  18
ATOM     18  C   UNL     1       4.991  -0.207  -0.613  0.00  0.00    -0.026 A 
ATOM     20  C   UNL     1       5.750   0.834  -0.080  0.00  0.00    +0.005 A 
ATOM     21  C   UNL     1       5.276  -1.527  -0.266  0.00  0.00    +0.005 A 
ATOM     24  C   UNL     1       6.795   0.555   0.801  0.00  0.00    +0.000 A 
ATOM     25  C   UNL     1       6.321  -1.806   0.615  0.00  0.00    +0.000 A 
ATOM     26  C   UNL     1       7.081  -0.765   1.148  0.00  0.00    +0.000 A 
ENDBRANCH  15  18
ENDBRANCH   3  15
ENDBRANCH   6   9
BRANCH   8   2
ATOM      1  O   UNL     1      -5.095  -0.988  -1.381  0.00  0.00    -0.253 OA
ATOM      2  N   UNL     1      -3.852  -0.479   0.514  0.00  0.00    -0.293 N 
ATOM      5  N   UNL     1      -6.064   0.157   0.389  0.00  0.00    -0.297 N 
ATOM     17  C   UNL     1      -5.012  -0.483  -0.263  0.00  0.00    +0.300 C 
ATOM     27  H   UNL     1      -3.880   0.011   1.404  0.00  0.00    +0.151 HD
ATOM     28  H   UNL     1      -5.919   0.475   1.343  0.00  0.00    +0.150 HD
BRANCH   5  19
ATOM     19  C   UNL     1      -7.378   0.293  -0.193  0.00  0.00    +0.068 C 
ATOM     22  C   UNL     1      -8.034   1.585   0.276  0.00  0.00    +0.027 C 
ATOM     23  C   UNL     1      -8.240  -0.918   0.143  0.00  0.00    +0.027 C 
ENDBRANCH   5  19
ENDBRANCH   8   2
TORSDOF 5
