MODEL 1
REMARK VINA RESULT:      -8.4      0.000      0.000
REMARK  Name = 11886269
REMARK  8 active torsions:
REMARK  status: ('A' for Active; 'I' for Inactive)
REMARK    1  A    between atoms: S_1  and  N_7
REMARK    2  A    between atoms: S_1  and  C_22
REMARK    3  A    between atoms: O_4  and  C_21
REMARK    4  A    between atoms: O_4  and  C_25
REMARK    5  A    between atoms: N_7  and  C_17
REMARK    6  A    between atoms: N_8  and  C_18
REMARK    7  A    between atoms: N_12  and  C_34
REMARK    8  A    between atoms: C_28  and  C_31
REMARK                            x       y       z     vdW  Elec       q    Type
REMARK                         _______ _______ _______ _____ _____    ______ ____
ROOT
ATOM      2  O   UNL     1     -16.618   3.216  28.012  0.00  0.00    -0.370 OA
ATOM      3  O   UNL     1     -18.137   0.676  27.019  0.00  0.00    -0.370 OA
ATOM     15  C   UNL     1     -16.750   0.968  27.255  0.00  0.00    +0.170 C 
ATOM     16  C   UNL     1     -16.507   2.402  26.829  0.00  0.00    +0.175 C 
ATOM     17  C   UNL     1     -16.458   0.961  28.740  0.00  0.00    +0.133 C 
ATOM     18  C   UNL     1     -17.647   2.718  25.880  0.00  0.00    +0.171 C 
ATOM     19  C   UNL     1     -16.869   2.368  29.143  0.00  0.00    +0.183 C 
ATOM     20  C   UNL     1     -18.758   1.789  26.361  0.00  0.00    +0.190 C 
ENDROOT
BRANCH  18   8
ATOM      8  N   UNL     1     -17.268   2.560  24.474  0.00  0.00    -0.187 N 
ATOM      9  N   UNL     1     -17.701   1.517  23.759  0.00  0.00    -0.041 NA
ATOM     10  N   UNL     1     -16.410   2.837  22.510  0.00  0.00    -0.071 NA
ATOM     11  N   UNL     1     -17.172   1.692  22.554  0.00  0.00    -0.020 NA
ATOM     21  C   UNL     1     -16.484   3.359  23.712  0.00  0.00    +0.342 A 
BRANCH  21   4
ATOM      4  O   UNL     1     -15.903   4.468  24.128  0.00  0.00    -0.423 OA
BRANCH   4  25
ATOM     25  C   UNL     1     -15.104   5.248  23.303  0.00  0.00    +0.132 A 
ATOM     29  C   UNL     1     -13.855   4.780  22.941  0.00  0.00    +0.048 A 
ATOM     30  C   UNL     1     -15.581   6.469  22.866  0.00  0.00    +0.048 A 
ATOM     32  C   UNL     1     -13.053   5.562  22.111  0.00  0.00    +0.031 A 
ATOM     33  C   UNL     1     -14.778   7.252  22.036  0.00  0.00    +0.031 A 
ATOM     34  C   UNL     1     -13.514   6.798  21.659  0.00  0.00    +0.067 A 
BRANCH  34  12
ATOM     12  N   UNL     1     -12.718   7.574  20.836  0.00  0.00    -0.220 N 
ATOM     13  N   UNL     1     -11.675   7.061  20.159  0.00  0.00    -0.154 NA
ATOM     14  N   UNL     1     -11.908   9.299  19.754  0.00  0.00    -0.222 NA
ATOM     35  C   UNL     1     -12.845   8.910  20.586  0.00  0.00    +0.225 A 
ATOM     36  C   UNL     1     -11.222   8.143  19.522  0.00  0.00    +0.245 A 
ENDBRANCH  34  12
ENDBRANCH   4  25
ENDBRANCH  21   4
ENDBRANCH  18   8
BRANCH  17   7
ATOM      7  N   UNL     1     -15.029   0.777  28.981  0.00  0.00    -0.182 NA
ATOM     37  H   UNL     1     -14.417   0.767  28.157  0.00  0.00    +0.148 HD
BRANCH   7   1
ATOM      1  S   UNL     1     -14.504   0.001  30.399  0.00  0.00    +0.059 S 
ATOM      5  O   UNL     1     -13.168  -0.525  30.193  0.00  0.00    -0.153 OA
ATOM      6  O   UNL     1     -15.564  -0.865  30.878  0.00  0.00    -0.153 OA
BRANCH   1  22
ATOM     22  C   UNL     1     -14.390   1.352  31.532  0.00  0.00    +0.105 A 
ATOM     23  C   UNL     1     -13.818   2.540  31.113  0.00  0.00    +0.029 A 
ATOM     24  C   UNL     1     -14.875   1.196  32.820  0.00  0.00    +0.029 A 
ATOM     26  C   UNL     1     -13.728   3.606  32.009  0.00  0.00    +0.005 A 
ATOM     27  C   UNL     1     -14.785   2.262  33.715  0.00  0.00    +0.005 A 
ATOM     28  C   UNL     1     -14.212   3.467  33.309  0.00  0.00    -0.050 A 
ATOM     31  C   UNL     1     -14.116   4.607  34.266  0.00  0.00    +0.044 C 
ENDBRANCH   1  22
ENDBRANCH   7   1
ENDBRANCH  17   7
TORSDOF 7
ENDMDL
MODEL 2
REMARK VINA RESULT:      -7.8     27.735     31.262
REMARK  Name = 11886269
REMARK  8 active torsions:
REMARK  status: ('A' for Active; 'I' for Inactive)
REMARK    1  A    between atoms: S_1  and  N_7
REMARK    2  A    between atoms: S_1  and  C_22
REMARK    3  A    between atoms: O_4  and  C_21
REMARK    4  A    between atoms: O_4  and  C_25
REMARK    5  A    between atoms: N_7  and  C_17
REMARK    6  A    between atoms: N_8  and  C_18
REMARK    7  A    between atoms: N_12  and  C_34
REMARK    8  A    between atoms: C_28  and  C_31
REMARK                            x       y       z     vdW  Elec       q    Type
REMARK                         _______ _______ _______ _____ _____    ______ ____
ROOT
ATOM      2  O   UNL     1      10.907   9.514  22.342  0.00  0.00    -0.370 OA
ATOM      3  O   UNL     1      13.745  10.811  22.259  0.00  0.00    -0.370 OA
ATOM     15  C   UNL     1      12.467  11.195  21.724  0.00  0.00    +0.170 C 
ATOM     16  C   UNL     1      11.767   9.932  21.265  0.00  0.00    +0.175 C 
ATOM     17  C   UNL     1      11.581  11.738  22.823  0.00  0.00    +0.133 C 
ATOM     18  C   UNL     1      12.882   8.921  21.077  0.00  0.00    +0.171 C 
ATOM     19  C   UNL     1      11.001  10.464  23.413  0.00  0.00    +0.183 C 
ATOM     20  C   UNL     1      13.947   9.405  22.057  0.00  0.00    +0.190 C 
ENDROOT
BRANCH  18   8
ATOM      8  N   UNL     1      13.319   8.819  19.683  0.00  0.00    -0.187 N 
ATOM      9  N   UNL     1      12.985   9.753  18.788  0.00  0.00    -0.041 NA
ATOM     10  N   UNL     1      14.217   8.160  17.830  0.00  0.00    -0.071 NA
ATOM     11  N   UNL     1      13.539   9.345  17.652  0.00  0.00    -0.020 NA
ATOM     21  C   UNL     1      14.068   7.853  19.098  0.00  0.00    +0.342 A 
BRANCH  21   4
ATOM      4  O   UNL     1      14.552   6.792  19.715  0.00  0.00    -0.423 OA
BRANCH   4  25
ATOM     25  C   UNL     1      15.912   6.594  19.906  0.00  0.00    +0.132 A 
ATOM     29  C   UNL     1      16.626   5.879  18.963  0.00  0.00    +0.048 A 
ATOM     30  C   UNL     1      16.515   7.119  21.034  0.00  0.00    +0.048 A 
ATOM     32  C   UNL     1      17.992   5.681  19.154  0.00  0.00    +0.031 A 
ATOM     33  C   UNL     1      17.882   6.921  21.225  0.00  0.00    +0.031 A 
ATOM     34  C   UNL     1      18.621   6.202  20.285  0.00  0.00    +0.067 A 
BRANCH  34  12
ATOM     12  N   UNL     1      19.976   6.005  20.475  0.00  0.00    -0.220 N 
ATOM     13  N   UNL     1      20.550   4.796  20.335  0.00  0.00    -0.154 NA
ATOM     14  N   UNL     1      22.092   6.385  20.906  0.00  0.00    -0.222 NA
ATOM     35  C   UNL     1      20.907   6.944  20.816  0.00  0.00    +0.225 A 
ATOM     36  C   UNL     1      21.825   5.081  20.605  0.00  0.00    +0.245 A 
ENDBRANCH  34  12
ENDBRANCH   4  25
ENDBRANCH  21   4
ENDBRANCH  18   8
BRANCH  17   7
ATOM      7  N   UNL     1      10.508  12.555  22.260  0.00  0.00    -0.182 NA
ATOM     37  H   UNL     1       9.921  12.116  21.540  0.00  0.00    +0.148 HD
BRANCH   7   1
ATOM      1  S   UNL     1      10.623  14.250  22.302  0.00  0.00    +0.059 S 
ATOM      5  O   UNL     1       9.290  14.823  22.279  0.00  0.00    -0.153 OA
ATOM      6  O   UNL     1      11.617  14.675  21.336  0.00  0.00    -0.153 OA
BRANCH   1  22
ATOM     22  C   UNL     1      11.309  14.528  23.906  0.00  0.00    +0.105 A 
ATOM     23  C   UNL     1      10.493  14.429  25.019  0.00  0.00    +0.029 A 
ATOM     24  C   UNL     1      12.653  14.842  24.020  0.00  0.00    +0.029 A 
ATOM     26  C   UNL     1      11.036  14.649  26.285  0.00  0.00    +0.005 A 
ATOM     27  C   UNL     1      13.196  15.062  25.286  0.00  0.00    +0.005 A 
ATOM     28  C   UNL     1      12.387  14.966  26.418  0.00  0.00    -0.050 A 
ATOM     31  C   UNL     1      12.967  15.201  27.772  0.00  0.00    +0.044 C 
ENDBRANCH   1  22
ENDBRANCH   7   1
ENDBRANCH  17   7
TORSDOF 7
ENDMDL
MODEL 3
REMARK VINA RESULT:      -7.8     17.941     20.353
REMARK  Name = 11886269
REMARK  8 active torsions:
REMARK  status: ('A' for Active; 'I' for Inactive)
REMARK    1  A    between atoms: S_1  and  N_7
REMARK    2  A    between atoms: S_1  and  C_22
REMARK    3  A    between atoms: O_4  and  C_21
REMARK    4  A    between atoms: O_4  and  C_25
REMARK    5  A    between atoms: N_7  and  C_17
REMARK    6  A    between atoms: N_8  and  C_18
REMARK    7  A    between atoms: N_12  and  C_34
REMARK    8  A    between atoms: C_28  and  C_31
REMARK                            x       y       z     vdW  Elec       q    Type
REMARK                         _______ _______ _______ _____ _____    ______ ____
ROOT
ATOM      2  O   UNL     1      -5.583  -9.805  16.473  0.00  0.00    -0.370 OA
ATOM      3  O   UNL     1      -4.973 -11.690  18.885  0.00  0.00    -0.370 OA
ATOM     15  C   UNL     1      -5.088 -11.905  17.469  0.00  0.00    +0.170 C 
ATOM     16  C   UNL     1      -6.202 -11.011  16.961  0.00  0.00    +0.175 C 
ATOM     17  C   UNL     1      -3.849 -11.402  16.761  0.00  0.00    +0.133 C 
ATOM     18  C   UNL     1      -7.033 -10.698  18.191  0.00  0.00    +0.171 C 
ATOM     19  C   UNL     1      -4.159  -9.922  16.607  0.00  0.00    +0.183 C 
ATOM     20  C   UNL     1      -6.019 -10.811  19.325  0.00  0.00    +0.190 C 
ENDROOT
BRANCH  18   8
ATOM      8  N   UNL     1      -8.204 -11.569  18.313  0.00  0.00    -0.187 N 
ATOM      9  N   UNL     1      -8.119 -12.876  18.051  0.00  0.00    -0.041 NA
ATOM     10  N   UNL     1     -10.197 -12.336  18.651  0.00  0.00    -0.071 NA
ATOM     11  N   UNL     1      -9.344 -13.343  18.260  0.00  0.00    -0.020 NA
ATOM     21  C   UNL     1      -9.468 -11.244  18.678  0.00  0.00    +0.342 A 
BRANCH  21   4
ATOM      4  O   UNL     1      -9.875 -10.031  18.999  0.00  0.00    -0.423 OA
BRANCH   4  25
ATOM     25  C   UNL     1     -10.480  -9.180  18.084  0.00  0.00    +0.132 A 
ATOM     29  C   UNL     1     -11.829  -9.328  17.820  0.00  0.00    +0.048 A 
ATOM     30  C   UNL     1      -9.717  -8.209  17.463  0.00  0.00    +0.048 A 
ATOM     32  C   UNL     1     -12.438  -8.472  16.903  0.00  0.00    +0.031 A 
ATOM     33  C   UNL     1     -10.326  -7.353  16.545  0.00  0.00    +0.031 A 
ATOM     34  C   UNL     1     -11.686  -7.486  16.265  0.00  0.00    +0.067 A 
BRANCH  34  12
ATOM     12  N   UNL     1     -12.289  -6.638  15.354  0.00  0.00    -0.220 N 
ATOM     13  N   UNL     1     -11.582  -5.764  14.615  0.00  0.00    -0.154 NA
ATOM     14  N   UNL     1     -13.816  -5.629  14.148  0.00  0.00    -0.222 NA
ATOM     35  C   UNL     1     -13.620  -6.547  15.066  0.00  0.00    +0.225 A 
ATOM     36  C   UNL     1     -12.550  -5.181  13.905  0.00  0.00    +0.245 A 
ENDBRANCH  34  12
ENDBRANCH   4  25
ENDBRANCH  21   4
ENDBRANCH  18   8
BRANCH  17   7
ATOM      7  N   UNL     1      -3.726 -12.020  15.442  0.00  0.00    -0.182 NA
ATOM     37  H   UNL     1      -4.347 -12.812  15.241  0.00  0.00    +0.148 HD
BRANCH   7   1
ATOM      1  S   UNL     1      -2.270 -11.882  14.576  0.00  0.00    +0.059 S 
ATOM      5  O   UNL     1      -1.840 -13.198  14.144  0.00  0.00    -0.153 OA
ATOM      6  O   UNL     1      -1.364 -11.025  15.318  0.00  0.00    -0.153 OA
BRANCH   1  22
ATOM     22  C   UNL     1      -2.781 -10.977  13.147  0.00  0.00    +0.105 A 
ATOM     23  C   UNL     1      -1.833 -10.589  12.217  0.00  0.00    +0.029 A 
ATOM     24  C   UNL     1      -4.122 -10.672  12.985  0.00  0.00    +0.029 A 
ATOM     26  C   UNL     1      -2.237  -9.876  11.089  0.00  0.00    +0.005 A 
ATOM     27  C   UNL     1      -4.526  -9.958  11.856  0.00  0.00    +0.005 A 
ATOM     28  C   UNL     1      -3.584  -9.560  10.908  0.00  0.00    -0.050 A 
ATOM     31  C   UNL     1      -4.015  -8.797   9.703  0.00  0.00    +0.044 C 
ENDBRANCH   1  22
ENDBRANCH   7   1
ENDBRANCH  17   7
TORSDOF 7
ENDMDL
MODEL 4
REMARK VINA RESULT:      -7.3     27.715     31.771
REMARK  Name = 11886269
REMARK  8 active torsions:
REMARK  status: ('A' for Active; 'I' for Inactive)
REMARK    1  A    between atoms: S_1  and  N_7
REMARK    2  A    between atoms: S_1  and  C_22
REMARK    3  A    between atoms: O_4  and  C_21
REMARK    4  A    between atoms: O_4  and  C_25
REMARK    5  A    between atoms: N_7  and  C_17
REMARK    6  A    between atoms: N_8  and  C_18
REMARK    7  A    between atoms: N_12  and  C_34
REMARK    8  A    between atoms: C_28  and  C_31
REMARK                            x       y       z     vdW  Elec       q    Type
REMARK                         _______ _______ _______ _____ _____    ______ ____
ROOT
ATOM      2  O   UNL     1      10.913   9.484  22.399  0.00  0.00    -0.370 OA
ATOM      3  O   UNL     1      13.771  10.738  22.465  0.00  0.00    -0.370 OA
ATOM     15  C   UNL     1      12.513  11.175  21.924  0.00  0.00    +0.170 C 
ATOM     16  C   UNL     1      11.805   9.954  21.371  0.00  0.00    +0.175 C 
ATOM     17  C   UNL     1      11.608  11.664  23.033  0.00  0.00    +0.133 C 
ATOM     18  C   UNL     1      12.910   8.939  21.148  0.00  0.00    +0.171 C 
ATOM     19  C   UNL     1      10.994  10.365  23.529  0.00  0.00    +0.183 C 
ATOM     20  C   UNL     1      13.957   9.344  22.182  0.00  0.00    +0.190 C 
ENDROOT
BRANCH  18   8
ATOM      8  N   UNL     1      13.381   8.915  19.761  0.00  0.00    -0.187 N 
ATOM      9  N   UNL     1      13.071   9.902  18.914  0.00  0.00    -0.041 NA
ATOM     10  N   UNL     1      14.320   8.362  17.895  0.00  0.00    -0.071 NA
ATOM     11  N   UNL     1      13.651   9.558  17.770  0.00  0.00    -0.020 NA
ATOM     21  C   UNL     1      14.139   7.982  19.139  0.00  0.00    +0.342 A 
BRANCH  21   4
ATOM      4  O   UNL     1      14.605   6.884  19.705  0.00  0.00    -0.423 OA
BRANCH   4  25
ATOM     25  C   UNL     1      15.962   6.656  19.889  0.00  0.00    +0.132 A 
ATOM     29  C   UNL     1      16.631   5.839  18.998  0.00  0.00    +0.048 A 
ATOM     30  C   UNL     1      16.603   7.253  20.957  0.00  0.00    +0.048 A 
ATOM     32  C   UNL     1      17.994   5.610  19.182  0.00  0.00    +0.031 A 
ATOM     33  C   UNL     1      17.967   7.024  21.141  0.00  0.00    +0.031 A 
ATOM     34  C   UNL     1      18.662   6.202  20.253  0.00  0.00    +0.067 A 
BRANCH  34  12
ATOM     12  N   UNL     1      20.014   5.975  20.437  0.00  0.00    -0.220 N 
ATOM     13  N   UNL     1      20.547   4.741  20.373  0.00  0.00    -0.154 NA
ATOM     14  N   UNL     1      22.147   6.314  20.809  0.00  0.00    -0.222 NA
ATOM     35  C   UNL     1      20.979   6.904  20.697  0.00  0.00    +0.225 A 
ATOM     36  C   UNL     1      21.835   5.002  20.604  0.00  0.00    +0.245 A 
ENDBRANCH  34  12
ENDBRANCH   4  25
ENDBRANCH  21   4
ENDBRANCH  18   8
BRANCH  17   7
ATOM      7  N   UNL     1      10.560  12.531  22.497  0.00  0.00    -0.182 NA
ATOM     37  H   UNL     1       9.972  12.140  21.751  0.00  0.00    +0.148 HD
BRANCH   7   1
ATOM      1  S   UNL     1      10.714  14.219  22.618  0.00  0.00    +0.059 S 
ATOM      5  O   UNL     1      11.415  14.551  23.844  0.00  0.00    -0.153 OA
ATOM      6  O   UNL     1       9.431  14.827  22.323  0.00  0.00    -0.153 OA
BRANCH   1  22
ATOM     22  C   UNL     1      11.784  14.585  21.260  0.00  0.00    +0.105 A 
ATOM     23  C   UNL     1      13.153  14.474  21.429  0.00  0.00    +0.029 A 
ATOM     24  C   UNL     1      11.232  14.977  20.053  0.00  0.00    +0.029 A 
ATOM     26  C   UNL     1      13.997  14.763  20.356  0.00  0.00    +0.005 A 
ATOM     27  C   UNL     1      12.076  15.267  18.980  0.00  0.00    +0.005 A 
ATOM     28  C   UNL     1      13.459  15.160  19.132  0.00  0.00    -0.050 A 
ATOM     31  C   UNL     1      14.361  15.469  17.986  0.00  0.00    +0.044 C 
ENDBRANCH   1  22
ENDBRANCH   7   1
ENDBRANCH  17   7
TORSDOF 7
ENDMDL
MODEL 5
REMARK VINA RESULT:      -7.2      3.989      7.077
REMARK  Name = 11886269
REMARK  8 active torsions:
REMARK  status: ('A' for Active; 'I' for Inactive)
REMARK    1  A    between atoms: S_1  and  N_7
REMARK    2  A    between atoms: S_1  and  C_22
REMARK    3  A    between atoms: O_4  and  C_21
REMARK    4  A    between atoms: O_4  and  C_25
REMARK    5  A    between atoms: N_7  and  C_17
REMARK    6  A    between atoms: N_8  and  C_18
REMARK    7  A    between atoms: N_12  and  C_34
REMARK    8  A    between atoms: C_28  and  C_31
REMARK                            x       y       z     vdW  Elec       q    Type
REMARK                         _______ _______ _______ _____ _____    ______ ____
ROOT
ATOM      2  O   UNL     1     -16.389   3.742  32.419  0.00  0.00    -0.370 OA
ATOM      3  O   UNL     1     -13.772   2.423  33.495  0.00  0.00    -0.370 OA
ATOM     15  C   UNL     1     -14.032   3.471  32.546  0.00  0.00    +0.170 C 
ATOM     16  C   UNL     1     -15.279   3.088  31.775  0.00  0.00    +0.175 C 
ATOM     17  C   UNL     1     -14.412   4.746  33.266  0.00  0.00    +0.133 C 
ATOM     18  C   UNL     1     -15.395   1.586  31.954  0.00  0.00    +0.171 C 
ATOM     19  C   UNL     1     -15.898   4.536  33.508  0.00  0.00    +0.183 C 
ATOM     20  C   UNL     1     -14.701   1.349  33.292  0.00  0.00    +0.190 C 
ENDROOT
BRANCH  18   8
ATOM      8  N   UNL     1     -14.838   0.841  30.822  0.00  0.00    -0.187 N 
ATOM      9  N   UNL     1     -13.707   0.140  30.951  0.00  0.00    -0.041 NA
ATOM     10  N   UNL     1     -14.498  -0.031  28.874  0.00  0.00    -0.071 NA
ATOM     11  N   UNL     1     -13.503  -0.394  29.753  0.00  0.00    -0.020 NA
ATOM     21  C   UNL     1     -15.315   0.734  29.560  0.00  0.00    +0.342 A 
BRANCH  21   4
ATOM      4  O   UNL     1     -16.415   1.312  29.115  0.00  0.00    -0.423 OA
BRANCH   4  25
ATOM     25  C   UNL     1     -16.525   1.819  27.827  0.00  0.00    +0.132 A 
ATOM     29  C   UNL     1     -16.106   3.112  27.577  0.00  0.00    +0.048 A 
ATOM     30  C   UNL     1     -17.050   1.015  26.832  0.00  0.00    +0.048 A 
ATOM     32  C   UNL     1     -16.215   3.621  26.284  0.00  0.00    +0.031 A 
ATOM     33  C   UNL     1     -17.158   1.525  25.538  0.00  0.00    +0.031 A 
ATOM     34  C   UNL     1     -16.742   2.827  25.264  0.00  0.00    +0.067 A 
BRANCH  34  12
ATOM     12  N   UNL     1     -16.851   3.332  23.981  0.00  0.00    -0.220 N 
ATOM     13  N   UNL     1     -16.263   4.485  23.614  0.00  0.00    -0.154 NA
ATOM     14  N   UNL     1     -17.407   3.546  21.872  0.00  0.00    -0.222 NA
ATOM     35  C   UNL     1     -17.530   2.782  22.933  0.00  0.00    +0.225 A 
ATOM     36  C   UNL     1     -16.629   4.568  22.334  0.00  0.00    +0.245 A 
ENDBRANCH  34  12
ENDBRANCH   4  25
ENDBRANCH  21   4
ENDBRANCH  18   8
BRANCH  17   7
ATOM      7  N   UNL     1     -14.213   5.904  32.396  0.00  0.00    -0.182 NA
ATOM     37  H   UNL     1     -13.482   5.826  31.680  0.00  0.00    +0.148 HD
BRANCH   7   1
ATOM      1  S   UNL     1     -14.675   7.451  32.928  0.00  0.00    +0.059 S 
ATOM      5  O   UNL     1     -14.269   7.626  34.310  0.00  0.00    -0.153 OA
ATOM      6  O   UNL     1     -16.051   7.688  32.536  0.00  0.00    -0.153 OA
BRANCH   1  22
ATOM     22  C   UNL     1     -13.665   8.498  31.925  0.00  0.00    +0.105 A 
ATOM     23  C   UNL     1     -14.268   9.405  31.073  0.00  0.00    +0.029 A 
ATOM     24  C   UNL     1     -12.287   8.390  32.012  0.00  0.00    +0.029 A 
ATOM     26  C   UNL     1     -13.469  10.231  30.282  0.00  0.00    +0.005 A 
ATOM     27  C   UNL     1     -11.488   9.216  31.221  0.00  0.00    +0.005 A 
ATOM     28  C   UNL     1     -12.080  10.137  30.356  0.00  0.00    -0.050 A 
ATOM     31  C   UNL     1     -11.227  11.020  29.510  0.00  0.00    +0.044 C 
ENDBRANCH   1  22
ENDBRANCH   7   1
ENDBRANCH  17   7
TORSDOF 7
ENDMDL
MODEL 6
REMARK VINA RESULT:      -7.2     19.341     21.677
REMARK  Name = 11886269
REMARK  8 active torsions:
REMARK  status: ('A' for Active; 'I' for Inactive)
REMARK    1  A    between atoms: S_1  and  N_7
REMARK    2  A    between atoms: S_1  and  C_22
REMARK    3  A    between atoms: O_4  and  C_21
REMARK    4  A    between atoms: O_4  and  C_25
REMARK    5  A    between atoms: N_7  and  C_17
REMARK    6  A    between atoms: N_8  and  C_18
REMARK    7  A    between atoms: N_12  and  C_34
REMARK    8  A    between atoms: C_28  and  C_31
REMARK                            x       y       z     vdW  Elec       q    Type
REMARK                         _______ _______ _______ _____ _____    ______ ____
ROOT
ATOM      2  O   UNL     1      -5.174 -14.867  16.407  0.00  0.00    -0.370 OA
ATOM      3  O   UNL     1      -6.410 -12.220  15.308  0.00  0.00    -0.370 OA
ATOM     15  C   UNL     1      -5.080 -12.602  15.695  0.00  0.00    +0.170 C 
ATOM     16  C   UNL     1      -5.200 -13.514  16.900  0.00  0.00    +0.175 C 
ATOM     17  C   UNL     1      -4.454 -13.472  14.627  0.00  0.00    +0.133 C 
ATOM     18  C   UNL     1      -6.568 -13.205  17.479  0.00  0.00    +0.171 C 
ATOM     19  C   UNL     1      -5.001 -14.844  14.983  0.00  0.00    +0.183 C 
ATOM     20  C   UNL     1      -7.354 -12.730  16.261  0.00  0.00    +0.190 C 
ENDROOT
BRANCH  18   8
ATOM      8  N   UNL     1      -6.505 -12.253  18.590  0.00  0.00    -0.187 N 
ATOM      9  N   UNL     1      -5.343 -11.964  19.184  0.00  0.00    -0.041 NA
ATOM     10  N   UNL     1      -7.007 -10.822  20.131  0.00  0.00    -0.071 NA
ATOM     11  N   UNL     1      -5.656 -11.085  20.128  0.00  0.00    -0.020 NA
ATOM     21  C   UNL     1      -7.513 -11.557  19.168  0.00  0.00    +0.342 A 
BRANCH  21   4
ATOM      4  O   UNL     1      -8.782 -11.623  18.810  0.00  0.00    -0.423 OA
BRANCH   4  25
ATOM     25  C   UNL     1      -9.435 -10.575  18.177  0.00  0.00    +0.132 A 
ATOM     29  C   UNL     1      -8.706  -9.714  17.378  0.00  0.00    +0.048 A 
ATOM     30  C   UNL     1     -10.796 -10.422  18.363  0.00  0.00    +0.048 A 
ATOM     32  C   UNL     1      -9.362  -8.662  16.740  0.00  0.00    +0.031 A 
ATOM     33  C   UNL     1     -11.452  -9.369  17.725  0.00  0.00    +0.031 A 
ATOM     34  C   UNL     1     -10.735  -8.489  16.914  0.00  0.00    +0.067 A 
BRANCH  34  12
ATOM     12  N   UNL     1     -11.386  -7.445  16.283  0.00  0.00    -0.220 N 
ATOM     13  N   UNL     1     -12.725  -7.410  16.156  0.00  0.00    -0.154 NA
ATOM     14  N   UNL     1     -11.753  -5.567  15.213  0.00  0.00    -0.222 NA
ATOM     35  C   UNL     1     -10.819  -6.340  15.717  0.00  0.00    +0.225 A 
ATOM     36  C   UNL     1     -12.894  -6.258  15.504  0.00  0.00    +0.245 A 
ENDBRANCH  34  12
ENDBRANCH   4  25
ENDBRANCH  21   4
ENDBRANCH  18   8
BRANCH  17   7
ATOM      7  N   UNL     1      -2.998 -13.472  14.754  0.00  0.00    -0.182 NA
ATOM     37  H   UNL     1      -2.601 -12.937  15.535  0.00  0.00    +0.148 HD
BRANCH   7   1
ATOM      1  S   UNL     1      -2.030 -13.770  13.390  0.00  0.00    +0.059 S 
ATOM      5  O   UNL     1      -2.444 -15.013  12.767  0.00  0.00    -0.153 OA
ATOM      6  O   UNL     1      -0.640 -13.561  13.748  0.00  0.00    -0.153 OA
BRANCH   1  22
ATOM     22  C   UNL     1      -2.491 -12.443  12.319  0.00  0.00    +0.105 A 
ATOM     23  C   UNL     1      -3.322 -12.699  11.242  0.00  0.00    +0.029 A 
ATOM     24  C   UNL     1      -2.012 -11.170  12.577  0.00  0.00    +0.029 A 
ATOM     26  C   UNL     1      -3.686 -11.650  10.398  0.00  0.00    +0.005 A 
ATOM     27  C   UNL     1      -2.376 -10.121  11.732  0.00  0.00    +0.005 A 
ATOM     28  C   UNL     1      -3.213 -10.361  10.642  0.00  0.00    -0.050 A 
ATOM     31  C   UNL     1      -3.602  -9.241   9.739  0.00  0.00    +0.044 C 
ENDBRANCH   1  22
ENDBRANCH   7   1
ENDBRANCH  17   7
TORSDOF 7
ENDMDL
MODEL 7
REMARK VINA RESULT:      -7.2     20.060     21.568
REMARK  Name = 11886269
REMARK  8 active torsions:
REMARK  status: ('A' for Active; 'I' for Inactive)
REMARK    1  A    between atoms: S_1  and  N_7
REMARK    2  A    between atoms: S_1  and  C_22
REMARK    3  A    between atoms: O_4  and  C_21
REMARK    4  A    between atoms: O_4  and  C_25
REMARK    5  A    between atoms: N_7  and  C_17
REMARK    6  A    between atoms: N_8  and  C_18
REMARK    7  A    between atoms: N_12  and  C_34
REMARK    8  A    between atoms: C_28  and  C_31
REMARK                            x       y       z     vdW  Elec       q    Type
REMARK                         _______ _______ _______ _____ _____    ______ ____
ROOT
ATOM      2  O   UNL     1      -6.725 -12.029  14.900  0.00  0.00    -0.370 OA
ATOM      3  O   UNL     1      -5.106 -13.970  16.732  0.00  0.00    -0.370 OA
ATOM     15  C   UNL     1      -5.746 -12.703  16.957  0.00  0.00    +0.170 C 
ATOM     16  C   UNL     1      -5.547 -11.864  15.711  0.00  0.00    +0.175 C 
ATOM     17  C   UNL     1      -7.245 -12.884  17.053  0.00  0.00    +0.133 C 
ATOM     18  C   UNL     1      -4.353 -12.489  15.014  0.00  0.00    +0.171 C 
ATOM     19  C   UNL     1      -7.653 -12.879  15.589  0.00  0.00    +0.183 C 
ATOM     20  C   UNL     1      -4.413 -13.942  15.475  0.00  0.00    +0.190 C 
ENDROOT
BRANCH  18   8
ATOM      8  N   UNL     1      -3.100 -11.792  15.313  0.00  0.00    -0.187 N 
ATOM      9  N   UNL     1      -2.963 -11.073  16.431  0.00  0.00    -0.041 NA
ATOM     10  N   UNL     1      -1.088 -11.005  15.226  0.00  0.00    -0.071 NA
ATOM     11  N   UNL     1      -1.726 -10.593  16.374  0.00  0.00    -0.020 NA
ATOM     21  C   UNL     1      -1.959 -11.749  14.584  0.00  0.00    +0.342 A 
BRANCH  21   4
ATOM      4  O   UNL     1      -1.777 -12.356  13.426  0.00  0.00    -0.423 OA
BRANCH   4  25
ATOM     25  C   UNL     1      -2.437 -11.968  12.267  0.00  0.00    +0.132 A 
ATOM     29  C   UNL     1      -2.376 -10.646  11.870  0.00  0.00    +0.048 A 
ATOM     30  C   UNL     1      -3.136 -12.916  11.545  0.00  0.00    +0.048 A 
ATOM     32  C   UNL     1      -3.037 -10.257  10.707  0.00  0.00    +0.031 A 
ATOM     33  C   UNL     1      -3.798 -12.527  10.380  0.00  0.00    +0.031 A 
ATOM     34  C   UNL     1      -3.749 -11.197   9.962  0.00  0.00    +0.067 A 
BRANCH  34  12
ATOM     12  N   UNL     1      -4.406 -10.811   8.808  0.00  0.00    -0.220 N 
ATOM     13  N   UNL     1      -4.492 -11.614   7.732  0.00  0.00    -0.154 NA
ATOM     14  N   UNL     1      -5.548  -9.620   7.365  0.00  0.00    -0.222 NA
ATOM     35  C   UNL     1      -5.039  -9.624   8.575  0.00  0.00    +0.225 A 
ATOM     36  C   UNL     1      -5.191 -10.849   6.891  0.00  0.00    +0.245 A 
ENDBRANCH  34  12
ENDBRANCH   4  25
ENDBRANCH  21   4
ENDBRANCH  18   8
BRANCH  17   7
ATOM      7  N   UNL     1      -7.856 -11.746  17.738  0.00  0.00    -0.182 NA
ATOM     37  H   UNL     1      -7.731 -10.823  17.306  0.00  0.00    +0.148 HD
BRANCH   7   1
ATOM      1  S   UNL     1      -8.171 -11.833  19.406  0.00  0.00    +0.059 S 
ATOM      5  O   UNL     1      -7.323 -10.887  20.106  0.00  0.00    -0.153 OA
ATOM      6  O   UNL     1      -8.195 -13.227  19.805  0.00  0.00    -0.153 OA
BRANCH   1  22
ATOM     22  C   UNL     1      -9.834 -11.242  19.493  0.00  0.00    +0.105 A 
ATOM     23  C   UNL     1     -10.734 -11.875  20.333  0.00  0.00    +0.029 A 
ATOM     24  C   UNL     1     -10.206 -10.156  18.719  0.00  0.00    +0.029 A 
ATOM     26  C   UNL     1     -12.046 -11.408  20.402  0.00  0.00    +0.005 A 
ATOM     27  C   UNL     1     -11.519  -9.689  18.788  0.00  0.00    +0.005 A 
ATOM     28  C   UNL     1     -12.439 -10.315  19.629  0.00  0.00    -0.050 A 
ATOM     31  C   UNL     1     -13.842  -9.816  19.702  0.00  0.00    +0.044 C 
ENDBRANCH   1  22
ENDBRANCH   7   1
ENDBRANCH  17   7
TORSDOF 7
ENDMDL
MODEL 8
REMARK VINA RESULT:      -7.1     18.103     21.300
REMARK  Name = 11886269
REMARK  8 active torsions:
REMARK  status: ('A' for Active; 'I' for Inactive)
REMARK    1  A    between atoms: S_1  and  N_7
REMARK    2  A    between atoms: S_1  and  C_22
REMARK    3  A    between atoms: O_4  and  C_21
REMARK    4  A    between atoms: O_4  and  C_25
REMARK    5  A    between atoms: N_7  and  C_17
REMARK    6  A    between atoms: N_8  and  C_18
REMARK    7  A    between atoms: N_12  and  C_34
REMARK    8  A    between atoms: C_28  and  C_31
REMARK                            x       y       z     vdW  Elec       q    Type
REMARK                         _______ _______ _______ _____ _____    ______ ____
ROOT
ATOM      2  O   UNL     1      -5.206 -10.360  18.255  0.00  0.00    -0.370 OA
ATOM      3  O   UNL     1      -6.321 -12.699  16.515  0.00  0.00    -0.370 OA
ATOM     15  C   UNL     1      -5.712 -11.436  16.198  0.00  0.00    +0.170 C 
ATOM     16  C   UNL     1      -6.202 -10.426  17.217  0.00  0.00    +0.175 C 
ATOM     17  C   UNL     1      -4.218 -11.505  16.425  0.00  0.00    +0.133 C 
ATOM     18  C   UNL     1      -7.480 -11.028  17.770  0.00  0.00    +0.171 C 
ATOM     19  C   UNL     1      -4.116 -11.230  17.916  0.00  0.00    +0.183 C 
ATOM     20  C   UNL     1      -7.256 -12.526  17.590  0.00  0.00    +0.190 C 
ENDROOT
BRANCH  18   8
ATOM      8  N   UNL     1      -8.679 -10.495  17.120  0.00  0.00    -0.187 N 
ATOM      9  N   UNL     1      -8.800 -10.503  15.789  0.00  0.00    -0.041 NA
ATOM     10  N   UNL     1     -10.609  -9.602  16.730  0.00  0.00    -0.071 NA
ATOM     11  N   UNL     1      -9.987  -9.955  15.554  0.00  0.00    -0.020 NA
ATOM     21  C   UNL     1      -9.779  -9.947  17.688  0.00  0.00    +0.342 A 
BRANCH  21   4
ATOM      4  O   UNL     1      -9.965  -9.794  18.986  0.00  0.00    -0.423 OA
BRANCH   4  25
ATOM     25  C   UNL     1     -10.890 -10.540  19.702  0.00  0.00    +0.132 A 
ATOM     29  C   UNL     1     -12.081  -9.949  20.080  0.00  0.00    +0.048 A 
ATOM     30  C   UNL     1     -10.594 -11.853  20.016  0.00  0.00    +0.048 A 
ATOM     32  C   UNL     1     -13.011 -10.698  20.798  0.00  0.00    +0.031 A 
ATOM     33  C   UNL     1     -11.526 -12.603  20.735  0.00  0.00    +0.031 A 
ATOM     34  C   UNL     1     -12.733 -12.025  21.126  0.00  0.00    +0.067 A 
BRANCH  34  12
ATOM     12  N   UNL     1     -13.656 -12.769  21.839  0.00  0.00    -0.220 N 
ATOM     13  N   UNL     1     -14.030 -12.437  23.088  0.00  0.00    -0.154 NA
ATOM     14  N   UNL     1     -15.104 -14.325  22.375  0.00  0.00    -0.222 NA
ATOM     35  C   UNL     1     -14.304 -13.897  21.426  0.00  0.00    +0.225 A 
ATOM     36  C   UNL     1     -14.905 -13.406  23.364  0.00  0.00    +0.245 A 
ENDBRANCH  34  12
ENDBRANCH   4  25
ENDBRANCH  21   4
ENDBRANCH  18   8
BRANCH  17   7
ATOM      7  N   UNL     1      -3.538 -10.446  15.681  0.00  0.00    -0.182 NA
ATOM     37  H   UNL     1      -4.092  -9.614  15.447  0.00  0.00    +0.148 HD
BRANCH   7   1
ATOM      1  S   UNL     1      -2.180 -10.819  14.730  0.00  0.00    +0.059 S 
ATOM      5  O   UNL     1      -1.958 -12.252  14.748  0.00  0.00    -0.153 OA
ATOM      6  O   UNL     1      -1.104  -9.909  15.075  0.00  0.00    -0.153 OA
BRANCH   1  22
ATOM     22  C   UNL     1      -2.734 -10.372  13.113  0.00  0.00    +0.105 A 
ATOM     23  C   UNL     1      -4.090 -10.388  12.834  0.00  0.00    +0.029 A 
ATOM     24  C   UNL     1      -1.801 -10.015  12.154  0.00  0.00    +0.029 A 
ATOM     26  C   UNL     1      -4.527 -10.035  11.557  0.00  0.00    +0.005 A 
ATOM     27  C   UNL     1      -2.238  -9.662  10.877  0.00  0.00    +0.005 A 
ATOM     28  C   UNL     1      -3.601  -9.672  10.579  0.00  0.00    -0.050 A 
ATOM     31  C   UNL     1      -4.068  -9.296   9.214  0.00  0.00    +0.044 C 
ENDBRANCH   1  22
ENDBRANCH   7   1
ENDBRANCH  17   7
TORSDOF 7
ENDMDL
MODEL 9
REMARK VINA RESULT:      -7.1     32.647     36.696
REMARK  Name = 11886269
REMARK  8 active torsions:
REMARK  status: ('A' for Active; 'I' for Inactive)
REMARK    1  A    between atoms: S_1  and  N_7
REMARK    2  A    between atoms: S_1  and  C_22
REMARK    3  A    between atoms: O_4  and  C_21
REMARK    4  A    between atoms: O_4  and  C_25
REMARK    5  A    between atoms: N_7  and  C_17
REMARK    6  A    between atoms: N_8  and  C_18
REMARK    7  A    between atoms: N_12  and  C_34
REMARK    8  A    between atoms: C_28  and  C_31
REMARK                            x       y       z     vdW  Elec       q    Type
REMARK                         _______ _______ _______ _____ _____    ______ ____
ROOT
ATOM      2  O   UNL     1      14.409   6.916   6.607  0.00  0.00    -0.370 OA
ATOM      3  O   UNL     1      12.871   9.277   5.264  0.00  0.00    -0.370 OA
ATOM     15  C   UNL     1      12.834   7.850   5.094  0.00  0.00    +0.170 C 
ATOM     16  C   UNL     1      14.252   7.337   5.238  0.00  0.00    +0.175 C 
ATOM     17  C   UNL     1      12.082   7.207   6.239  0.00  0.00    +0.133 C 
ATOM     18  C   UNL     1      15.127   8.546   4.970  0.00  0.00    +0.171 C 
ATOM     19  C   UNL     1      13.165   7.097   7.299  0.00  0.00    +0.183 C 
ATOM     20  C   UNL     1      14.234   9.711   5.385  0.00  0.00    +0.190 C 
ENDROOT
BRANCH  18   8
ATOM      8  N   UNL     1      15.612   8.594   3.588  0.00  0.00    -0.187 N 
ATOM      9  N   UNL     1      16.161   9.706   3.091  0.00  0.00    -0.041 NA
ATOM     10  N   UNL     1      16.128   8.095   1.550  0.00  0.00    -0.071 NA
ATOM     11  N   UNL     1      16.477   9.395   1.840  0.00  0.00    -0.020 NA
ATOM     21  C   UNL     1      15.594   7.618   2.650  0.00  0.00    +0.342 A 
BRANCH  21   4
ATOM      4  O   UNL     1      15.114   6.402   2.831  0.00  0.00    -0.423 OA
BRANCH   4  25
ATOM     25  C   UNL     1      14.339   5.755   1.877  0.00  0.00    +0.132 A 
ATOM     29  C   UNL     1      14.859   4.652   1.227  0.00  0.00    +0.048 A 
ATOM     30  C   UNL     1      13.071   6.233   1.606  0.00  0.00    +0.048 A 
ATOM     32  C   UNL     1      14.081   4.001   0.270  0.00  0.00    +0.031 A 
ATOM     33  C   UNL     1      12.293   5.582   0.649  0.00  0.00    +0.031 A 
ATOM     34  C   UNL     1      12.798   4.466  -0.019  0.00  0.00    +0.067 A 
BRANCH  34  12
ATOM     12  N   UNL     1      12.027   3.822  -0.969  0.00  0.00    -0.220 N 
ATOM     13  N   UNL     1      12.404   2.656  -1.525  0.00  0.00    -0.154 NA
ATOM     14  N   UNL     1      10.394   3.360  -2.357  0.00  0.00    -0.222 NA
ATOM     35  C   UNL     1      10.827   4.231  -1.474  0.00  0.00    +0.225 A 
ATOM     36  C   UNL     1      11.384   2.422  -2.353  0.00  0.00    +0.245 A 
ENDBRANCH  34  12
ENDBRANCH   4  25
ENDBRANCH  21   4
ENDBRANCH  18   8
BRANCH  17   7
ATOM      7  N   UNL     1      11.622   5.871   5.864  0.00  0.00    -0.182 NA
ATOM     37  H   UNL     1      12.232   5.329   5.240  0.00  0.00    +0.148 HD
BRANCH   7   1
ATOM      1  S   UNL     1       9.963   5.504   5.910  0.00  0.00    +0.059 S 
ATOM      5  O   UNL     1       9.418   5.899   7.194  0.00  0.00    -0.153 OA
ATOM      6  O   UNL     1       9.770   4.153   5.418  0.00  0.00    -0.153 OA
BRANCH   1  22
ATOM     22  C   UNL     1       9.314   6.597   4.682  0.00  0.00    +0.105 A 
ATOM     23  C   UNL     1       8.350   7.522   5.042  0.00  0.00    +0.029 A 
ATOM     24  C   UNL     1       9.783   6.507   3.383  0.00  0.00    +0.029 A 
ATOM     26  C   UNL     1       7.838   8.385   4.072  0.00  0.00    +0.005 A 
ATOM     27  C   UNL     1       9.271   7.370   2.413  0.00  0.00    +0.005 A 
ATOM     28  C   UNL     1       8.299   8.309   2.758  0.00  0.00    -0.050 A 
ATOM     31  C   UNL     1       7.751   9.231   1.722  0.00  0.00    +0.044 C 
ENDBRANCH   1  22
ENDBRANCH   7   1
ENDBRANCH  17   7
TORSDOF 7
ENDMDL
MODEL 10
REMARK VINA RESULT:      -7.1      3.313     10.223
REMARK  Name = 11886269
REMARK  8 active torsions:
REMARK  status: ('A' for Active; 'I' for Inactive)
REMARK    1  A    between atoms: S_1  and  N_7
REMARK    2  A    between atoms: S_1  and  C_22
REMARK    3  A    between atoms: O_4  and  C_21
REMARK    4  A    between atoms: O_4  and  C_25
REMARK    5  A    between atoms: N_7  and  C_17
REMARK    6  A    between atoms: N_8  and  C_18
REMARK    7  A    between atoms: N_12  and  C_34
REMARK    8  A    between atoms: C_28  and  C_31
REMARK                            x       y       z     vdW  Elec       q    Type
REMARK                         _______ _______ _______ _____ _____    ______ ____
ROOT
ATOM      2  O   UNL     1     -14.271   4.328  23.869  0.00  0.00    -0.370 OA
ATOM      3  O   UNL     1     -17.041   4.258  22.432  0.00  0.00    -0.370 OA
ATOM     15  C   UNL     1     -16.366   5.247  23.228  0.00  0.00    +0.170 C 
ATOM     16  C   UNL     1     -15.623   4.516  24.328  0.00  0.00    +0.175 C 
ATOM     17  C   UNL     1     -15.277   5.915  22.418  0.00  0.00    +0.133 C 
ATOM     18  C   UNL     1     -16.320   3.173  24.435  0.00  0.00    +0.171 C 
ATOM     19  C   UNL     1     -14.125   4.936  22.577  0.00  0.00    +0.183 C 
ATOM     20  C   UNL     1     -16.873   2.964  23.029  0.00  0.00    +0.190 C 
ENDROOT
BRANCH  18   8
ATOM      8  N   UNL     1     -17.316   3.141  25.508  0.00  0.00    -0.187 N 
ATOM      9  N   UNL     1     -18.609   3.365  25.252  0.00  0.00    -0.041 NA
ATOM     10  N   UNL     1     -18.301   2.974  27.425  0.00  0.00    -0.071 NA
ATOM     11  N   UNL     1     -19.209   3.261  26.431  0.00  0.00    -0.020 NA
ATOM     21  C   UNL     1     -17.133   2.904  26.829  0.00  0.00    +0.342 A 
BRANCH  21   4
ATOM      4  O   UNL     1     -15.970   2.650  27.398  0.00  0.00    -0.423 OA
BRANCH   4  25
ATOM     25  C   UNL     1     -15.659   3.074  28.683  0.00  0.00    +0.132 A 
ATOM     29  C   UNL     1     -14.938   2.234  29.511  0.00  0.00    +0.048 A 
ATOM     30  C   UNL     1     -16.080   4.324  29.097  0.00  0.00    +0.048 A 
ATOM     32  C   UNL     1     -14.625   2.660  30.801  0.00  0.00    +0.031 A 
ATOM     33  C   UNL     1     -15.766   4.750  30.388  0.00  0.00    +0.031 A 
ATOM     34  C   UNL     1     -15.039   3.918  31.240  0.00  0.00    +0.067 A 
BRANCH  34  12
ATOM     12  N   UNL     1     -14.729   4.340  32.520  0.00  0.00    -0.220 N 
ATOM     13  N   UNL     1     -14.428   5.622  32.796  0.00  0.00    -0.154 NA
ATOM     14  N   UNL     1     -14.349   4.327  34.678  0.00  0.00    -0.222 NA
ATOM     35  C   UNL     1     -14.679   3.578  33.651  0.00  0.00    +0.225 A 
ATOM     36  C   UNL     1     -14.208   5.560  34.111  0.00  0.00    +0.245 A 
ENDBRANCH  34  12
ENDBRANCH   4  25
ENDBRANCH  21   4
ENDBRANCH  18   8
BRANCH  17   7
ATOM      7  N   UNL     1     -14.915   7.202  23.008  0.00  0.00    -0.182 NA
ATOM     37  H   UNL     1     -15.000   7.284  24.029  0.00  0.00    +0.148 HD
BRANCH   7   1
ATOM      1  S   UNL     1     -14.980   8.614  22.066  0.00  0.00    +0.059 S 
ATOM      5  O   UNL     1     -14.521   9.741  22.855  0.00  0.00    -0.153 OA
ATOM      6  O   UNL     1     -16.264   8.668  21.394  0.00  0.00    -0.153 OA
BRANCH   1  22
ATOM     22  C   UNL     1     -13.763   8.282  20.828  0.00  0.00    +0.105 A 
ATOM     23  C   UNL     1     -12.472   7.970  21.215  0.00  0.00    +0.029 A 
ATOM     24  C   UNL     1     -14.125   8.341  19.493  0.00  0.00    +0.029 A 
ATOM     26  C   UNL     1     -11.512   7.708  20.237  0.00  0.00    +0.005 A 
ATOM     27  C   UNL     1     -13.166   8.079  18.515  0.00  0.00    +0.005 A 
ATOM     28  C   UNL     1     -11.859   7.763  18.887  0.00  0.00    -0.050 A 
ATOM     31  C   UNL     1     -10.833   7.483  17.842  0.00  0.00    +0.044 C 
ENDBRANCH   1  22
ENDBRANCH   7   1
ENDBRANCH  17   7
TORSDOF 7
ENDMDL
