MODEL 1
REMARK VINA RESULT:      -6.3      0.000      0.000
REMARK  Name = 75537128
REMARK  3 active torsions:
REMARK  status: ('A' for Active; 'I' for Inactive)
REMARK    1  A    between atoms: N_2  and  C_7
REMARK    2  A    between atoms: N_4  and  C_18
REMARK    3  A    between atoms: C_18  and  C_19
REMARK                            x       y       z     vdW  Elec       q    Type
REMARK                         _______ _______ _______ _____ _____    ______ ____
ROOT
ATOM      1  O   UNL     1      -1.847 -10.930  16.075  0.00  0.00    -0.252 OA
ATOM      2  N   UNL     1      -4.171 -10.700  15.745  0.00  0.00    -0.281 N 
ATOM      3  N   UNL     1      -2.843 -10.910  13.947  0.00  0.00    -0.278 N 
ATOM      4  N   UNL     1      -3.229 -10.268  11.236  0.00  0.00    -0.295 NA
ATOM      6  C   UNL     1      -4.186 -10.916  13.408  0.00  0.00    +0.109 C 
ATOM      8  C   UNL     1      -5.059 -10.545  14.606  0.00  0.00    +0.133 C 
ATOM      9  C   UNL     1      -4.288  -9.962  12.219  0.00  0.00    +0.109 C 
ATOM     12  C   UNL     1      -2.829 -10.860  15.347  0.00  0.00    +0.305 C 
ATOM     13  C   UNL     1      -1.717 -11.052  13.047  0.00  0.00    +0.125 C 
ATOM     14  C   UNL     1      -1.889 -10.123  11.842  0.00  0.00    +0.104 C 
ENDROOT
BRANCH   2   7
ATOM      7  C   UNL     1      -4.636 -10.547  17.103  0.00  0.00    +0.078 C 
ATOM     10  C   UNL     1      -4.292 -11.788  17.930  0.00  0.00    +0.022 C 
ATOM     11  C   UNL     1      -6.138 -10.258  17.132  0.00  0.00    +0.022 C 
ATOM     15  C   UNL     1      -4.818 -11.676  19.359  0.00  0.00    +0.002 C 
ATOM     16  C   UNL     1      -6.662 -10.146  18.562  0.00  0.00    +0.002 C 
ATOM     17  C   UNL     1      -6.316 -11.384  19.386  0.00  0.00    +0.000 C 
ENDBRANCH   2   7
BRANCH   4  18
ATOM     18  C   UNL     1      -3.354  -9.400  10.065  0.00  0.00    +0.119 C 
BRANCH  18  19
ATOM      5  N   UNL     1      -6.716 -10.498   7.618  0.00  0.00    -0.263 NA
ATOM     19  C   UNL     1      -4.531  -9.783   9.208  0.00  0.00    -0.031 A 
ATOM     20  C   UNL     1      -5.605  -8.912   9.064  0.00  0.00    +0.024 A 
ATOM     21  C   UNL     1      -4.548 -11.012   8.557  0.00  0.00    +0.024 A 
ATOM     22  C   UNL     1      -6.664  -9.313   8.266  0.00  0.00    +0.111 A 
ATOM     23  C   UNL     1      -5.655 -11.320   7.781  0.00  0.00    +0.111 A 
ENDBRANCH  18  19
ENDBRANCH   4  18
TORSDOF 3
ENDMDL
MODEL 2
REMARK VINA RESULT:      -6.3     27.554     29.357
REMARK  Name = 75537128
REMARK  3 active torsions:
REMARK  status: ('A' for Active; 'I' for Inactive)
REMARK    1  A    between atoms: N_2  and  C_7
REMARK    2  A    between atoms: N_4  and  C_18
REMARK    3  A    between atoms: C_18  and  C_19
REMARK                            x       y       z     vdW  Elec       q    Type
REMARK                         _______ _______ _______ _____ _____    ______ ____
ROOT
ATOM      1  O   UNL     1      19.850   8.626  22.330  0.00  0.00    -0.252 OA
ATOM      2  N   UNL     1      19.810   6.660  21.029  0.00  0.00    -0.281 N 
ATOM      3  N   UNL     1      17.956   7.924  21.131  0.00  0.00    -0.278 N 
ATOM      4  N   UNL     1      15.256   7.353  20.589  0.00  0.00    -0.295 NA
ATOM      6  C   UNL     1      17.636   6.888  20.172  0.00  0.00    +0.109 C 
ATOM      8  C   UNL     1      18.809   5.915  20.285  0.00  0.00    +0.133 C 
ATOM      9  C   UNL     1      16.267   6.282  20.479  0.00  0.00    +0.109 C 
ATOM     12  C   UNL     1      19.278   7.839  21.587  0.00  0.00    +0.305 C 
ATOM     13  C   UNL     1      16.973   8.944  21.428  0.00  0.00    +0.125 C 
ATOM     14  C   UNL     1      15.605   8.299  21.669  0.00  0.00    +0.104 C 
ENDROOT
BRANCH   2   7
ATOM      7  C   UNL     1      21.133   6.136  21.266  0.00  0.00    +0.078 C 
ATOM     10  C   UNL     1      22.163   6.867  20.401  0.00  0.00    +0.022 C 
ATOM     11  C   UNL     1      21.171   4.626  21.018  0.00  0.00    +0.022 C 
ATOM     15  C   UNL     1      23.566   6.298  20.593  0.00  0.00    +0.002 C 
ATOM     16  C   UNL     1      22.575   4.059  21.211  0.00  0.00    +0.002 C 
ATOM     17  C   UNL     1      23.600   4.792  20.349  0.00  0.00    +0.000 C 
ENDBRANCH   2   7
BRANCH   4  18
ATOM     18  C   UNL     1      13.930   6.780  20.823  0.00  0.00    +0.119 C 
BRANCH  18  19
ATOM      5  N   UNL     1      10.957   8.533  18.257  0.00  0.00    -0.263 NA
ATOM     19  C   UNL     1      12.889   7.392  19.925  0.00  0.00    -0.031 A 
ATOM     20  C   UNL     1      13.033   7.329  18.543  0.00  0.00    +0.024 A 
ATOM     21  C   UNL     1      11.780   8.026  20.474  0.00  0.00    +0.024 A 
ATOM     22  C   UNL     1      12.049   7.910  17.761  0.00  0.00    +0.111 A 
ATOM     23  C   UNL     1      10.851   8.576  19.604  0.00  0.00    +0.111 A 
ENDBRANCH  18  19
ENDBRANCH   4  18
TORSDOF 3
ENDMDL
MODEL 3
REMARK VINA RESULT:      -6.2      3.601      6.014
REMARK  Name = 75537128
REMARK  3 active torsions:
REMARK  status: ('A' for Active; 'I' for Inactive)
REMARK    1  A    between atoms: N_2  and  C_7
REMARK    2  A    between atoms: N_4  and  C_18
REMARK    3  A    between atoms: C_18  and  C_19
REMARK                            x       y       z     vdW  Elec       q    Type
REMARK                         _______ _______ _______ _____ _____    ______ ____
ROOT
ATOM      1  O   UNL     1      -8.062 -10.900  19.855  0.00  0.00    -0.252 OA
ATOM      2  N   UNL     1      -8.386 -10.045  17.681  0.00  0.00    -0.281 N 
ATOM      3  N   UNL     1      -6.537 -11.249  18.103  0.00  0.00    -0.278 N 
ATOM      4  N   UNL     1      -4.067 -11.435  16.771  0.00  0.00    -0.295 NA
ATOM      6  C   UNL     1      -6.486 -10.992  16.679  0.00  0.00    +0.109 C 
ATOM      8  C   UNL     1      -7.616  -9.988  16.451  0.00  0.00    +0.133 C 
ATOM      9  C   UNL     1      -5.097 -10.499  16.277  0.00  0.00    +0.109 C 
ATOM     12  C   UNL     1      -7.708 -10.754  18.693  0.00  0.00    +0.305 C 
ATOM     13  C   UNL     1      -5.490 -12.035  18.719  0.00  0.00    +0.125 C 
ATOM     14  C   UNL     1      -4.119 -11.546  18.243  0.00  0.00    +0.104 C 
ENDROOT
BRANCH   2   7
ATOM      7  C   UNL     1      -9.621  -9.317  17.844  0.00  0.00    +0.078 C 
ATOM     10  C   UNL     1     -10.820 -10.263  17.742  0.00  0.00    +0.022 C 
ATOM     11  C   UNL     1      -9.720  -8.181  16.823  0.00  0.00    +0.022 C 
ATOM     15  C   UNL     1     -12.143  -9.512  17.858  0.00  0.00    +0.002 C 
ATOM     16  C   UNL     1     -11.044  -7.431  16.941  0.00  0.00    +0.002 C 
ATOM     17  C   UNL     1     -12.237  -8.378  16.841  0.00  0.00    +0.000 C 
ENDBRANCH   2   7
BRANCH   4  18
ATOM     18  C   UNL     1      -2.738 -11.004  16.339  0.00  0.00    +0.119 C 
BRANCH  18  19
ATOM      5  N   UNL     1      -2.040 -11.900  12.191  0.00  0.00    -0.263 NA
ATOM     19  C   UNL     1      -2.492 -11.317  14.887  0.00  0.00    -0.031 A 
ATOM     20  C   UNL     1      -2.104 -10.310  14.010  0.00  0.00    +0.024 A 
ATOM     21  C   UNL     1      -2.654 -12.615  14.417  0.00  0.00    +0.024 A 
ATOM     22  C   UNL     1      -1.893 -10.650  12.684  0.00  0.00    +0.111 A 
ATOM     23  C   UNL     1      -2.418 -12.853  13.072  0.00  0.00    +0.111 A 
ENDBRANCH  18  19
ENDBRANCH   4  18
TORSDOF 3
ENDMDL
MODEL 4
REMARK VINA RESULT:      -6.2     26.566     27.792
REMARK  Name = 75537128
REMARK  3 active torsions:
REMARK  status: ('A' for Active; 'I' for Inactive)
REMARK    1  A    between atoms: N_2  and  C_7
REMARK    2  A    between atoms: N_4  and  C_18
REMARK    3  A    between atoms: C_18  and  C_19
REMARK                            x       y       z     vdW  Elec       q    Type
REMARK                         _______ _______ _______ _____ _____    ______ ____
ROOT
ATOM      1  O   UNL     1      13.531  11.869  22.788  0.00  0.00    -0.252 OA
ATOM      2  N   UNL     1      11.410  10.874  23.060  0.00  0.00    -0.281 N 
ATOM      3  N   UNL     1      13.022   9.709  22.016  0.00  0.00    -0.278 N 
ATOM      4  N   UNL     1      12.925   7.497  20.282  0.00  0.00    -0.295 NA
ATOM      6  C   UNL     1      11.916   8.782  22.122  0.00  0.00    +0.109 C 
ATOM      8  C   UNL     1      10.762   9.650  22.621  0.00  0.00    +0.133 C 
ATOM      9  C   UNL     1      11.668   8.092  20.782  0.00  0.00    +0.109 C 
ATOM     12  C   UNL     1      12.755  10.934  22.643  0.00  0.00    +0.305 C 
ATOM     13  C   UNL     1      14.258   9.271  21.402  0.00  0.00    +0.125 C 
ATOM     14  C   UNL     1      13.960   8.534  20.093  0.00  0.00    +0.104 C 
ENDROOT
BRANCH   2   7
ATOM      7  C   UNL     1      10.680  11.936  23.708  0.00  0.00    +0.078 C 
ATOM     10  C   UNL     1      10.619  13.172  22.808  0.00  0.00    +0.022 C 
ATOM     11  C   UNL     1      11.298  12.267  25.068  0.00  0.00    +0.022 C 
ATOM     15  C   UNL     1       9.896  14.331  23.490  0.00  0.00    +0.002 C 
ATOM     16  C   UNL     1      10.574  13.427  25.749  0.00  0.00    +0.002 C 
ATOM     17  C   UNL     1      10.513  14.657  24.848  0.00  0.00    +0.000 C 
ENDBRANCH   2   7
BRANCH   4  18
ATOM     18  C   UNL     1      12.686   6.782  19.028  0.00  0.00    +0.119 C 
BRANCH  18  19
ATOM      5  N   UNL     1      13.011   9.386  15.621  0.00  0.00    -0.263 NA
ATOM     19  C   UNL     1      12.800   7.692  17.835  0.00  0.00    -0.031 A 
ATOM     20  C   UNL     1      14.005   7.799  17.149  0.00  0.00    +0.024 A 
ATOM     21  C   UNL     1      11.700   8.432  17.415  0.00  0.00    +0.024 A 
ATOM     22  C   UNL     1      14.058   8.652  16.059  0.00  0.00    +0.111 A 
ATOM     23  C   UNL     1      11.856   9.257  16.312  0.00  0.00    +0.111 A 
ENDBRANCH  18  19
ENDBRANCH   4  18
TORSDOF 3
ENDMDL
MODEL 5
REMARK VINA RESULT:      -6.2      2.285      3.504
REMARK  Name = 75537128
REMARK  3 active torsions:
REMARK  status: ('A' for Active; 'I' for Inactive)
REMARK    1  A    between atoms: N_2  and  C_7
REMARK    2  A    between atoms: N_4  and  C_18
REMARK    3  A    between atoms: C_18  and  C_19
REMARK                            x       y       z     vdW  Elec       q    Type
REMARK                         _______ _______ _______ _____ _____    ______ ____
ROOT
ATOM      1  O   UNL     1      -5.257 -10.432  18.728  0.00  0.00    -0.252 OA
ATOM      2  N   UNL     1      -6.793 -10.158  16.959  0.00  0.00    -0.281 N 
ATOM      3  N   UNL     1      -4.728 -10.905  16.488  0.00  0.00    -0.278 N 
ATOM      4  N   UNL     1      -3.248 -10.968  14.098  0.00  0.00    -0.295 NA
ATOM      6  C   UNL     1      -5.435 -10.972  15.227  0.00  0.00    +0.109 C 
ATOM      8  C   UNL     1      -6.752 -10.251  15.510  0.00  0.00    +0.133 C 
ATOM      9  C   UNL     1      -4.592 -10.355  14.112  0.00  0.00    +0.109 C 
ATOM     12  C   UNL     1      -5.556 -10.495  17.543  0.00  0.00    +0.305 C 
ATOM     13  C   UNL     1      -3.350 -11.343  16.553  0.00  0.00    +0.125 C 
ATOM     14  C   UNL     1      -2.557 -10.750  15.385  0.00  0.00    +0.104 C 
ENDROOT
BRANCH   2   7
ATOM      7  C   UNL     1      -7.940  -9.631  17.659  0.00  0.00    +0.078 C 
ATOM     10  C   UNL     1      -8.806 -10.769  18.203  0.00  0.00    +0.022 C 
ATOM     11  C   UNL     1      -8.749  -8.701  16.752  0.00  0.00    +0.022 C 
ATOM     15  C   UNL     1     -10.055 -10.242  18.904  0.00  0.00    +0.002 C 
ATOM     16  C   UNL     1      -9.998  -8.175  17.455  0.00  0.00    +0.002 C 
ATOM     17  C   UNL     1     -10.858  -9.312  17.999  0.00  0.00    +0.000 C 
ENDBRANCH   2   7
BRANCH   4  18
ATOM     18  C   UNL     1      -2.453 -10.426  12.995  0.00  0.00    +0.119 C 
BRANCH  18  19
ATOM      5  N   UNL     1      -4.173 -11.382   9.171  0.00  0.00    -0.263 NA
ATOM     19  C   UNL     1      -3.054 -10.760  11.656  0.00  0.00    -0.031 A 
ATOM     20  C   UNL     1      -3.409  -9.744  10.776  0.00  0.00    +0.024 A 
ATOM     21  C   UNL     1      -3.259 -12.087  11.295  0.00  0.00    +0.024 A 
ATOM     22  C   UNL     1      -3.960 -10.104   9.557  0.00  0.00    +0.111 A 
ATOM     23  C   UNL     1      -3.817 -12.343  10.052  0.00  0.00    +0.111 A 
ENDBRANCH  18  19
ENDBRANCH   4  18
TORSDOF 3
ENDMDL
MODEL 6
REMARK VINA RESULT:      -6.1      4.122      7.289
REMARK  Name = 75537128
REMARK  3 active torsions:
REMARK  status: ('A' for Active; 'I' for Inactive)
REMARK    1  A    between atoms: N_2  and  C_7
REMARK    2  A    between atoms: N_4  and  C_18
REMARK    3  A    between atoms: C_18  and  C_19
REMARK                            x       y       z     vdW  Elec       q    Type
REMARK                         _______ _______ _______ _____ _____    ______ ____
ROOT
ATOM      1  O   UNL     1      -5.197 -12.190  18.130  0.00  0.00    -0.252 OA
ATOM      2  N   UNL     1      -5.205 -10.684  16.314  0.00  0.00    -0.281 N 
ATOM      3  N   UNL     1      -6.923 -10.639  17.761  0.00  0.00    -0.278 N 
ATOM      4  N   UNL     1      -9.536  -9.621  17.550  0.00  0.00    -0.295 NA
ATOM      6  C   UNL     1      -7.175  -9.531  16.865  0.00  0.00    +0.109 C 
ATOM      8  C   UNL     1      -6.134  -9.714  15.761  0.00  0.00    +0.133 C 
ATOM      9  C   UNL     1      -8.626  -9.550  16.389  0.00  0.00    +0.109 C 
ATOM     12  C   UNL     1      -5.709 -11.283  17.487  0.00  0.00    +0.305 C 
ATOM     13  C   UNL     1      -7.841 -10.892  18.851  0.00  0.00    +0.125 C 
ATOM     14  C   UNL     1      -9.284 -10.843  18.342  0.00  0.00    +0.104 C 
ENDROOT
BRANCH   2   7
ATOM      7  C   UNL     1      -3.996 -11.064  15.626  0.00  0.00    +0.078 C 
ATOM     10  C   UNL     1      -2.768 -10.501  16.347  0.00  0.00    +0.022 C 
ATOM     11  C   UNL     1      -4.038 -10.611  14.165  0.00  0.00    +0.022 C 
ATOM     15  C   UNL     1      -1.476 -10.843  15.612  0.00  0.00    +0.002 C 
ATOM     16  C   UNL     1      -2.744 -10.954  13.431  0.00  0.00    +0.002 C 
ATOM     17  C   UNL     1      -1.522 -10.394  14.154  0.00  0.00    +0.000 C 
ENDBRANCH   2   7
BRANCH   4  18
ATOM     18  C   UNL     1     -10.930  -9.579  17.108  0.00  0.00    +0.119 C 
BRANCH  18  19
ATOM      5  N   UNL     1     -11.796  -5.990  14.903  0.00  0.00    -0.263 NA
ATOM     19  C   UNL     1     -11.235  -8.323  16.336  0.00  0.00    -0.031 A 
ATOM     20  C   UNL     1     -11.799  -8.402  15.068  0.00  0.00    +0.024 A 
ATOM     21  C   UNL     1     -10.950  -7.080  16.889  0.00  0.00    +0.024 A 
ATOM     22  C   UNL     1     -12.058  -7.217  14.399  0.00  0.00    +0.111 A 
ATOM     23  C   UNL     1     -11.247  -5.953  16.138  0.00  0.00    +0.111 A 
ENDBRANCH  18  19
ENDBRANCH   4  18
TORSDOF 3
ENDMDL
MODEL 7
REMARK VINA RESULT:      -5.9     27.778     29.885
REMARK  Name = 75537128
REMARK  3 active torsions:
REMARK  status: ('A' for Active; 'I' for Inactive)
REMARK    1  A    between atoms: N_2  and  C_7
REMARK    2  A    between atoms: N_4  and  C_18
REMARK    3  A    between atoms: C_18  and  C_19
REMARK                            x       y       z     vdW  Elec       q    Type
REMARK                         _______ _______ _______ _____ _____    ______ ____
ROOT
ATOM      1  O   UNL     1      15.904  10.438  20.931  0.00  0.00    -0.252 OA
ATOM      2  N   UNL     1      15.152   8.438  19.932  0.00  0.00    -0.281 N 
ATOM      3  N   UNL     1      17.082   8.410  21.080  0.00  0.00    -0.278 N 
ATOM      4  N   UNL     1      19.262   6.633  21.056  0.00  0.00    -0.295 NA
ATOM      6  C   UNL     1      16.857   7.028  20.716  0.00  0.00    +0.109 C 
ATOM      8  C   UNL     1      15.675   7.095  19.749  0.00  0.00    +0.133 C 
ATOM      9  C   UNL     1      18.129   6.417  20.132  0.00  0.00    +0.109 C 
ATOM     12  C   UNL     1      16.029   9.246  20.683  0.00  0.00    +0.305 C 
ATOM     13  C   UNL     1      18.250   8.756  21.862  0.00  0.00    +0.125 C 
ATOM     14  C   UNL     1      19.491   8.075  21.278  0.00  0.00    +0.104 C 
ENDROOT
BRANCH   2   7
ATOM      7  C   UNL     1      13.948   8.886  19.274  0.00  0.00    +0.078 C 
ATOM     10  C   UNL     1      12.753   8.030  19.700  0.00  0.00    +0.022 C 
ATOM     11  C   UNL     1      14.126   8.875  17.754  0.00  0.00    +0.022 C 
ATOM     15  C   UNL     1      11.474   8.448  18.979  0.00  0.00    +0.002 C 
ATOM     16  C   UNL     1      12.845   9.294  17.035  0.00  0.00    +0.002 C 
ATOM     17  C   UNL     1      11.655   8.440  17.464  0.00  0.00    +0.000 C 
ENDBRANCH   2   7
BRANCH   4  18
ATOM     18  C   UNL     1      20.473   5.999  20.534  0.00  0.00    +0.119 C 
BRANCH  18  19
ATOM      5  N   UNL     1      22.558   3.795  23.582  0.00  0.00    -0.263 NA
ATOM     19  C   UNL     1      21.204   5.228  21.600  0.00  0.00    -0.031 A 
ATOM     20  C   UNL     1      21.487   3.878  21.417  0.00  0.00    +0.024 A 
ATOM     21  C   UNL     1      21.597   5.861  22.774  0.00  0.00    +0.024 A 
ATOM     22  C   UNL     1      22.160   3.214  22.429  0.00  0.00    +0.111 A 
ATOM     23  C   UNL     1      22.265   5.108  23.726  0.00  0.00    +0.111 A 
ENDBRANCH  18  19
ENDBRANCH   4  18
TORSDOF 3
ENDMDL
MODEL 8
REMARK VINA RESULT:      -5.9     20.784     23.176
REMARK  Name = 75537128
REMARK  3 active torsions:
REMARK  status: ('A' for Active; 'I' for Inactive)
REMARK    1  A    between atoms: N_2  and  C_7
REMARK    2  A    between atoms: N_4  and  C_18
REMARK    3  A    between atoms: C_18  and  C_19
REMARK                            x       y       z     vdW  Elec       q    Type
REMARK                         _______ _______ _______ _____ _____    ______ ____
ROOT
ATOM      1  O   UNL     1     -17.451   4.118  21.867  0.00  0.00    -0.252 OA
ATOM      2  N   UNL     1     -15.384   4.562  22.912  0.00  0.00    -0.281 N 
ATOM      3  N   UNL     1     -16.879   3.272  23.982  0.00  0.00    -0.278 N 
ATOM      4  N   UNL     1     -17.160   2.566  26.690  0.00  0.00    -0.295 NA
ATOM      6  C   UNL     1     -15.703   3.239  24.825  0.00  0.00    +0.109 C 
ATOM      8  C   UNL     1     -14.785   4.294  24.209  0.00  0.00    +0.133 C 
ATOM      9  C   UNL     1     -16.085   3.493  26.283  0.00  0.00    +0.109 C 
ATOM     12  C   UNL     1     -16.669   3.995  22.800  0.00  0.00    +0.305 C 
ATOM     13  C   UNL     1     -18.050   2.514  24.370  0.00  0.00    +0.125 C 
ATOM     14  C   UNL     1     -18.361   2.751  25.850  0.00  0.00    +0.104 C 
ENDROOT
BRANCH   2   7
ATOM      7  C   UNL     1     -14.761   5.436  21.948  0.00  0.00    +0.078 C 
ATOM     10  C   UNL     1     -13.238   5.409  22.104  0.00  0.00    +0.022 C 
ATOM     11  C   UNL     1     -15.308   6.860  22.074  0.00  0.00    +0.022 C 
ATOM     15  C   UNL     1     -12.554   6.365  21.131  0.00  0.00    +0.002 C 
ATOM     16  C   UNL     1     -14.622   7.815  21.100  0.00  0.00    +0.002 C 
ATOM     17  C   UNL     1     -13.104   7.783  21.256  0.00  0.00    +0.000 C 
ENDBRANCH   2   7
BRANCH   4  18
ATOM     18  C   UNL     1     -17.491   2.760  28.102  0.00  0.00    +0.119 C 
BRANCH  18  19
ATOM      5  N   UNL     1     -14.338   1.396  30.689  0.00  0.00    -0.263 NA
ATOM     19  C   UNL     1     -16.387   2.282  29.007  0.00  0.00    -0.031 A 
ATOM     20  C   UNL     1     -15.977   0.954  28.968  0.00  0.00    +0.024 A 
ATOM     21  C   UNL     1     -15.774   3.167  29.886  0.00  0.00    +0.024 A 
ATOM     22  C   UNL     1     -14.958   0.565  29.822  0.00  0.00    +0.111 A 
ATOM     23  C   UNL     1     -14.763   2.679  30.700  0.00  0.00    +0.111 A 
ENDBRANCH  18  19
ENDBRANCH   4  18
TORSDOF 3
ENDMDL
MODEL 9
REMARK VINA RESULT:      -5.9     22.004     25.741
REMARK  Name = 75537128
REMARK  3 active torsions:
REMARK  status: ('A' for Active; 'I' for Inactive)
REMARK    1  A    between atoms: N_2  and  C_7
REMARK    2  A    between atoms: N_4  and  C_18
REMARK    3  A    between atoms: C_18  and  C_19
REMARK                            x       y       z     vdW  Elec       q    Type
REMARK                         _______ _______ _______ _____ _____    ______ ____
ROOT
ATOM      1  O   UNL     1     -15.049  -0.195  29.465  0.00  0.00    -0.252 OA
ATOM      2  N   UNL     1     -15.860   1.808  28.521  0.00  0.00    -0.281 N 
ATOM      3  N   UNL     1     -14.748   1.908  30.470  0.00  0.00    -0.278 N 
ATOM      4  N   UNL     1     -14.659   3.863  32.489  0.00  0.00    -0.295 NA
ATOM      6  C   UNL     1     -14.989   3.291  30.119  0.00  0.00    +0.109 C 
ATOM      8  C   UNL     1     -15.937   3.202  28.923  0.00  0.00    +0.133 C 
ATOM      9  C   UNL     1     -15.541   4.057  31.320  0.00  0.00    +0.109 C 
ATOM     12  C   UNL     1     -15.196   1.020  29.482  0.00  0.00    +0.305 C 
ATOM     13  C   UNL     1     -14.019   1.600  31.682  0.00  0.00    +0.125 C 
ATOM     14  C   UNL     1     -14.565   2.433  32.846  0.00  0.00    +0.104 C 
ENDROOT
BRANCH   2   7
ATOM      7  C   UNL     1     -16.533   1.314  27.344  0.00  0.00    +0.078 C 
ATOM     10  C   UNL     1     -16.564   2.388  26.253  0.00  0.00    +0.022 C 
ATOM     11  C   UNL     1     -17.944   0.831  27.688  0.00  0.00    +0.022 C 
ATOM     15  C   UNL     1     -17.316   1.911  25.013  0.00  0.00    +0.002 C 
ATOM     16  C   UNL     1     -18.694   0.354  26.447  0.00  0.00    +0.002 C 
ATOM     17  C   UNL     1     -18.721   1.425  25.360  0.00  0.00    +0.000 C 
ENDBRANCH   2   7
BRANCH   4  18
ATOM     18  C   UNL     1     -15.146   4.641  33.629  0.00  0.00    +0.119 C 
BRANCH  18  19
ATOM      5  N   UNL     1     -12.720   8.119  34.344  0.00  0.00    -0.263 NA
ATOM     19  C   UNL     1     -14.296   5.858  33.879  0.00  0.00    -0.031 A 
ATOM     20  C   UNL     1     -13.800   6.114  35.153  0.00  0.00    +0.024 A 
ATOM     21  C   UNL     1     -14.005   6.732  32.838  0.00  0.00    +0.024 A 
ATOM     22  C   UNL     1     -13.024   7.248  35.331  0.00  0.00    +0.111 A 
ATOM     23  C   UNL     1     -13.220   7.839  33.119  0.00  0.00    +0.111 A 
ENDBRANCH  18  19
ENDBRANCH   4  18
TORSDOF 3
ENDMDL
MODEL 10
REMARK VINA RESULT:      -5.8     23.294     25.977
REMARK  Name = 75537128
REMARK  3 active torsions:
REMARK  status: ('A' for Active; 'I' for Inactive)
REMARK    1  A    between atoms: N_2  and  C_7
REMARK    2  A    between atoms: N_4  and  C_18
REMARK    3  A    between atoms: C_18  and  C_19
REMARK                            x       y       z     vdW  Elec       q    Type
REMARK                         _______ _______ _______ _____ _____    ______ ____
ROOT
ATOM      1  O   UNL     1       9.777   4.318   5.543  0.00  0.00    -0.252 OA
ATOM      2  N   UNL     1      11.137   5.829   4.346  0.00  0.00    -0.281 N 
ATOM      3  N   UNL     1      10.354   6.444   6.359  0.00  0.00    -0.278 N 
ATOM      4  N   UNL     1      10.044   8.965   7.568  0.00  0.00    -0.295 NA
ATOM      6  C   UNL     1      11.233   7.525   5.966  0.00  0.00    +0.109 C 
ATOM      8  C   UNL     1      11.573   7.204   4.511  0.00  0.00    +0.133 C 
ATOM      9  C   UNL     1      10.549   8.874   6.183  0.00  0.00    +0.109 C 
ATOM     12  C   UNL     1      10.353   5.393   5.433  0.00  0.00    +0.305 C 
ATOM     13  C   UNL     1       9.684   6.506   7.641  0.00  0.00    +0.125 C 
ATOM     14  C   UNL     1       9.066   7.892   7.843  0.00  0.00    +0.104 C 
ENDROOT
BRANCH   2   7
ATOM      7  C   UNL     1      11.375   5.092   3.129  0.00  0.00    +0.078 C 
ATOM     10  C   UNL     1      12.651   5.586   2.443  0.00  0.00    +0.022 C 
ATOM     11  C   UNL     1      10.168   5.187   2.192  0.00  0.00    +0.022 C 
ATOM     15  C   UNL     1      12.900   4.860   1.124  0.00  0.00    +0.002 C 
ATOM     16  C   UNL     1      10.419   4.460   0.874  0.00  0.00    +0.002 C 
ATOM     17  C   UNL     1      11.694   4.953   0.194  0.00  0.00    +0.000 C 
ENDBRANCH   2   7
BRANCH   4  18
ATOM     18  C   UNL     1       9.440  10.277   7.805  0.00  0.00    +0.119 C 
BRANCH  18  19
ATOM      5  N   UNL     1      10.920  12.092  11.411  0.00  0.00    -0.263 NA
ATOM     19  C   UNL     1       9.958  10.911   9.068  0.00  0.00    -0.031 A 
ATOM     20  C   UNL     1       9.083  11.225  10.102  0.00  0.00    +0.024 A 
ATOM     21  C   UNL     1      11.314  11.188   9.204  0.00  0.00    +0.024 A 
ATOM     22  C   UNL     1       9.610  11.809  11.242  0.00  0.00    +0.111 A 
ATOM     23  C   UNL     1      11.741  11.774  10.385  0.00  0.00    +0.111 A 
ENDBRANCH  18  19
ENDBRANCH   4  18
TORSDOF 3
ENDMDL
