MODEL 1
REMARK VINA RESULT:      -8.8      0.000      0.000
REMARK  Name = 11885156
REMARK  3 active torsions:
REMARK  status: ('A' for Active; 'I' for Inactive)
REMARK    1  A    between atoms: S_1  and  N_6
REMARK    2  A    between atoms: S_1  and  C_19
REMARK    3  A    between atoms: C_17  and  C_20
REMARK                            x       y       z     vdW  Elec       q    Type
REMARK                         _______ _______ _______ _____ _____    ______ ____
ROOT
ATOM      5  O   UNL     1      15.314   5.903  20.075  0.00  0.00    -0.267 OA
ATOM      6  N   UNL     1      13.023   9.358  17.304  0.00  0.00    -0.175 NA
ATOM      7  N   UNL     1      14.286   7.985  19.856  0.00  0.00    -0.311 N 
ATOM      8  C   UNL     1      11.826   8.246  19.192  0.00  0.00    +0.025 C 
ATOM      9  C   UNL     1      13.191  10.242  19.623  0.00  0.00    +0.052 C 
ATOM     10  C   UNL     1      11.891   9.536  19.999  0.00  0.00    +0.017 C 
ATOM     11  C   UNL     1      11.829   8.550  17.685  0.00  0.00    +0.114 C 
ATOM     12  C   UNL     1      13.168  10.597  18.125  0.00  0.00    +0.119 C 
ATOM     13  C   UNL     1      12.989   7.338  19.610  0.00  0.00    +0.130 C 
ATOM     14  C   UNL     1      14.395   9.375  19.940  0.00  0.00    +0.026 A 
ATOM     15  C   UNL     1      15.565   9.939  20.281  0.00  0.00    +0.022 A 
ATOM     16  C   UNL     1      15.381   7.134  20.105  0.00  0.00    +0.259 A 
ATOM     17  C   UNL     1      16.687   7.795  20.449  0.00  0.00    +0.047 A 
ATOM     18  C   UNL     1      16.727   9.134  20.532  0.00  0.00    +0.015 A 
ENDROOT
BRANCH  17  20
ATOM     20  C   UNL     1      17.906   7.004  20.684  0.00  0.00    -0.012 A 
ATOM     22  C   UNL     1      18.691   7.244  21.812  0.00  0.00    +0.017 A 
ATOM     23  C   UNL     1      18.278   6.013  19.778  0.00  0.00    +0.009 A 
ATOM     26  C   UNL     1      19.857   6.498  22.050  0.00  0.00    -0.017 A 
ATOM     27  C   UNL     1      19.432   5.261  19.997  0.00  0.00    +0.009 A 
ATOM     28  C   UNL     1      20.233   5.492  21.128  0.00  0.00    -0.018 A 
ATOM     29  C   UNL     1      20.657   6.727  23.181  0.00  0.00    +0.008 A 
ATOM     30  C   UNL     1      21.398   4.745  21.366  0.00  0.00    +0.008 A 
ATOM     31  C   UNL     1      21.811   5.976  23.400  0.00  0.00    +0.001 A 
ATOM     32  C   UNL     1      22.182   4.987  22.494  0.00  0.00    +0.001 A 
ENDBRANCH  17  20
BRANCH   6   1
ATOM      1  S   UNL     1      13.283   9.547  15.624  0.00  0.00    +0.067 S 
ATOM      3  O   UNL     1      12.031   9.927  15.004  0.00  0.00    -0.152 OA
ATOM      4  O   UNL     1      14.073   8.437  15.136  0.00  0.00    -0.152 OA
BRANCH   1  19
ATOM      2  S   UNL     1      13.744  12.118  14.310  0.00  0.00    -0.077 S 
ATOM     19  C   UNL     1      14.351  10.965  15.402  0.00  0.00    +0.143 A 
ATOM     21  C   UNL     1      15.553  11.295  15.938  0.00  0.00    +0.036 A 
ATOM     24  C   UNL     1      16.010  12.548  15.439  0.00  0.00    +0.010 A 
ATOM     25  C   UNL     1      15.123  13.105  14.546  0.00  0.00    +0.047 A 
ENDBRANCH   1  19
ENDBRANCH   6   1
TORSDOF 3
ENDMDL
MODEL 2
REMARK VINA RESULT:      -8.1     26.780     29.909
REMARK  Name = 11885156
REMARK  3 active torsions:
REMARK  status: ('A' for Active; 'I' for Inactive)
REMARK    1  A    between atoms: S_1  and  N_6
REMARK    2  A    between atoms: S_1  and  C_19
REMARK    3  A    between atoms: C_17  and  C_20
REMARK                            x       y       z     vdW  Elec       q    Type
REMARK                         _______ _______ _______ _____ _____    ______ ____
ROOT
ATOM      5  O   UNL     1     -14.834   9.062  19.990  0.00  0.00    -0.267 OA
ATOM      6  N   UNL     1     -11.420   9.640  16.403  0.00  0.00    -0.175 NA
ATOM      7  N   UNL     1     -12.627   9.395  19.313  0.00  0.00    -0.311 N 
ATOM      8  C   UNL     1     -11.878  11.480  18.028  0.00  0.00    +0.025 C 
ATOM      9  C   UNL     1     -10.239   9.739  18.589  0.00  0.00    +0.052 C 
ATOM     10  C   UNL     1     -10.530  11.234  18.693  0.00  0.00    +0.017 C 
ATOM     11  C   UNL     1     -11.834  11.066  16.547  0.00  0.00    +0.114 C 
ATOM     12  C   UNL     1     -10.138   9.337  17.106  0.00  0.00    +0.119 C 
ATOM     13  C   UNL     1     -12.964  10.735  18.813  0.00  0.00    +0.130 C 
ATOM     14  C   UNL     1     -11.312   8.923  19.284  0.00  0.00    +0.026 A 
ATOM     15  C   UNL     1     -11.007   7.745  19.852  0.00  0.00    +0.022 A 
ATOM     16  C   UNL     1     -13.670   8.663  19.914  0.00  0.00    +0.259 A 
ATOM     17  C   UNL     1     -13.304   7.330  20.509  0.00  0.00    +0.047 A 
ATOM     18  C   UNL     1     -12.022   6.938  20.467  0.00  0.00    +0.015 A 
ENDROOT
BRANCH  17  20
ATOM     20  C   UNL     1     -14.324   6.462  21.121  0.00  0.00    -0.012 A 
ATOM     22  C   UNL     1     -14.057   5.811  22.327  0.00  0.00    +0.017 A 
ATOM     23  C   UNL     1     -15.557   6.288  20.497  0.00  0.00    +0.009 A 
ATOM     26  C   UNL     1     -15.018   4.979  22.923  0.00  0.00    -0.017 A 
ATOM     27  C   UNL     1     -16.525   5.466  21.074  0.00  0.00    +0.009 A 
ATOM     28  C   UNL     1     -16.271   4.804  22.287  0.00  0.00    -0.018 A 
ATOM     29  C   UNL     1     -14.766   4.317  24.135  0.00  0.00    +0.008 A 
ATOM     30  C   UNL     1     -17.233   3.972  22.883  0.00  0.00    +0.008 A 
ATOM     31  C   UNL     1     -15.732   3.495  24.713  0.00  0.00    +0.001 A 
ATOM     32  C   UNL     1     -16.964   3.322  24.088  0.00  0.00    +0.001 A 
ENDBRANCH  17  20
BRANCH   6   1
ATOM      1  S   UNL     1     -11.577   8.981  14.832  0.00  0.00    +0.067 S 
ATOM      3  O   UNL     1     -10.618   7.905  14.685  0.00  0.00    -0.152 OA
ATOM      4  O   UNL     1     -11.672  10.058  13.870  0.00  0.00    -0.152 OA
BRANCH   1  19
ATOM      2  S   UNL     1     -13.466   7.391  13.265  0.00  0.00    -0.077 S 
ATOM     19  C   UNL     1     -13.176   8.182  14.741  0.00  0.00    +0.143 A 
ATOM     21  C   UNL     1     -14.200   8.089  15.627  0.00  0.00    +0.036 A 
ATOM     24  C   UNL     1     -15.280   7.336  15.082  0.00  0.00    +0.010 A 
ATOM     25  C   UNL     1     -15.014   6.897  13.805  0.00  0.00    +0.047 A 
ENDBRANCH   1  19
ENDBRANCH   6   1
TORSDOF 3
ENDMDL
MODEL 3
REMARK VINA RESULT:      -7.9     16.547     20.033
REMARK  Name = 11885156
REMARK  3 active torsions:
REMARK  status: ('A' for Active; 'I' for Inactive)
REMARK    1  A    between atoms: S_1  and  N_6
REMARK    2  A    between atoms: S_1  and  C_19
REMARK    3  A    between atoms: C_17  and  C_20
REMARK                            x       y       z     vdW  Elec       q    Type
REMARK                         _______ _______ _______ _____ _____    ______ ____
ROOT
ATOM      5  O   UNL     1      11.601   7.294   1.303  0.00  0.00    -0.267 OA
ATOM      6  N   UNL     1      11.726   4.031  -2.464  0.00  0.00    -0.175 NA
ATOM      7  N   UNL     1      12.505   5.408   0.272  0.00  0.00    -0.311 N 
ATOM      8  C   UNL     1      13.684   5.510  -2.000  0.00  0.00    +0.025 C 
ATOM      9  C   UNL     1      13.476   3.360  -0.829  0.00  0.00    +0.052 C 
ATOM     10  C   UNL     1      14.473   4.312  -1.487  0.00  0.00    +0.017 C 
ATOM     11  C   UNL     1      12.637   5.064  -3.035  0.00  0.00    +0.114 C 
ATOM     12  C   UNL     1      12.463   2.871  -1.880  0.00  0.00    +0.119 C 
ATOM     13  C   UNL     1      13.055   6.241  -0.807  0.00  0.00    +0.130 C 
ATOM     14  C   UNL     1      12.756   4.034   0.323  0.00  0.00    +0.026 A 
ATOM     15  C   UNL     1      12.342   3.314   1.379  0.00  0.00    +0.022 A 
ATOM     16  C   UNL     1      11.810   6.079   1.297  0.00  0.00    +0.259 A 
ATOM     17  C   UNL     1      11.328   5.240   2.448  0.00  0.00    +0.047 A 
ATOM     18  C   UNL     1      11.613   3.929   2.451  0.00  0.00    +0.015 A 
ENDROOT
BRANCH  17  20
ATOM     20  C   UNL     1      10.551   5.830   3.551  0.00  0.00    -0.012 A 
ATOM     22  C   UNL     1      10.917   5.584   4.875  0.00  0.00    +0.017 A 
ATOM     23  C   UNL     1       9.448   6.634   3.274  0.00  0.00    +0.009 A 
ATOM     26  C   UNL     1      10.186   6.139   5.938  0.00  0.00    -0.017 A 
ATOM     27  C   UNL     1       8.710   7.195   4.317  0.00  0.00    +0.009 A 
ATOM     28  C   UNL     1       9.066   6.956   5.654  0.00  0.00    -0.018 A 
ATOM     29  C   UNL     1      10.542   5.903   7.276  0.00  0.00    +0.008 A 
ATOM     30  C   UNL     1       8.335   7.512   6.717  0.00  0.00    +0.008 A 
ATOM     31  C   UNL     1       9.804   6.462   8.319  0.00  0.00    +0.001 A 
ATOM     32  C   UNL     1       8.702   7.265   8.040  0.00  0.00    +0.001 A 
ENDBRANCH  17  20
BRANCH   6   1
ATOM      1  S   UNL     1      10.363   3.637  -3.420  0.00  0.00    +0.067 S 
ATOM      3  O   UNL     1       9.714   2.478  -2.843  0.00  0.00    -0.152 OA
ATOM      4  O   UNL     1      10.732   3.690  -4.819  0.00  0.00    -0.152 OA
BRANCH   1  19
ATOM      2  S   UNL     1       8.139   5.145  -4.572  0.00  0.00    -0.077 S 
ATOM     19  C   UNL     1       9.177   4.963  -3.238  0.00  0.00    +0.143 A 
ATOM     21  C   UNL     1       8.948   5.851  -2.237  0.00  0.00    +0.036 A 
ATOM     24  C   UNL     1       7.875   6.728  -2.566  0.00  0.00    +0.010 A 
ATOM     25  C   UNL     1       7.344   6.455  -3.807  0.00  0.00    +0.047 A 
ENDBRANCH   1  19
ENDBRANCH   6   1
TORSDOF 3
ENDMDL
MODEL 4
REMARK VINA RESULT:      -7.9     17.093     20.154
REMARK  Name = 11885156
REMARK  3 active torsions:
REMARK  status: ('A' for Active; 'I' for Inactive)
REMARK    1  A    between atoms: S_1  and  N_6
REMARK    2  A    between atoms: S_1  and  C_19
REMARK    3  A    between atoms: C_17  and  C_20
REMARK                            x       y       z     vdW  Elec       q    Type
REMARK                         _______ _______ _______ _____ _____    ______ ____
ROOT
ATOM      5  O   UNL     1      12.180   7.810   2.461  0.00  0.00    -0.267 OA
ATOM      6  N   UNL     1      13.390   4.224  -0.785  0.00  0.00    -0.175 NA
ATOM      7  N   UNL     1      12.748   5.598   1.988  0.00  0.00    -0.311 N 
ATOM      8  C   UNL     1      15.008   4.940   0.977  0.00  0.00    +0.025 C 
ATOM      9  C   UNL     1      13.345   3.203   1.482  0.00  0.00    +0.052 C 
ATOM     10  C   UNL     1      14.795   3.623   1.713  0.00  0.00    +0.017 C 
ATOM     11  C   UNL     1      14.757   4.763  -0.530  0.00  0.00    +0.114 C 
ATOM     12  C   UNL     1      13.111   2.971  -0.022  0.00  0.00    +0.119 C 
ATOM     13  C   UNL     1      14.105   6.011   1.601  0.00  0.00    +0.130 C 
ATOM     14  C   UNL     1      12.382   4.250   2.010  0.00  0.00    +0.026 A 
ATOM     15  C   UNL     1      11.177   3.887   2.478  0.00  0.00    +0.022 A 
ATOM     16  C   UNL     1      11.880   6.614   2.432  0.00  0.00    +0.259 A 
ATOM     17  C   UNL     1      10.523   6.181   2.917  0.00  0.00    +0.047 A 
ATOM     18  C   UNL     1      10.235   4.871   2.931  0.00  0.00    +0.015 A 
ENDROOT
BRANCH  17  20
ATOM     20  C   UNL     1       9.521   7.164   3.361  0.00  0.00    -0.012 A 
ATOM     22  C   UNL     1       8.786   7.887   2.420  0.00  0.00    +0.017 A 
ATOM     23  C   UNL     1       9.305   7.373   4.721  0.00  0.00    +0.009 A 
ATOM     26  C   UNL     1       7.826   8.828   2.827  0.00  0.00    -0.017 A 
ATOM     27  C   UNL     1       8.355   8.304   5.144  0.00  0.00    +0.009 A 
ATOM     28  C   UNL     1       7.608   9.039   4.210  0.00  0.00    -0.018 A 
ATOM     29  C   UNL     1       7.078   9.564   1.894  0.00  0.00    +0.008 A 
ATOM     30  C   UNL     1       6.648   9.980   4.617  0.00  0.00    +0.008 A 
ATOM     31  C   UNL     1       6.129  10.494   2.317  0.00  0.00    +0.001 A 
ATOM     32  C   UNL     1       5.915  10.703   3.676  0.00  0.00    +0.001 A 
ENDBRANCH  17  20
BRANCH   6   1
ATOM      1  S   UNL     1      12.890   4.222  -2.421  0.00  0.00    +0.067 S 
ATOM      3  O   UNL     1      12.865   2.853  -2.894  0.00  0.00    -0.152 OA
ATOM      4  O   UNL     1      13.595   5.265  -3.136  0.00  0.00    -0.152 OA
BRANCH   1  19
ATOM      2  S   UNL     1      10.525   4.831  -4.029  0.00  0.00    -0.077 S 
ATOM     19  C   UNL     1      11.182   4.751  -2.463  0.00  0.00    +0.143 A 
ATOM     21  C   UNL     1      10.311   5.100  -1.482  0.00  0.00    +0.036 A 
ATOM     24  C   UNL     1       9.043   5.453  -2.026  0.00  0.00    +0.010 A 
ATOM     25  C   UNL     1       9.020   5.351  -3.399  0.00  0.00    +0.047 A 
ENDBRANCH   1  19
ENDBRANCH   6   1
TORSDOF 3
ENDMDL
MODEL 5
REMARK VINA RESULT:      -7.8     27.642     30.609
REMARK  Name = 11885156
REMARK  3 active torsions:
REMARK  status: ('A' for Active; 'I' for Inactive)
REMARK    1  A    between atoms: S_1  and  N_6
REMARK    2  A    between atoms: S_1  and  C_19
REMARK    3  A    between atoms: C_17  and  C_20
REMARK                            x       y       z     vdW  Elec       q    Type
REMARK                         _______ _______ _______ _____ _____    ______ ____
ROOT
ATOM      5  O   UNL     1      -6.753 -10.436  14.111  0.00  0.00    -0.267 OA
ATOM      6  N   UNL     1      -2.614 -13.105  13.332  0.00  0.00    -0.175 NA
ATOM      7  N   UNL     1      -4.432 -10.660  14.171  0.00  0.00    -0.311 N 
ATOM      8  C   UNL     1      -3.024 -10.996  12.058  0.00  0.00    +0.025 C 
ATOM      9  C   UNL     1      -1.926 -10.900  14.254  0.00  0.00    +0.052 C 
ATOM     10  C   UNL     1      -1.924 -10.299  12.850  0.00  0.00    +0.017 C 
ATOM     11  C   UNL     1      -2.753 -12.508  11.973  0.00  0.00    +0.114 C 
ATOM     12  C   UNL     1      -1.598 -12.402  14.170  0.00  0.00    +0.119 C 
ATOM     13  C   UNL     1      -4.379 -10.679  12.702  0.00  0.00    +0.130 C 
ATOM     14  C   UNL     1      -3.264 -10.690  14.937  0.00  0.00    +0.026 A 
ATOM     15  C   UNL     1      -3.331 -10.554  16.271  0.00  0.00    +0.022 A 
ATOM     16  C   UNL     1      -5.704 -10.503  14.756  0.00  0.00    +0.259 A 
ATOM     17  C   UNL     1      -5.750 -10.389  16.255  0.00  0.00    +0.047 A 
ATOM     18  C   UNL     1      -4.594 -10.407  16.936  0.00  0.00    +0.015 A 
ENDROOT
BRANCH  17  20
ATOM     20  C   UNL     1      -7.030 -10.269  16.974  0.00  0.00    -0.012 A 
ATOM     22  C   UNL     1      -7.414 -11.250  17.888  0.00  0.00    +0.017 A 
ATOM     23  C   UNL     1      -7.859  -9.174  16.741  0.00  0.00    +0.009 A 
ATOM     26  C   UNL     1      -8.631 -11.150  18.581  0.00  0.00    -0.017 A 
ATOM     27  C   UNL     1      -9.072  -9.057  17.421  0.00  0.00    +0.009 A 
ATOM     28  C   UNL     1      -9.472 -10.037  18.343  0.00  0.00    -0.018 A 
ATOM     29  C   UNL     1      -9.033 -12.129  19.504  0.00  0.00    +0.008 A 
ATOM     30  C   UNL     1     -10.689  -9.936  19.037  0.00  0.00    +0.008 A 
ATOM     31  C   UNL     1     -10.245 -12.013  20.183  0.00  0.00    +0.001 A 
ATOM     32  C   UNL     1     -11.072 -10.919  19.950  0.00  0.00    +0.001 A 
ENDBRANCH  17  20
BRANCH   6   1
ATOM      1  S   UNL     1      -2.566 -14.814  13.387  0.00  0.00    +0.067 S 
ATOM      3  O   UNL     1      -1.191 -15.231  13.568  0.00  0.00    -0.152 OA
ATOM      4  O   UNL     1      -3.395 -15.348  12.328  0.00  0.00    -0.152 OA
BRANCH   1  19
ATOM      2  S   UNL     1      -4.638 -14.272  15.379  0.00  0.00    -0.077 S 
ATOM     19  C   UNL     1      -3.399 -15.327  14.885  0.00  0.00    +0.143 A 
ATOM     21  C   UNL     1      -3.230 -16.398  15.701  0.00  0.00    +0.036 A 
ATOM     24  C   UNL     1      -4.152 -16.365  16.787  0.00  0.00    +0.010 A 
ATOM     25  C   UNL     1      -4.976 -15.263  16.734  0.00  0.00    +0.047 A 
ENDBRANCH   1  19
ENDBRANCH   6   1
TORSDOF 3
ENDMDL
MODEL 6
REMARK VINA RESULT:      -7.8     28.853     30.845
REMARK  Name = 11885156
REMARK  3 active torsions:
REMARK  status: ('A' for Active; 'I' for Inactive)
REMARK    1  A    between atoms: S_1  and  N_6
REMARK    2  A    between atoms: S_1  and  C_19
REMARK    3  A    between atoms: C_17  and  C_20
REMARK                            x       y       z     vdW  Elec       q    Type
REMARK                         _______ _______ _______ _____ _____    ______ ____
ROOT
ATOM      5  O   UNL     1      -6.532 -12.807  14.758  0.00  0.00    -0.267 OA
ATOM      6  N   UNL     1      -9.819 -11.388  18.228  0.00  0.00    -0.175 NA
ATOM      7  N   UNL     1      -7.032 -12.118  16.930  0.00  0.00    -0.311 N 
ATOM      8  C   UNL     1      -8.508 -13.494  18.508  0.00  0.00    +0.025 C 
ATOM      9  C   UNL     1      -7.562 -11.360  19.273  0.00  0.00    +0.052 C 
ATOM     10  C   UNL     1      -7.688 -12.842  19.615  0.00  0.00    +0.017 C 
ATOM     11  C   UNL     1      -9.907 -12.862  18.428  0.00  0.00    +0.114 C 
ATOM     12  C   UNL     1      -8.961 -10.717  19.250  0.00  0.00    +0.119 C 
ATOM     13  C   UNL     1      -7.738 -13.382  17.187  0.00  0.00    +0.130 C 
ATOM     14  C   UNL     1      -6.870 -11.164  17.937  0.00  0.00    +0.026 A 
ATOM     15  C   UNL     1      -6.123 -10.071  17.714  0.00  0.00    +0.022 A 
ATOM     16  C   UNL     1      -6.441 -11.970  15.659  0.00  0.00    +0.259 A 
ATOM     17  C   UNL     1      -5.640 -10.719  15.428  0.00  0.00    +0.047 A 
ATOM     18  C   UNL     1      -5.506  -9.846  16.438  0.00  0.00    +0.015 A 
ENDROOT
BRANCH  17  20
ATOM     20  C   UNL     1      -5.018 -10.440  14.122  0.00  0.00    -0.012 A 
ATOM     22  C   UNL     1      -5.744  -9.782  13.128  0.00  0.00    +0.017 A 
ATOM     23  C   UNL     1      -3.705 -10.833  13.878  0.00  0.00    +0.009 A 
ATOM     26  C   UNL     1      -5.165  -9.510  11.877  0.00  0.00    -0.017 A 
ATOM     27  C   UNL     1      -3.113 -10.570  12.642  0.00  0.00    +0.009 A 
ATOM     28  C   UNL     1      -3.830  -9.910  11.632  0.00  0.00    -0.018 A 
ATOM     29  C   UNL     1      -5.881  -8.848  10.866  0.00  0.00    +0.008 A 
ATOM     30  C   UNL     1      -3.251  -9.636  10.382  0.00  0.00    +0.008 A 
ATOM     31  C   UNL     1      -5.290  -8.586   9.631  0.00  0.00    +0.001 A 
ATOM     32  C   UNL     1      -3.978  -8.979   9.388  0.00  0.00    +0.001 A 
ENDBRANCH  17  20
BRANCH   6   1
ATOM      1  S   UNL     1     -11.294 -10.600  17.868  0.00  0.00    +0.067 S 
ATOM      3  O   UNL     1     -11.852 -10.080  19.099  0.00  0.00    -0.152 OA
ATOM      4  O   UNL     1     -12.068 -11.428  16.967  0.00  0.00    -0.152 OA
BRANCH   1  19
ATOM      2  S   UNL     1     -11.598  -9.161  15.341  0.00  0.00    -0.077 S 
ATOM     19  C   UNL     1     -10.906  -9.151  16.894  0.00  0.00    +0.143 A 
ATOM     21  C   UNL     1     -10.165  -8.046  17.159  0.00  0.00    +0.036 A 
ATOM     24  C   UNL     1     -10.155  -7.157  16.046  0.00  0.00    +0.010 A 
ATOM     25  C   UNL     1     -10.895  -7.640  14.990  0.00  0.00    +0.047 A 
ENDBRANCH   1  19
ENDBRANCH   6   1
TORSDOF 3
ENDMDL
MODEL 7
REMARK VINA RESULT:      -7.7     14.844     18.688
REMARK  Name = 11885156
REMARK  3 active torsions:
REMARK  status: ('A' for Active; 'I' for Inactive)
REMARK    1  A    between atoms: S_1  and  N_6
REMARK    2  A    between atoms: S_1  and  C_19
REMARK    3  A    between atoms: C_17  and  C_20
REMARK                            x       y       z     vdW  Elec       q    Type
REMARK                         _______ _______ _______ _____ _____    ______ ____
ROOT
ATOM      5  O   UNL     1      10.624   6.860   1.056  0.00  0.00    -0.267 OA
ATOM      6  N   UNL     1      11.466   7.186   5.959  0.00  0.00    -0.175 NA
ATOM      7  N   UNL     1      10.165   6.212   3.249  0.00  0.00    -0.311 N 
ATOM      8  C   UNL     1       9.253   7.838   5.005  0.00  0.00    +0.025 C 
ATOM      9  C   UNL     1       9.676   5.496   5.614  0.00  0.00    +0.052 C 
ATOM     10  C   UNL     1       8.618   6.596   5.620  0.00  0.00    +0.017 C 
ATOM     11  C   UNL     1      10.469   8.287   5.832  0.00  0.00    +0.114 C 
ATOM     12  C   UNL     1      10.868   5.924   6.488  0.00  0.00    +0.119 C 
ATOM     13  C   UNL     1       9.613   7.542   3.545  0.00  0.00    +0.130 C 
ATOM     14  C   UNL     1      10.140   5.191   4.202  0.00  0.00    +0.026 A 
ATOM     15  C   UNL     1      10.543   3.953   3.873  0.00  0.00    +0.022 A 
ATOM     16  C   UNL     1      10.620   5.994   1.933  0.00  0.00    +0.259 A 
ATOM     17  C   UNL     1      11.099   4.607   1.605  0.00  0.00    +0.047 A 
ATOM     18  C   UNL     1      11.034   3.663   2.556  0.00  0.00    +0.015 A 
ENDROOT
BRANCH  17  20
ATOM     20  C   UNL     1      11.638   4.279   0.274  0.00  0.00    -0.012 A 
ATOM     22  C   UNL     1      10.771   4.057  -0.797  0.00  0.00    +0.017 A 
ATOM     23  C   UNL     1      13.015   4.192   0.083  0.00  0.00    +0.009 A 
ATOM     26  C   UNL     1      11.270   3.743  -2.072  0.00  0.00    -0.017 A 
ATOM     27  C   UNL     1      13.528   3.882  -1.177  0.00  0.00    +0.009 A 
ATOM     28  C   UNL     1      12.669   3.655  -2.264  0.00  0.00    -0.018 A 
ATOM     29  C   UNL     1      10.411   3.516  -3.160  0.00  0.00    +0.008 A 
ATOM     30  C   UNL     1      13.168   3.342  -3.539  0.00  0.00    +0.008 A 
ATOM     31  C   UNL     1      10.924   3.206  -4.419  0.00  0.00    +0.001 A 
ATOM     32  C   UNL     1      12.300   3.119  -4.608  0.00  0.00    +0.001 A 
ENDBRANCH  17  20
BRANCH   6   1
ATOM      1  S   UNL     1      12.975   7.629   6.633  0.00  0.00    +0.067 S 
ATOM      3  O   UNL     1      13.406   6.578   7.531  0.00  0.00    -0.152 OA
ATOM      4  O   UNL     1      12.923   9.016   7.047  0.00  0.00    -0.152 OA
BRANCH   1  19
ATOM      2  S   UNL     1      13.509   7.329   3.774  0.00  0.00    -0.077 S 
ATOM     19  C   UNL     1      14.178   7.621   5.309  0.00  0.00    +0.143 A 
ATOM     21  C   UNL     1      15.523   7.803   5.298  0.00  0.00    +0.036 A 
ATOM     24  C   UNL     1      16.043   7.701   3.975  0.00  0.00    +0.010 A 
ATOM     25  C   UNL     1      15.056   7.445   3.049  0.00  0.00    +0.047 A 
ENDBRANCH   1  19
ENDBRANCH   6   1
TORSDOF 3
ENDMDL
MODEL 8
REMARK VINA RESULT:      -7.6      1.906      2.207
REMARK  Name = 11885156
REMARK  3 active torsions:
REMARK  status: ('A' for Active; 'I' for Inactive)
REMARK    1  A    between atoms: S_1  and  N_6
REMARK    2  A    between atoms: S_1  and  C_19
REMARK    3  A    between atoms: C_17  and  C_20
REMARK                            x       y       z     vdW  Elec       q    Type
REMARK                         _______ _______ _______ _____ _____    ______ ____
ROOT
ATOM      5  O   UNL     1      16.119   6.255  18.464  0.00  0.00    -0.267 OA
ATOM      6  N   UNL     1      13.589  10.545  18.243  0.00  0.00    -0.175 NA
ATOM      7  N   UNL     1      14.520   7.723  19.317  0.00  0.00    -0.311 N 
ATOM      8  C   UNL     1      12.402   8.359  18.025  0.00  0.00    +0.025 C 
ATOM      9  C   UNL     1      12.804   9.311  20.254  0.00  0.00    +0.052 C 
ATOM     10  C   UNL     1      11.787   8.551  19.406  0.00  0.00    +0.017 C 
ATOM     11  C   UNL     1      12.703   9.720  17.374  0.00  0.00    +0.114 C 
ATOM     12  C   UNL     1      13.060  10.696  19.631  0.00  0.00    +0.119 C 
ATOM     13  C   UNL     1      13.653   7.482  18.155  0.00  0.00    +0.130 C 
ATOM     14  C   UNL     1      14.103   8.538  20.372  0.00  0.00    +0.026 A 
ATOM     15  C   UNL     1      14.861   8.651  21.476  0.00  0.00    +0.022 A 
ATOM     16  C   UNL     1      15.735   7.010  19.359  0.00  0.00    +0.259 A 
ATOM     17  C   UNL     1      16.578   7.184  20.592  0.00  0.00    +0.047 A 
ATOM     18  C   UNL     1      16.118   7.967  21.580  0.00  0.00    +0.015 A 
ENDROOT
BRANCH  17  20
ATOM     20  C   UNL     1      17.888   6.523  20.722  0.00  0.00    -0.012 A 
ATOM     22  C   UNL     1      18.733   6.847  21.783  0.00  0.00    +0.017 A 
ATOM     23  C   UNL     1      18.284   5.573  19.784  0.00  0.00    +0.009 A 
ATOM     26  C   UNL     1      19.986   6.226  21.921  0.00  0.00    -0.017 A 
ATOM     27  C   UNL     1      19.524   4.944  19.904  0.00  0.00    +0.009 A 
ATOM     28  C   UNL     1      20.386   5.260  20.966  0.00  0.00    -0.018 A 
ATOM     29  C   UNL     1      20.848   6.540  22.983  0.00  0.00    +0.008 A 
ATOM     30  C   UNL     1      21.638   4.638  21.104  0.00  0.00    +0.008 A 
ATOM     31  C   UNL     1      22.088   5.913  23.103  0.00  0.00    +0.001 A 
ATOM     32  C   UNL     1      22.483   4.964  22.165  0.00  0.00    +0.001 A 
ENDBRANCH  17  20
BRANCH   6   1
ATOM      1  S   UNL     1      14.207  11.971  17.527  0.00  0.00    +0.067 S 
ATOM      3  O   UNL     1      13.446  13.101  18.019  0.00  0.00    -0.152 OA
ATOM      4  O   UNL     1      14.411  11.744  16.112  0.00  0.00    -0.152 OA
BRANCH   1  19
ATOM      2  S   UNL     1      16.885  13.065  17.103  0.00  0.00    -0.077 S 
ATOM     19  C   UNL     1      15.859  12.221  18.164  0.00  0.00    +0.143 A 
ATOM     21  C   UNL     1      16.449  11.866  19.334  0.00  0.00    +0.036 A 
ATOM     24  C   UNL     1      17.806  12.298  19.375  0.00  0.00    +0.010 A 
ATOM     25  C   UNL     1      18.173  12.963  18.227  0.00  0.00    +0.047 A 
ENDBRANCH   1  19
ENDBRANCH   6   1
TORSDOF 3
ENDMDL
MODEL 9
REMARK VINA RESULT:      -7.5     27.805     30.483
REMARK  Name = 11885156
REMARK  3 active torsions:
REMARK  status: ('A' for Active; 'I' for Inactive)
REMARK    1  A    between atoms: S_1  and  N_6
REMARK    2  A    between atoms: S_1  and  C_19
REMARK    3  A    between atoms: C_17  and  C_20
REMARK                            x       y       z     vdW  Elec       q    Type
REMARK                         _______ _______ _______ _____ _____    ______ ____
ROOT
ATOM      5  O   UNL     1      -5.530 -12.520  10.205  0.00  0.00    -0.267 OA
ATOM      6  N   UNL     1      -3.762 -11.954  14.833  0.00  0.00    -0.175 NA
ATOM      7  N   UNL     1      -3.751 -12.224  11.684  0.00  0.00    -0.311 N 
ATOM      8  C   UNL     1      -3.142 -13.954  13.472  0.00  0.00    +0.025 C 
ATOM      9  C   UNL     1      -1.826 -11.889  13.274  0.00  0.00    +0.052 C 
ATOM     10  C   UNL     1      -1.726 -13.412  13.314  0.00  0.00    +0.017 C 
ATOM     11  C   UNL     1      -3.772 -13.444  14.779  0.00  0.00    +0.114 C 
ATOM     12  C   UNL     1      -2.404 -11.377  14.606  0.00  0.00    +0.119 C 
ATOM     13  C   UNL     1      -3.963 -13.570  12.236  0.00  0.00    +0.130 C 
ATOM     14  C   UNL     1      -2.687 -11.427  12.114  0.00  0.00    +0.026 A 
ATOM     15  C   UNL     1      -2.443 -10.251  11.514  0.00  0.00    +0.022 A 
ATOM     16  C   UNL     1      -4.604 -11.829  10.635  0.00  0.00    +0.259 A 
ATOM     17  C   UNL     1      -4.328 -10.491  10.007  0.00  0.00    +0.047 A 
ATOM     18  C   UNL     1      -3.281  -9.777  10.449  0.00  0.00    +0.015 A 
ENDROOT
BRANCH  17  20
ATOM     20  C   UNL     1      -5.184  -9.959   8.934  0.00  0.00    -0.012 A 
ATOM     22  C   UNL     1      -6.116  -8.958   9.214  0.00  0.00    +0.017 A 
ATOM     23  C   UNL     1      -5.066 -10.454   7.637  0.00  0.00    +0.009 A 
ATOM     26  C   UNL     1      -6.941  -8.440   8.202  0.00  0.00    -0.017 A 
ATOM     27  C   UNL     1      -5.876  -9.951   6.619  0.00  0.00    +0.009 A 
ATOM     28  C   UNL     1      -6.819  -8.945   6.885  0.00  0.00    -0.018 A 
ATOM     29  C   UNL     1      -7.883  -7.434   8.467  0.00  0.00    +0.008 A 
ATOM     30  C   UNL     1      -7.643  -8.427   5.873  0.00  0.00    +0.008 A 
ATOM     31  C   UNL     1      -8.694  -6.932   7.449  0.00  0.00    +0.001 A 
ATOM     32  C   UNL     1      -8.575  -7.427   6.155  0.00  0.00    +0.001 A 
ENDBRANCH  17  20
BRANCH   6   1
ATOM      1  S   UNL     1      -4.661 -11.255  16.109  0.00  0.00    +0.067 S 
ATOM      3  O   UNL     1      -3.951 -10.086  16.587  0.00  0.00    -0.152 OA
ATOM      4  O   UNL     1      -5.106 -12.300  17.007  0.00  0.00    -0.152 OA
BRANCH   1  19
ATOM      2  S   UNL     1      -6.072 -10.248  13.754  0.00  0.00    -0.077 S 
ATOM     19  C   UNL     1      -6.178 -10.613  15.411  0.00  0.00    +0.143 A 
ATOM     21  C   UNL     1      -7.396 -10.362  15.954  0.00  0.00    +0.036 A 
ATOM     24  C   UNL     1      -8.295  -9.845  14.976  0.00  0.00    +0.010 A 
ATOM     25  C   UNL     1      -7.705  -9.733  13.737  0.00  0.00    +0.047 A 
ENDBRANCH   1  19
ENDBRANCH   6   1
TORSDOF 3
ENDMDL
MODEL 10
REMARK VINA RESULT:      -7.4     23.665     26.047
REMARK  Name = 11885156
REMARK  3 active torsions:
REMARK  status: ('A' for Active; 'I' for Inactive)
REMARK    1  A    between atoms: S_1  and  N_6
REMARK    2  A    between atoms: S_1  and  C_19
REMARK    3  A    between atoms: C_17  and  C_20
REMARK                            x       y       z     vdW  Elec       q    Type
REMARK                         _______ _______ _______ _____ _____    ______ ____
ROOT
ATOM      5  O   UNL     1       9.278 -11.643  31.871  0.00  0.00    -0.267 OA
ATOM      6  N   UNL     1       7.467  -8.514  35.305  0.00  0.00    -0.175 NA
ATOM      7  N   UNL     1       8.668  -9.497  32.552  0.00  0.00    -0.311 N 
ATOM      8  C   UNL     1       9.818  -8.287  34.494  0.00  0.00    +0.025 C 
ATOM      9  C   UNL     1       7.996  -7.180  33.274  0.00  0.00    +0.052 C 
ATOM     10  C   UNL     1       9.440  -7.017  33.742  0.00  0.00    +0.017 C 
ATOM     11  C   UNL     1       8.901  -8.486  35.713  0.00  0.00    +0.114 C 
ATOM     12  C   UNL     1       7.073  -7.321  34.498  0.00  0.00    +0.119 C 
ATOM     13  C   UNL     1       9.770  -9.474  33.524  0.00  0.00    +0.130 C 
ATOM     14  C   UNL     1       7.849  -8.382  32.361  0.00  0.00    +0.026 A 
ATOM     15  C   UNL     1       6.925  -8.384  31.387  0.00  0.00    +0.022 A 
ATOM     16  C   UNL     1       8.551 -10.654  31.756  0.00  0.00    +0.259 A 
ATOM     17  C   UNL     1       7.483 -10.641  30.697  0.00  0.00    +0.047 A 
ATOM     18  C   UNL     1       6.738  -9.535  30.549  0.00  0.00    +0.015 A 
ENDROOT
BRANCH  17  20
ATOM     20  C   UNL     1       7.243 -11.814  29.840  0.00  0.00    -0.012 A 
ATOM     22  C   UNL     1       6.145 -12.642  30.079  0.00  0.00    +0.017 A 
ATOM     23  C   UNL     1       8.111 -12.099  28.789  0.00  0.00    +0.009 A 
ATOM     26  C   UNL     1       5.902 -13.765  29.271  0.00  0.00    -0.017 A 
ATOM     27  C   UNL     1       7.886 -13.209  27.975  0.00  0.00    +0.009 A 
ATOM     28  C   UNL     1       6.786 -14.052  28.203  0.00  0.00    -0.018 A 
ATOM     29  C   UNL     1       4.803 -14.608  29.497  0.00  0.00    +0.008 A 
ATOM     30  C   UNL     1       6.543 -15.174  27.394  0.00  0.00    +0.008 A 
ATOM     31  C   UNL     1       4.577 -15.719  28.685  0.00  0.00    +0.001 A 
ATOM     32  C   UNL     1       5.446 -16.002  27.635  0.00  0.00    +0.001 A 
ENDBRANCH  17  20
BRANCH   6   1
ATOM      1  S   UNL     1       6.361  -8.984  36.522  0.00  0.00    +0.067 S 
ATOM      3  O   UNL     1       5.575  -7.828  36.902  0.00  0.00    -0.152 OA
ATOM      4  O   UNL     1       7.049  -9.797  37.503  0.00  0.00    -0.152 OA
BRANCH   1  19
ATOM      2  S   UNL     1       5.875 -11.167  34.639  0.00  0.00    -0.077 S 
ATOM     19  C   UNL     1       5.187 -10.109  35.778  0.00  0.00    +0.143 A 
ATOM     21  C   UNL     1       3.851 -10.278  35.949  0.00  0.00    +0.036 A 
ATOM     24  C   UNL     1       3.356 -11.321  35.113  0.00  0.00    +0.010 A 
ATOM     25  C   UNL     1       4.350 -11.889  34.349  0.00  0.00    +0.047 A 
ENDBRANCH   1  19
ENDBRANCH   6   1
TORSDOF 3
ENDMDL
