MODEL 1
REMARK VINA RESULT:      -8.0      0.000      0.000
REMARK  Name = 45783589
REMARK  7 active torsions:
REMARK  status: ('A' for Active; 'I' for Inactive)
REMARK    1  A    between atoms: O_1  and  C_11
REMARK    2  A    between atoms: O_1  and  C_23
REMARK    3  A    between atoms: N_3  and  C_12
REMARK    4  A    between atoms: C_7  and  C_18
REMARK    5  A    between atoms: C_12  and  C_19
REMARK    6  A    between atoms: C_20  and  C_24
REMARK    7  A    between atoms: C_27  and  C_31
REMARK                            x       y       z     vdW  Elec       q    Type
REMARK                         _______ _______ _______ _____ _____    ______ ____
ROOT
ATOM      2  O   UNL     1      15.358   8.478  20.171  0.00  0.00    -0.336 OA
ATOM      4  N   UNL     1      16.261   6.587  19.380  0.00  0.00    -0.190 NA
ATOM      5  N   UNL     1      16.582   8.325  20.834  0.00  0.00    -0.056 NA
ATOM     18  C   UNL     1      15.247   7.414  19.334  0.00  0.00    +0.245 A 
ATOM     20  C   UNL     1      17.055   7.187  20.314  0.00  0.00    +0.204 A 
ENDROOT
BRANCH  20  24
ATOM      6  N   UNL     1      20.186   6.616  22.234  0.00  0.00    -0.221 NA
ATOM     23  C   UNL     1      20.713   5.604  21.508  0.00  0.00    +0.215 A 
ATOM     24  C   UNL     1      18.312   6.625  20.705  0.00  0.00    +0.041 A 
ATOM     28  C   UNL     1      20.110   5.057  20.387  0.00  0.00    +0.068 A 
ATOM     29  C   UNL     1      18.887   5.583  19.985  0.00  0.00    +0.018 A 
ATOM     30  C   UNL     1      18.996   7.102  21.812  0.00  0.00    +0.126 A 
BRANCH  23   1
ATOM      1  O   UNL     1      21.918   5.104  21.925  0.00  0.00    -0.473 OA
BRANCH   1  11
ATOM     11  C   UNL     1      22.584   4.213  21.035  0.00  0.00    +0.175 C 
ATOM     13  C   UNL     1      22.892   2.903  21.758  0.00  0.00    +0.044 C 
ATOM     14  C   UNL     1      23.854   4.875  20.503  0.00  0.00    +0.044 C 
ATOM     15  C   UNL     1      23.693   1.951  20.875  0.00  0.00    +0.004 C 
ATOM     16  C   UNL     1      24.655   3.924  19.620  0.00  0.00    +0.004 C 
ATOM     17  C   UNL     1      24.961   2.613  20.341  0.00  0.00    +0.000 C 
ENDBRANCH   1  11
ENDBRANCH  23   1
ENDBRANCH  20  24
BRANCH  18   7
ATOM      3  N   UNL     1      13.005   8.383  18.857  0.00  0.00    -0.287 NA
ATOM      7  C   UNL     1      13.991   7.347  18.491  0.00  0.00    +0.146 C 
ATOM      8  C   UNL     1      14.264   7.579  16.994  0.00  0.00    +0.030 C 
ATOM      9  C   UNL     1      13.344   8.723  16.595  0.00  0.00    +0.017 C 
ATOM     10  C   UNL     1      12.249   8.684  17.641  0.00  0.00    +0.085 C 
BRANCH   3  12
ATOM     12  C   UNL     1      12.135   7.986  19.958  0.00  0.00    +0.120 C 
BRANCH  12  19
ATOM     19  C   UNL     1      11.819   9.143  20.868  0.00  0.00    -0.033 A 
ATOM     21  C   UNL     1      10.970   8.960  21.960  0.00  0.00    +0.005 A 
ATOM     22  C   UNL     1      12.373  10.399  20.619  0.00  0.00    +0.005 A 
ATOM     25  C   UNL     1      10.674  10.032  22.801  0.00  0.00    +0.003 A 
ATOM     26  C   UNL     1      12.077  11.471  21.460  0.00  0.00    +0.003 A 
ATOM     27  C   UNL     1      11.228  11.288  22.552  0.00  0.00    -0.050 A 
ATOM     31  C   UNL     1      10.911  12.435  23.451  0.00  0.00    +0.044 C 
ENDBRANCH  12  19
ENDBRANCH   3  12
ENDBRANCH  18   7
TORSDOF 6
ENDMDL
MODEL 2
REMARK VINA RESULT:      -7.1     28.188     32.381
REMARK  Name = 45783589
REMARK  7 active torsions:
REMARK  status: ('A' for Active; 'I' for Inactive)
REMARK    1  A    between atoms: O_1  and  C_11
REMARK    2  A    between atoms: O_1  and  C_23
REMARK    3  A    between atoms: N_3  and  C_12
REMARK    4  A    between atoms: C_7  and  C_18
REMARK    5  A    between atoms: C_12  and  C_19
REMARK    6  A    between atoms: C_20  and  C_24
REMARK    7  A    between atoms: C_27  and  C_31
REMARK                            x       y       z     vdW  Elec       q    Type
REMARK                         _______ _______ _______ _____ _____    ______ ____
ROOT
ATOM      2  O   UNL     1      -7.903  -9.571   6.911  0.00  0.00    -0.336 OA
ATOM      4  N   UNL     1      -7.241  -7.930   8.285  0.00  0.00    -0.190 NA
ATOM      5  N   UNL     1      -9.033  -8.778   7.144  0.00  0.00    -0.056 NA
ATOM     18  C   UNL     1      -6.893  -9.002   7.619  0.00  0.00    +0.245 A 
ATOM     20  C   UNL     1      -8.563  -7.831   7.963  0.00  0.00    +0.204 A 
ENDROOT
BRANCH  20  24
ATOM      6  N   UNL     1      -9.740  -4.409   8.811  0.00  0.00    -0.221 NA
ATOM     23  C   UNL     1     -10.901  -4.718   9.432  0.00  0.00    +0.215 A 
ATOM     24  C   UNL     1      -9.386  -6.777   8.476  0.00  0.00    +0.041 A 
ATOM     28  C   UNL     1     -11.365  -6.011   9.610  0.00  0.00    +0.068 A 
ATOM     29  C   UNL     1     -10.587  -7.055   9.120  0.00  0.00    +0.018 A 
ATOM     30  C   UNL     1      -9.011  -5.450   8.349  0.00  0.00    +0.126 A 
BRANCH  23   1
ATOM      1  O   UNL     1     -11.649  -3.673   9.905  0.00  0.00    -0.473 OA
BRANCH   1  11
ATOM     11  C   UNL     1     -12.750  -4.003  10.746  0.00  0.00    +0.175 C 
ATOM     13  C   UNL     1     -13.999  -3.262  10.269  0.00  0.00    +0.044 C 
ATOM     14  C   UNL     1     -12.410  -3.659  12.195  0.00  0.00    +0.044 C 
ATOM     15  C   UNL     1     -15.184  -3.506  11.196  0.00  0.00    +0.004 C 
ATOM     16  C   UNL     1     -13.596  -3.903  13.123  0.00  0.00    +0.004 C 
ATOM     17  C   UNL     1     -14.844  -3.165  12.645  0.00  0.00    +0.000 C 
ENDBRANCH   1  11
ENDBRANCH  23   1
ENDBRANCH  20  24
BRANCH  18   7
ATOM      3  N   UNL     1      -5.050 -10.136   8.849  0.00  0.00    -0.287 NA
ATOM      7  C   UNL     1      -5.542  -9.682   7.533  0.00  0.00    +0.146 C 
ATOM      8  C   UNL     1      -5.570 -10.954   6.666  0.00  0.00    +0.030 C 
ATOM      9  C   UNL     1      -5.020 -12.056   7.560  0.00  0.00    +0.017 C 
ATOM     10  C   UNL     1      -4.207 -11.305   8.595  0.00  0.00    +0.085 C 
BRANCH   3  12
ATOM     12  C   UNL     1      -4.338  -9.098   9.585  0.00  0.00    +0.120 C 
BRANCH  12  19
ATOM     19  C   UNL     1      -3.709  -9.634  10.843  0.00  0.00    -0.033 A 
ATOM     21  C   UNL     1      -4.516 -10.064  11.898  0.00  0.00    +0.005 A 
ATOM     22  C   UNL     1      -2.321  -9.700  10.956  0.00  0.00    +0.005 A 
ATOM     25  C   UNL     1      -3.934 -10.558  13.065  0.00  0.00    +0.003 A 
ATOM     26  C   UNL     1      -1.739 -10.194  12.123  0.00  0.00    +0.003 A 
ATOM     27  C   UNL     1      -2.545 -10.624  13.178  0.00  0.00    -0.050 A 
ATOM     31  C   UNL     1      -1.923 -11.152  14.426  0.00  0.00    +0.044 C 
ENDBRANCH  12  19
ENDBRANCH   3  12
ENDBRANCH  18   7
TORSDOF 6
ENDMDL
MODEL 3
REMARK VINA RESULT:      -7.1     13.955     16.256
REMARK  Name = 45783589
REMARK  7 active torsions:
REMARK  status: ('A' for Active; 'I' for Inactive)
REMARK    1  A    between atoms: O_1  and  C_11
REMARK    2  A    between atoms: O_1  and  C_23
REMARK    3  A    between atoms: N_3  and  C_12
REMARK    4  A    between atoms: C_7  and  C_18
REMARK    5  A    between atoms: C_12  and  C_19
REMARK    6  A    between atoms: C_20  and  C_24
REMARK    7  A    between atoms: C_27  and  C_31
REMARK                            x       y       z     vdW  Elec       q    Type
REMARK                         _______ _______ _______ _____ _____    ______ ____
ROOT
ATOM      2  O   UNL     1      10.803   8.793   7.571  0.00  0.00    -0.336 OA
ATOM      4  N   UNL     1      12.268   7.398   6.608  0.00  0.00    -0.190 NA
ATOM      5  N   UNL     1      11.988   9.521   7.414  0.00  0.00    -0.056 NA
ATOM     18  C   UNL     1      11.054   7.555   7.071  0.00  0.00    +0.245 A 
ATOM     20  C   UNL     1      12.805   8.632   6.839  0.00  0.00    +0.204 A 
ENDROOT
BRANCH  20  24
ATOM      6  N   UNL     1      16.311   8.184   5.689  0.00  0.00    -0.221 NA
ATOM     23  C   UNL     1      16.748   9.459   5.801  0.00  0.00    +0.215 A 
ATOM     24  C   UNL     1      14.158   8.942   6.487  0.00  0.00    +0.041 A 
ATOM     28  C   UNL     1      15.964  10.512   6.240  0.00  0.00    +0.068 A 
ATOM     29  C   UNL     1      14.645  10.241   6.589  0.00  0.00    +0.018 A 
ATOM     30  C   UNL     1      15.024   7.959   6.037  0.00  0.00    +0.126 A 
BRANCH  23   1
ATOM      1  O   UNL     1      18.050   9.700   5.453  0.00  0.00    -0.473 OA
BRANCH   1  11
ATOM     11  C   UNL     1      18.941   8.590   5.495  0.00  0.00    +0.175 C 
ATOM     13  C   UNL     1      20.000   8.824   6.572  0.00  0.00    +0.044 C 
ATOM     14  C   UNL     1      19.573   8.387   4.119  0.00  0.00    +0.044 C 
ATOM     15  C   UNL     1      21.037   7.705   6.590  0.00  0.00    +0.004 C 
ATOM     16  C   UNL     1      20.610   7.268   4.137  0.00  0.00    +0.004 C 
ATOM     17  C   UNL     1      21.667   7.500   5.215  0.00  0.00    +0.000 C 
ENDBRANCH   1  11
ENDBRANCH  23   1
ENDBRANCH  20  24
BRANCH  18   7
ATOM      3  N   UNL     1      10.114   5.414   6.217  0.00  0.00    -0.287 NA
ATOM      7  C   UNL     1       9.912   6.561   7.124  0.00  0.00    +0.146 C 
ATOM      8  C   UNL     1       9.735   5.931   8.518  0.00  0.00    +0.030 C 
ATOM      9  C   UNL     1       9.793   4.428   8.284  0.00  0.00    +0.017 C 
ATOM     10  C   UNL     1       9.419   4.279   6.824  0.00  0.00    +0.085 C 
BRANCH   3  12
ATOM     12  C   UNL     1       9.659   5.672   4.856  0.00  0.00    +0.120 C 
BRANCH  12  19
ATOM     19  C   UNL     1      10.686   5.261   3.834  0.00  0.00    -0.033 A 
ATOM     21  C   UNL     1      10.696   3.956   3.341  0.00  0.00    +0.005 A 
ATOM     22  C   UNL     1      11.629   6.184   3.383  0.00  0.00    +0.005 A 
ATOM     25  C   UNL     1      11.649   3.574   2.397  0.00  0.00    +0.003 A 
ATOM     26  C   UNL     1      12.582   5.802   2.439  0.00  0.00    +0.003 A 
ATOM     27  C   UNL     1      12.592   4.497   1.946  0.00  0.00    -0.050 A 
ATOM     31  C   UNL     1      13.612   4.088   0.937  0.00  0.00    +0.044 C 
ENDBRANCH  12  19
ENDBRANCH   3  12
ENDBRANCH  18   7
TORSDOF 6
ENDMDL
MODEL 4
REMARK VINA RESULT:      -7.1     29.471     32.241
REMARK  Name = 45783589
REMARK  7 active torsions:
REMARK  status: ('A' for Active; 'I' for Inactive)
REMARK    1  A    between atoms: O_1  and  C_11
REMARK    2  A    between atoms: O_1  and  C_23
REMARK    3  A    between atoms: N_3  and  C_12
REMARK    4  A    between atoms: C_7  and  C_18
REMARK    5  A    between atoms: C_12  and  C_19
REMARK    6  A    between atoms: C_20  and  C_24
REMARK    7  A    between atoms: C_27  and  C_31
REMARK                            x       y       z     vdW  Elec       q    Type
REMARK                         _______ _______ _______ _____ _____    ______ ____
ROOT
ATOM      2  O   UNL     1     -13.999  -6.133  13.377  0.00  0.00    -0.336 OA
ATOM      4  N   UNL     1     -12.006  -5.511  14.189  0.00  0.00    -0.190 NA
ATOM      5  N   UNL     1     -13.528  -7.218  14.125  0.00  0.00    -0.056 NA
ATOM     18  C   UNL     1     -13.044  -5.171  13.466  0.00  0.00    +0.245 A 
ATOM     20  C   UNL     1     -12.348  -6.775  14.572  0.00  0.00    +0.204 A 
ENDROOT
BRANCH  20  24
ATOM      6  N   UNL     1     -10.553  -9.734  15.928  0.00  0.00    -0.221 NA
ATOM     23  C   UNL     1      -9.876  -9.142  16.938  0.00  0.00    +0.215 A 
ATOM     24  C   UNL     1     -11.490  -7.568  15.400  0.00  0.00    +0.041 A 
ATOM     28  C   UNL     1      -9.951  -7.791  17.236  0.00  0.00    +0.068 A 
ATOM     29  C   UNL     1     -10.777  -6.996  16.448  0.00  0.00    +0.018 A 
ATOM     30  C   UNL     1     -11.345  -8.929  15.184  0.00  0.00    +0.126 A 
BRANCH  23   1
ATOM      1  O   UNL     1      -9.070  -9.946  17.699  0.00  0.00    -0.473 OA
BRANCH   1  11
ATOM     11  C   UNL     1      -7.673  -9.673  17.662  0.00  0.00    +0.175 C 
ATOM     13  C   UNL     1      -7.160  -9.820  16.230  0.00  0.00    +0.044 C 
ATOM     14  C   UNL     1      -6.942 -10.611  18.621  0.00  0.00    +0.044 C 
ATOM     15  C   UNL     1      -5.648  -9.633  16.154  0.00  0.00    +0.004 C 
ATOM     16  C   UNL     1      -5.430 -10.423  18.545  0.00  0.00    +0.004 C 
ATOM     17  C   UNL     1      -4.917 -10.568  17.114  0.00  0.00    +0.000 C 
ENDBRANCH   1  11
ENDBRANCH  23   1
ENDBRANCH  20  24
BRANCH  18   7
ATOM      3  N   UNL     1     -13.154  -4.008  11.269  0.00  0.00    -0.287 NA
ATOM      7  C   UNL     1     -13.319  -3.876  12.731  0.00  0.00    +0.146 C 
ATOM      8  C   UNL     1     -14.764  -3.380  12.918  0.00  0.00    +0.030 C 
ATOM      9  C   UNL     1     -15.309  -3.204  11.508  0.00  0.00    +0.017 C 
ATOM     10  C   UNL     1     -14.065  -3.037  10.661  0.00  0.00    +0.085 C 
BRANCH   3  12
ATOM     12  C   UNL     1     -11.778  -3.818  10.827  0.00  0.00    +0.120 C 
BRANCH  12  19
ATOM     19  C   UNL     1     -11.335  -4.910   9.889  0.00  0.00    -0.033 A 
ATOM     21  C   UNL     1     -11.906  -6.180   9.978  0.00  0.00    +0.005 A 
ATOM     22  C   UNL     1     -10.354  -4.653   8.932  0.00  0.00    +0.005 A 
ATOM     25  C   UNL     1     -11.495  -7.192   9.111  0.00  0.00    +0.003 A 
ATOM     26  C   UNL     1      -9.943  -5.664   8.065  0.00  0.00    +0.003 A 
ATOM     27  C   UNL     1     -10.514  -6.935   8.154  0.00  0.00    -0.050 A 
ATOM     31  C   UNL     1     -10.073  -8.017   7.227  0.00  0.00    +0.044 C 
ENDBRANCH  12  19
ENDBRANCH   3  12
ENDBRANCH  18   7
TORSDOF 6
ENDMDL
MODEL 5
REMARK VINA RESULT:      -7.1     27.419     31.132
REMARK  Name = 45783589
REMARK  7 active torsions:
REMARK  status: ('A' for Active; 'I' for Inactive)
REMARK    1  A    between atoms: O_1  and  C_11
REMARK    2  A    between atoms: O_1  and  C_23
REMARK    3  A    between atoms: N_3  and  C_12
REMARK    4  A    between atoms: C_7  and  C_18
REMARK    5  A    between atoms: C_12  and  C_19
REMARK    6  A    between atoms: C_20  and  C_24
REMARK    7  A    between atoms: C_27  and  C_31
REMARK                            x       y       z     vdW  Elec       q    Type
REMARK                         _______ _______ _______ _____ _____    ______ ____
ROOT
ATOM      2  O   UNL     1      -4.303 -13.206  15.420  0.00  0.00    -0.336 OA
ATOM      4  N   UNL     1      -4.484 -11.260  16.514  0.00  0.00    -0.190 NA
ATOM      5  N   UNL     1      -5.481 -13.291  16.172  0.00  0.00    -0.056 NA
ATOM     18  C   UNL     1      -3.779 -11.980  15.679  0.00  0.00    +0.245 A 
ATOM     20  C   UNL     1      -5.519 -12.106  16.790  0.00  0.00    +0.204 A 
ENDROOT
BRANCH  20  24
ATOM      6  N   UNL     1      -7.308 -11.323  19.953  0.00  0.00    -0.221 NA
ATOM     23  C   UNL     1      -8.534 -11.046  19.454  0.00  0.00    +0.215 A 
ATOM     24  C   UNL     1      -6.573 -11.737  17.686  0.00  0.00    +0.041 A 
ATOM     28  C   UNL     1      -8.852 -11.091  18.107  0.00  0.00    +0.068 A 
ATOM     29  C   UNL     1      -7.847 -11.445  17.212  0.00  0.00    +0.018 A 
ATOM     30  C   UNL     1      -6.357 -11.664  19.053  0.00  0.00    +0.126 A 
BRANCH  23   1
ATOM      1  O   UNL     1      -9.506 -10.701  20.355  0.00  0.00    -0.473 OA
BRANCH   1  11
ATOM     11  C   UNL     1     -10.856 -10.922  19.957  0.00  0.00    +0.175 C 
ATOM     13  C   UNL     1     -11.731  -9.773  20.454  0.00  0.00    +0.044 C 
ATOM     14  C   UNL     1     -11.334 -12.269  20.497  0.00  0.00    +0.044 C 
ATOM     15  C   UNL     1     -13.204 -10.013  20.137  0.00  0.00    +0.004 C 
ATOM     16  C   UNL     1     -12.807 -12.509  20.180  0.00  0.00    +0.004 C 
ATOM     17  C   UNL     1     -13.682 -11.360  20.673  0.00  0.00    +0.000 C 
ENDBRANCH   1  11
ENDBRANCH  23   1
ENDBRANCH  20  24
BRANCH  18   7
ATOM      3  N   UNL     1      -2.672 -10.677  13.870  0.00  0.00    -0.287 NA
ATOM      7  C   UNL     1      -2.482 -11.638  14.975  0.00  0.00    +0.146 C 
ATOM      8  C   UNL     1      -1.458 -10.965  15.907  0.00  0.00    +0.030 C 
ATOM      9  C   UNL     1      -1.087  -9.662  15.214  0.00  0.00    +0.017 C 
ATOM     10  C   UNL     1      -1.423  -9.922  13.759  0.00  0.00    +0.085 C 
BRANCH   3  12
ATOM     12  C   UNL     1      -3.039 -11.315  12.611  0.00  0.00    +0.120 C 
BRANCH  12  19
ATOM     19  C   UNL     1      -3.836 -10.393  11.728  0.00  0.00    -0.033 A 
ATOM     21  C   UNL     1      -5.079  -9.922  12.153  0.00  0.00    +0.005 A 
ATOM     22  C   UNL     1      -3.335 -10.010  10.484  0.00  0.00    +0.005 A 
ATOM     25  C   UNL     1      -5.820  -9.070  11.334  0.00  0.00    +0.003 A 
ATOM     26  C   UNL     1      -4.075  -9.158   9.665  0.00  0.00    +0.003 A 
ATOM     27  C   UNL     1      -5.318  -8.687  10.090  0.00  0.00    -0.050 A 
ATOM     31  C   UNL     1      -6.110  -7.777   9.213  0.00  0.00    +0.044 C 
ENDBRANCH  12  19
ENDBRANCH   3  12
ENDBRANCH  18   7
TORSDOF 6
ENDMDL
MODEL 6
REMARK VINA RESULT:      -7.1      1.417      2.029
REMARK  Name = 45783589
REMARK  7 active torsions:
REMARK  status: ('A' for Active; 'I' for Inactive)
REMARK    1  A    between atoms: O_1  and  C_11
REMARK    2  A    between atoms: O_1  and  C_23
REMARK    3  A    between atoms: N_3  and  C_12
REMARK    4  A    between atoms: C_7  and  C_18
REMARK    5  A    between atoms: C_12  and  C_19
REMARK    6  A    between atoms: C_20  and  C_24
REMARK    7  A    between atoms: C_27  and  C_31
REMARK                            x       y       z     vdW  Elec       q    Type
REMARK                         _______ _______ _______ _____ _____    ______ ____
ROOT
ATOM      2  O   UNL     1      14.844   8.999  21.471  0.00  0.00    -0.336 OA
ATOM      4  N   UNL     1      15.590   7.056  20.644  0.00  0.00    -0.190 NA
ATOM      5  N   UNL     1      16.236   9.027  21.610  0.00  0.00    -0.056 NA
ATOM     18  C   UNL     1      14.546   7.806  20.895  0.00  0.00    +0.245 A 
ATOM     20  C   UNL     1      16.604   7.847  21.100  0.00  0.00    +0.204 A 
ENDROOT
BRANCH  20  24
ATOM      6  N   UNL     1      19.607   5.824  20.258  0.00  0.00    -0.221 NA
ATOM     23  C   UNL     1      20.557   6.569  20.867  0.00  0.00    +0.215 A 
ATOM     24  C   UNL     1      17.972   7.428  21.033  0.00  0.00    +0.041 A 
ATOM     28  C   UNL     1      20.298   7.737  21.566  0.00  0.00    +0.068 A 
ATOM     29  C   UNL     1      18.978   8.168  21.646  0.00  0.00    +0.018 A 
ATOM     30  C   UNL     1      18.336   6.274  20.358  0.00  0.00    +0.126 A 
BRANCH  23   1
ATOM      1  O   UNL     1      21.849   6.124  20.774  0.00  0.00    -0.473 OA
BRANCH   1  11
ATOM     11  C   UNL     1      22.076   4.751  21.077  0.00  0.00    +0.175 C 
ATOM     13  C   UNL     1      22.036   4.547  22.591  0.00  0.00    +0.044 C 
ATOM     14  C   UNL     1      23.414   4.310  20.486  0.00  0.00    +0.044 C 
ATOM     15  C   UNL     1      22.371   3.109  22.973  0.00  0.00    +0.004 C 
ATOM     16  C   UNL     1      23.750   2.872  20.867  0.00  0.00    +0.004 C 
ATOM     17  C   UNL     1      23.707   2.667  22.379  0.00  0.00    +0.000 C 
ENDBRANCH   1  11
ENDBRANCH  23   1
ENDBRANCH  20  24
BRANCH  18   7
ATOM      3  N   UNL     1      12.232   8.720  20.838  0.00  0.00    -0.287 NA
ATOM      7  C   UNL     1      13.080   7.528  20.634  0.00  0.00    +0.146 C 
ATOM      8  C   UNL     1      12.805   7.096  19.183  0.00  0.00    +0.030 C 
ATOM      9  C   UNL     1      11.746   8.065  18.674  0.00  0.00    +0.017 C 
ATOM     10  C   UNL     1      11.086   8.571  19.940  0.00  0.00    +0.085 C 
BRANCH   3  12
ATOM     12  C   UNL     1      11.821   8.901  22.225  0.00  0.00    +0.120 C 
BRANCH  12  19
ATOM     19  C   UNL     1      11.488  10.338  22.528  0.00  0.00    -0.033 A 
ATOM     21  C   UNL     1      10.952  10.684  23.769  0.00  0.00    +0.005 A 
ATOM     22  C   UNL     1      11.714  11.324  21.567  0.00  0.00    +0.005 A 
ATOM     25  C   UNL     1      10.641  12.014  24.048  0.00  0.00    +0.003 A 
ATOM     26  C   UNL     1      11.403  12.654  21.847  0.00  0.00    +0.003 A 
ATOM     27  C   UNL     1      10.867  13.000  23.088  0.00  0.00    -0.050 A 
ATOM     31  C   UNL     1      10.534  14.422  23.386  0.00  0.00    +0.044 C 
ENDBRANCH  12  19
ENDBRANCH   3  12
ENDBRANCH  18   7
TORSDOF 6
ENDMDL
MODEL 7
REMARK VINA RESULT:      -7.0     28.147     30.316
REMARK  Name = 45783589
REMARK  7 active torsions:
REMARK  status: ('A' for Active; 'I' for Inactive)
REMARK    1  A    between atoms: O_1  and  C_11
REMARK    2  A    between atoms: O_1  and  C_23
REMARK    3  A    between atoms: N_3  and  C_12
REMARK    4  A    between atoms: C_7  and  C_18
REMARK    5  A    between atoms: C_12  and  C_19
REMARK    6  A    between atoms: C_20  and  C_24
REMARK    7  A    between atoms: C_27  and  C_31
REMARK                            x       y       z     vdW  Elec       q    Type
REMARK                         _______ _______ _______ _____ _____    ______ ____
ROOT
ATOM      2  O   UNL     1     -12.187  11.910  19.113  0.00  0.00    -0.336 OA
ATOM      4  N   UNL     1     -11.446  10.421  20.614  0.00  0.00    -0.190 NA
ATOM      5  N   UNL     1     -12.944  12.117  20.272  0.00  0.00    -0.056 NA
ATOM     18  C   UNL     1     -11.330  10.895  19.399  0.00  0.00    +0.245 A 
ATOM     20  C   UNL     1     -12.449  11.201  21.112  0.00  0.00    +0.204 A 
ENDROOT
BRANCH  20  24
ATOM      6  N   UNL     1     -13.294  11.989  24.645  0.00  0.00    -0.221 NA
ATOM     23  C   UNL     1     -13.833  10.806  25.016  0.00  0.00    +0.215 A 
ATOM     24  C   UNL     1     -12.933  11.041  22.450  0.00  0.00    +0.041 A 
ATOM     28  C   UNL     1     -13.955   9.712  24.176  0.00  0.00    +0.068 A 
ATOM     29  C   UNL     1     -13.494   9.839  22.869  0.00  0.00    +0.018 A 
ATOM     30  C   UNL     1     -12.856  12.075  23.368  0.00  0.00    +0.126 A 
BRANCH  23   1
ATOM      1  O   UNL     1     -14.279  10.705  26.307  0.00  0.00    -0.473 OA
BRANCH   1  11
ATOM     11  C   UNL     1     -13.327  10.960  27.335  0.00  0.00    +0.175 C 
ATOM     13  C   UNL     1     -12.108  10.059  27.140  0.00  0.00    +0.044 C 
ATOM     14  C   UNL     1     -13.977  10.740  28.701  0.00  0.00    +0.044 C 
ATOM     15  C   UNL     1     -11.101  10.225  28.274  0.00  0.00    +0.004 C 
ATOM     16  C   UNL     1     -12.970  10.906  29.834  0.00  0.00    +0.004 C 
ATOM     17  C   UNL     1     -11.750  10.008  29.639  0.00  0.00    +0.000 C 
ENDBRANCH   1  11
ENDBRANCH  23   1
ENDBRANCH  20  24
BRANCH  18   7
ATOM      3  N   UNL     1     -10.981   9.460  17.396  0.00  0.00    -0.287 NA
ATOM      7  C   UNL     1     -10.388  10.474  18.291  0.00  0.00    +0.146 C 
ATOM      8  C   UNL     1     -10.004  11.639  17.361  0.00  0.00    +0.030 C 
ATOM      9  C   UNL     1     -10.362  11.164  15.960  0.00  0.00    +0.017 C 
ATOM     10  C   UNL     1     -10.364   9.654  16.084  0.00  0.00    +0.085 C 
BRANCH   3  12
ATOM     12  C   UNL     1     -10.814   8.096  17.884  0.00  0.00    +0.120 C 
BRANCH  12  19
ATOM     19  C   UNL     1     -11.894   7.714  18.861  0.00  0.00    -0.033 A 
ATOM     21  C   UNL     1     -13.228   8.007  18.576  0.00  0.00    +0.005 A 
ATOM     22  C   UNL     1     -11.561   7.070  20.052  0.00  0.00    +0.005 A 
ATOM     25  C   UNL     1     -14.228   7.655  19.481  0.00  0.00    +0.003 A 
ATOM     26  C   UNL     1     -12.561   6.719  20.958  0.00  0.00    +0.003 A 
ATOM     27  C   UNL     1     -13.896   7.011  20.673  0.00  0.00    -0.050 A 
ATOM     31  C   UNL     1     -14.965   6.637  21.642  0.00  0.00    +0.044 C 
ENDBRANCH  12  19
ENDBRANCH   3  12
ENDBRANCH  18   7
TORSDOF 6
ENDMDL
MODEL 8
REMARK VINA RESULT:      -7.0     28.795     32.543
REMARK  Name = 45783589
REMARK  7 active torsions:
REMARK  status: ('A' for Active; 'I' for Inactive)
REMARK    1  A    between atoms: O_1  and  C_11
REMARK    2  A    between atoms: O_1  and  C_23
REMARK    3  A    between atoms: N_3  and  C_12
REMARK    4  A    between atoms: C_7  and  C_18
REMARK    5  A    between atoms: C_12  and  C_19
REMARK    6  A    between atoms: C_20  and  C_24
REMARK    7  A    between atoms: C_27  and  C_31
REMARK                            x       y       z     vdW  Elec       q    Type
REMARK                         _______ _______ _______ _____ _____    ______ ____
ROOT
ATOM      2  O   UNL     1     -10.490 -10.155  18.955  0.00  0.00    -0.336 OA
ATOM      4  N   UNL     1      -9.707  -9.511  16.958  0.00  0.00    -0.190 NA
ATOM      5  N   UNL     1     -11.349  -9.143  18.508  0.00  0.00    -0.056 NA
ATOM     18  C   UNL     1      -9.553 -10.309  17.984  0.00  0.00    +0.245 A 
ATOM     20  C   UNL     1     -10.822  -8.814  17.325  0.00  0.00    +0.204 A 
ENDROOT
BRANCH  20  24
ATOM      6  N   UNL     1     -11.047  -5.833  15.115  0.00  0.00    -0.221 NA
ATOM     23  C   UNL     1     -12.380  -5.825  14.885  0.00  0.00    +0.215 A 
ATOM     24  C   UNL     1     -11.382  -7.796  16.487  0.00  0.00    +0.041 A 
ATOM     28  C   UNL     1     -13.264  -6.753  15.410  0.00  0.00    +0.068 A 
ATOM     29  C   UNL     1     -12.747  -7.754  16.227  0.00  0.00    +0.018 A 
ATOM     30  C   UNL     1     -10.582  -6.821  15.913  0.00  0.00    +0.126 A 
BRANCH  23   1
ATOM      1  O   UNL     1     -12.863  -4.830  14.078  0.00  0.00    -0.473 OA
BRANCH   1  11
ATOM     11  C   UNL     1     -12.483  -4.875  12.706  0.00  0.00    +0.175 C 
ATOM     13  C   UNL     1     -12.247  -3.456  12.193  0.00  0.00    +0.044 C 
ATOM     14  C   UNL     1     -13.564  -5.594  11.899  0.00  0.00    +0.044 C 
ATOM     15  C   UNL     1     -11.932  -3.445  10.700  0.00  0.00    +0.004 C 
ATOM     16  C   UNL     1     -13.249  -5.583  10.407  0.00  0.00    +0.004 C 
ATOM     17  C   UNL     1     -13.010  -4.165   9.893  0.00  0.00    +0.000 C 
ENDBRANCH   1  11
ENDBRANCH  23   1
ENDBRANCH  20  24
BRANCH  18   7
ATOM      3  N   UNL     1      -7.894 -11.259  19.578  0.00  0.00    -0.287 NA
ATOM      7  C   UNL     1      -8.492 -11.361  18.231  0.00  0.00    +0.146 C 
ATOM      8  C   UNL     1      -9.046 -12.795  18.157  0.00  0.00    +0.030 C 
ATOM      9  C   UNL     1      -8.659 -13.439  19.480  0.00  0.00    +0.017 C 
ATOM     10  C   UNL     1      -7.480 -12.612  19.950  0.00  0.00    +0.085 C 
BRANCH   3  12
ATOM     12  C   UNL     1      -6.789 -10.310  19.645  0.00  0.00    +0.120 C 
BRANCH  12  19
ATOM     19  C   UNL     1      -5.798 -10.524  18.532  0.00  0.00    -0.033 A 
ATOM     21  C   UNL     1      -5.985  -9.895  17.301  0.00  0.00    +0.005 A 
ATOM     22  C   UNL     1      -4.694 -11.353  18.730  0.00  0.00    +0.005 A 
ATOM     25  C   UNL     1      -5.069 -10.095  16.269  0.00  0.00    +0.003 A 
ATOM     26  C   UNL     1      -3.778 -11.553  17.698  0.00  0.00    +0.003 A 
ATOM     27  C   UNL     1      -3.965 -10.924  16.467  0.00  0.00    -0.050 A 
ATOM     31  C   UNL     1      -2.986 -11.139  15.363  0.00  0.00    +0.044 C 
ENDBRANCH  12  19
ENDBRANCH   3  12
ENDBRANCH  18   7
TORSDOF 6
ENDMDL
MODEL 9
REMARK VINA RESULT:      -6.9     26.967     30.994
REMARK  Name = 45783589
REMARK  7 active torsions:
REMARK  status: ('A' for Active; 'I' for Inactive)
REMARK    1  A    between atoms: O_1  and  C_11
REMARK    2  A    between atoms: O_1  and  C_23
REMARK    3  A    between atoms: N_3  and  C_12
REMARK    4  A    between atoms: C_7  and  C_18
REMARK    5  A    between atoms: C_12  and  C_19
REMARK    6  A    between atoms: C_20  and  C_24
REMARK    7  A    between atoms: C_27  and  C_31
REMARK                            x       y       z     vdW  Elec       q    Type
REMARK                         _______ _______ _______ _____ _____    ______ ____
ROOT
ATOM      2  O   UNL     1      -4.294 -11.893  17.391  0.00  0.00    -0.336 OA
ATOM      4  N   UNL     1      -5.225 -10.475  15.927  0.00  0.00    -0.190 NA
ATOM      5  N   UNL     1      -5.577 -11.616  17.879  0.00  0.00    -0.056 NA
ATOM     18  C   UNL     1      -4.168 -11.182  16.240  0.00  0.00    +0.245 A 
ATOM     20  C   UNL     1      -6.063 -10.773  16.962  0.00  0.00    +0.204 A 
ENDROOT
BRANCH  20  24
ATOM      6  N   UNL     1      -9.371  -9.813  18.362  0.00  0.00    -0.221 NA
ATOM     23  C   UNL     1      -9.889  -9.170  17.291  0.00  0.00    +0.215 A 
ATOM     24  C   UNL     1      -7.378 -10.212  17.051  0.00  0.00    +0.041 A 
ATOM     28  C   UNL     1      -9.225  -9.008  16.086  0.00  0.00    +0.068 A 
ATOM     29  C   UNL     1      -7.945  -9.542  15.972  0.00  0.00    +0.018 A 
ATOM     30  C   UNL     1      -8.125 -10.319  18.212  0.00  0.00    +0.126 A 
BRANCH  23   1
ATOM      1  O   UNL     1     -11.150  -8.654  17.429  0.00  0.00    -0.473 OA
BRANCH   1  11
ATOM     11  C   UNL     1     -11.732  -8.068  16.268  0.00  0.00    +0.175 C 
ATOM     13  C   UNL     1     -11.553  -6.551  16.315  0.00  0.00    +0.044 C 
ATOM     14  C   UNL     1     -13.207  -8.458  16.183  0.00  0.00    +0.044 C 
ATOM     15  C   UNL     1     -12.247  -5.869  15.140  0.00  0.00    +0.004 C 
ATOM     16  C   UNL     1     -13.901  -7.776  15.008  0.00  0.00    +0.004 C 
ATOM     17  C   UNL     1     -13.720  -6.260  15.052  0.00  0.00    +0.000 C 
ENDBRANCH   1  11
ENDBRANCH  23   1
ENDBRANCH  20  24
BRANCH  18   7
ATOM      3  N   UNL     1      -2.833 -10.569  14.232  0.00  0.00    -0.287 NA
ATOM      7  C   UNL     1      -2.849 -11.312  15.507  0.00  0.00    +0.146 C 
ATOM      8  C   UNL     1      -1.664 -10.742  16.307  0.00  0.00    +0.030 C 
ATOM      9  C   UNL     1      -1.008  -9.731  15.378  0.00  0.00    +0.017 C 
ATOM     10  C   UNL     1      -1.442 -10.179  13.998  0.00  0.00    +0.085 C 
BRANCH   3  12
ATOM     12  C   UNL     1      -3.383 -11.330  13.116  0.00  0.00    +0.120 C 
BRANCH  12  19
ATOM     19  C   UNL     1      -4.074 -10.441  12.117  0.00  0.00    -0.033 A 
ATOM     21  C   UNL     1      -3.442 -10.119  10.915  0.00  0.00    +0.005 A 
ATOM     22  C   UNL     1      -5.344  -9.936  12.393  0.00  0.00    +0.005 A 
ATOM     25  C   UNL     1      -4.080  -9.293   9.991  0.00  0.00    +0.003 A 
ATOM     26  C   UNL     1      -5.983  -9.110  11.469  0.00  0.00    +0.003 A 
ATOM     27  C   UNL     1      -5.351  -8.788  10.267  0.00  0.00    -0.050 A 
ATOM     31  C   UNL     1      -6.034  -7.904   9.279  0.00  0.00    +0.044 C 
ENDBRANCH  12  19
ENDBRANCH   3  12
ENDBRANCH  18   7
TORSDOF 6
ENDMDL
MODEL 10
REMARK VINA RESULT:      -6.9     16.026     20.237
REMARK  Name = 45783589
REMARK  7 active torsions:
REMARK  status: ('A' for Active; 'I' for Inactive)
REMARK    1  A    between atoms: O_1  and  C_11
REMARK    2  A    between atoms: O_1  and  C_23
REMARK    3  A    between atoms: N_3  and  C_12
REMARK    4  A    between atoms: C_7  and  C_18
REMARK    5  A    between atoms: C_12  and  C_19
REMARK    6  A    between atoms: C_20  and  C_24
REMARK    7  A    between atoms: C_27  and  C_31
REMARK                            x       y       z     vdW  Elec       q    Type
REMARK                         _______ _______ _______ _____ _____    ______ ____
ROOT
ATOM      2  O   UNL     1      11.442   6.895   4.088  0.00  0.00    -0.336 OA
ATOM      4  N   UNL     1      10.879   4.756   3.731  0.00  0.00    -0.190 NA
ATOM      5  N   UNL     1      11.816   6.609   2.770  0.00  0.00    -0.056 NA
ATOM     18  C   UNL     1      10.899   5.751   4.581  0.00  0.00    +0.245 A 
ATOM     20  C   UNL     1      11.452   5.330   2.633  0.00  0.00    +0.204 A 
ENDROOT
BRANCH  20  24
ATOM      6  N   UNL     1      10.767   3.839  -0.702  0.00  0.00    -0.221 NA
ATOM     23  C   UNL     1      11.949   3.220  -0.918  0.00  0.00    +0.215 A 
ATOM     24  C   UNL     1      11.648   4.598   1.418  0.00  0.00    +0.041 A 
ATOM     28  C   UNL     1      13.011   3.243  -0.030  0.00  0.00    +0.068 A 
ATOM     29  C   UNL     1      12.850   3.948   1.159  0.00  0.00    +0.018 A 
ATOM     30  C   UNL     1      10.647   4.513   0.464  0.00  0.00    +0.126 A 
BRANCH  23   1
ATOM      1  O   UNL     1      12.083   2.533  -2.095  0.00  0.00    -0.473 OA
BRANCH   1  11
ATOM     11  C   UNL     1      11.539   3.146  -3.260  0.00  0.00    +0.175 C 
ATOM     13  C   UNL     1      10.221   2.465  -3.629  0.00  0.00    +0.044 C 
ATOM     14  C   UNL     1      12.552   3.068  -4.401  0.00  0.00    +0.044 C 
ATOM     15  C   UNL     1       9.647   3.022  -4.928  0.00  0.00    +0.004 C 
ATOM     16  C   UNL     1      11.978   3.625  -5.700  0.00  0.00    +0.004 C 
ATOM     17  C   UNL     1      10.660   2.947  -6.068  0.00  0.00    +0.000 C 
ENDBRANCH   1  11
ENDBRANCH  23   1
ENDBRANCH  20  24
BRANCH  18   7
ATOM      3  N   UNL     1      10.988   6.925   6.774  0.00  0.00    -0.287 NA
ATOM      7  C   UNL     1      10.408   5.800   6.013  0.00  0.00    +0.146 C 
ATOM      8  C   UNL     1       8.885   6.003   6.114  0.00  0.00    +0.030 C 
ATOM      9  C   UNL     1       8.706   7.228   6.999  0.00  0.00    +0.017 C 
ATOM     10  C   UNL     1       9.998   7.292   7.788  0.00  0.00    +0.085 C 
BRANCH   3  12
ATOM     12  C   UNL     1      12.284   6.612   7.363  0.00  0.00    +0.120 C 
BRANCH  12  19
ATOM     19  C   UNL     1      13.340   7.602   6.951  0.00  0.00    -0.033 A 
ATOM     21  C   UNL     1      14.601   7.154   6.555  0.00  0.00    +0.005 A 
ATOM     22  C   UNL     1      13.060   8.969   6.966  0.00  0.00    +0.005 A 
ATOM     25  C   UNL     1      15.581   8.071   6.176  0.00  0.00    +0.003 A 
ATOM     26  C   UNL     1      14.040   9.886   6.587  0.00  0.00    +0.003 A 
ATOM     27  C   UNL     1      15.300   9.437   6.191  0.00  0.00    -0.050 A 
ATOM     31  C   UNL     1      16.348  10.418   5.786  0.00  0.00    +0.044 C 
ENDBRANCH  12  19
ENDBRANCH   3  12
ENDBRANCH  18   7
TORSDOF 6
ENDMDL
