MODEL 1
REMARK VINA RESULT:      -5.8      0.000      0.000
REMARK  Name = 11943282
REMARK  4 active torsions:
REMARK  status: ('A' for Active; 'I' for Inactive)
REMARK    1  A    between atoms: N_4  and  C_14
REMARK    2  A    between atoms: C_7  and  C_13
REMARK    3  A    between atoms: C_8  and  C_14
REMARK    4  A    between atoms: C_13  and  C_15
REMARK                            x       y       z     vdW  Elec       q    Type
REMARK                         _______ _______ _______ _____ _____    ______ ____
ROOT
ATOM     14  C   UNL     1      10.949   8.466  20.280  0.00  0.00    +0.124 C 
ENDROOT
BRANCH  14   4
ATOM      1  O   UNL     1      10.958   8.654  23.088  0.00  0.00    -0.253 OA
ATOM      2  O   UNL     1      11.967  13.295  24.413  0.00  0.00    -0.377 OA
ATOM      4  N   UNL     1      11.059   9.690  21.043  0.00  0.00    -0.298 N 
ATOM      5  N   UNL     1      11.163  10.963  23.032  0.00  0.00    -0.281 N 
ATOM     16  C   UNL     1      11.056   9.696  22.433  0.00  0.00    +0.302 C 
ATOM     17  C   UNL     1      11.282  12.248  22.328  0.00  0.00    +0.137 C 
ATOM     18  C   UNL     1      10.997  11.084  24.483  0.00  0.00    +0.137 C 
ATOM     19  C   UNL     1      12.285  13.158  23.026  0.00  0.00    +0.179 C 
ATOM     20  C   UNL     1      12.029  12.030  25.074  0.00  0.00    +0.179 C 
ATOM     21  H   UNL     1      11.060  10.550  20.514  0.00  0.00    +0.150 HD
ENDBRANCH  14   4
BRANCH  14   8
ATOM      3  N   UNL     1      12.492   7.238  18.730  0.00  0.00    -0.298 NA
ATOM      6  C   UNL     1      14.199   9.195  18.572  0.00  0.00    -0.004 C 
ATOM      7  C   UNL     1      14.720   8.083  19.511  0.00  0.00    +0.006 C 
ATOM      8  C   UNL     1      11.813   8.530  19.019  0.00  0.00    +0.074 C 
ATOM      9  C   UNL     1      12.831   9.691  19.080  0.00  0.00    +0.024 C 
ATOM     10  C   UNL     1      13.611   7.021  19.680  0.00  0.00    +0.088 C 
ATOM     11  C   UNL     1      13.967   8.545  17.195  0.00  0.00    +0.019 C 
ATOM     12  C   UNL     1      13.057   7.315  17.361  0.00  0.00    +0.085 C 
BRANCH   7  13
ATOM     13  C   UNL     1      15.204   8.611  20.859  0.00  0.00    +0.002 C 
ATOM     15  C   UNL     1      14.443   7.976  22.007  0.00  0.00    +0.004 C 
ENDBRANCH   7  13
ENDBRANCH  14   8
TORSDOF 3
ENDMDL
MODEL 2
REMARK VINA RESULT:      -5.7     14.564     18.098
REMARK  Name = 11943282
REMARK  4 active torsions:
REMARK  status: ('A' for Active; 'I' for Inactive)
REMARK    1  A    between atoms: N_4  and  C_14
REMARK    2  A    between atoms: C_7  and  C_13
REMARK    3  A    between atoms: C_8  and  C_14
REMARK    4  A    between atoms: C_13  and  C_15
REMARK                            x       y       z     vdW  Elec       q    Type
REMARK                         _______ _______ _______ _____ _____    ______ ____
ROOT
ATOM     14  C   UNL     1      10.496   5.052   4.717  0.00  0.00    +0.124 C 
ENDROOT
BRANCH  14   4
ATOM      1  O   UNL     1      10.682   3.992   2.117  0.00  0.00    -0.253 OA
ATOM      2  O   UNL     1      14.345   6.235  -0.304  0.00  0.00    -0.377 OA
ATOM      4  N   UNL     1      11.537   5.348   3.758  0.00  0.00    -0.298 N 
ATOM      5  N   UNL     1      12.636   5.160   1.673  0.00  0.00    -0.281 N 
ATOM     16  C   UNL     1      11.556   4.781   2.489  0.00  0.00    +0.302 C 
ATOM     17  C   UNL     1      13.715   6.089   2.039  0.00  0.00    +0.137 C 
ATOM     18  C   UNL     1      12.832   4.484   0.389  0.00  0.00    +0.137 C 
ATOM     19  C   UNL     1      14.065   7.001   0.869  0.00  0.00    +0.179 C 
ATOM     20  C   UNL     1      13.199   5.479  -0.700  0.00  0.00    +0.179 C 
ATOM     21  H   UNL     1      12.296   5.930   4.085  0.00  0.00    +0.150 HD
ENDBRANCH  14   4
BRANCH  14   8
ATOM      3  N   UNL     1      11.079   6.847   6.370  0.00  0.00    -0.298 NA
ATOM      6  C   UNL     1       8.772   6.756   7.569  0.00  0.00    -0.004 C 
ATOM      7  C   UNL     1       9.854   6.035   8.402  0.00  0.00    +0.006 C 
ATOM      8  C   UNL     1      10.043   6.322   5.440  0.00  0.00    +0.074 C 
ATOM      9  C   UNL     1       8.696   6.117   6.169  0.00  0.00    +0.024 C 
ATOM     10  C   UNL     1      11.163   5.993   7.581  0.00  0.00    +0.088 C 
ATOM     11  C   UNL     1       9.246   8.209   7.381  0.00  0.00    +0.019 C 
ATOM     12  C   UNL     1      10.668   8.207   6.792  0.00  0.00    +0.085 C 
BRANCH   7  13
ATOM     13  C   UNL     1       9.433   4.640   8.860  0.00  0.00    +0.002 C 
ATOM     15  C   UNL     1       8.956   4.651  10.300  0.00  0.00    +0.004 C 
ENDBRANCH   7  13
ENDBRANCH  14   8
TORSDOF 3
ENDMDL
MODEL 3
REMARK VINA RESULT:      -5.6      4.340      6.778
REMARK  Name = 11943282
REMARK  4 active torsions:
REMARK  status: ('A' for Active; 'I' for Inactive)
REMARK    1  A    between atoms: N_4  and  C_14
REMARK    2  A    between atoms: C_7  and  C_13
REMARK    3  A    between atoms: C_8  and  C_14
REMARK    4  A    between atoms: C_13  and  C_15
REMARK                            x       y       z     vdW  Elec       q    Type
REMARK                         _______ _______ _______ _____ _____    ______ ____
ROOT
ATOM     14  C   UNL     1      15.314   6.705  19.421  0.00  0.00    +0.124 C 
ENDROOT
BRANCH  14   4
ATOM      1  O   UNL     1      17.832   5.514  19.016  0.00  0.00    -0.253 OA
ATOM      2  O   UNL     1      21.224   7.924  21.662  0.00  0.00    -0.377 OA
ATOM      4  N   UNL     1      16.527   7.034  20.135  0.00  0.00    -0.298 N 
ATOM      5  N   UNL     1      18.824   6.821  20.655  0.00  0.00    -0.281 N 
ATOM     16  C   UNL     1      17.735   6.397  19.874  0.00  0.00    +0.302 C 
ATOM     17  C   UNL     1      18.794   7.860  21.693  0.00  0.00    +0.137 C 
ATOM     18  C   UNL     1      20.091   6.090  20.569  0.00  0.00    +0.137 C 
ATOM     19  C   UNL     1      20.044   8.729  21.628  0.00  0.00    +0.179 C 
ATOM     20  C   UNL     1      21.271   7.048  20.534  0.00  0.00    +0.179 C 
ATOM     21  H   UNL     1      16.437   7.698  20.892  0.00  0.00    +0.150 HD
ENDBRANCH  14   4
BRANCH  14   8
ATOM      3  N   UNL     1      12.816   6.925  19.470  0.00  0.00    -0.298 NA
ATOM      6  C   UNL     1      12.858   9.523  19.608  0.00  0.00    -0.004 C 
ATOM      7  C   UNL     1      12.503   9.053  18.180  0.00  0.00    +0.006 C 
ATOM      8  C   UNL     1      14.102   7.383  20.063  0.00  0.00    +0.074 C 
ATOM      9  C   UNL     1      14.217   8.923  20.019  0.00  0.00    +0.024 C 
ATOM     10  C   UNL     1      12.634   7.514  18.121  0.00  0.00    +0.088 C 
ATOM     11  C   UNL     1      11.794   8.931  20.552  0.00  0.00    +0.019 C 
ATOM     12  C   UNL     1      11.715   7.409  20.337  0.00  0.00    +0.085 C 
BRANCH   7  13
ATOM     13  C   UNL     1      13.339   9.731  17.097  0.00  0.00    +0.002 C 
ATOM     15  C   UNL     1      13.910   8.717  16.123  0.00  0.00    +0.004 C 
ENDBRANCH   7  13
ENDBRANCH  14   8
TORSDOF 3
ENDMDL
MODEL 4
REMARK VINA RESULT:      -5.6     26.228     28.452
REMARK  Name = 11943282
REMARK  4 active torsions:
REMARK  status: ('A' for Active; 'I' for Inactive)
REMARK    1  A    between atoms: N_4  and  C_14
REMARK    2  A    between atoms: C_7  and  C_13
REMARK    3  A    between atoms: C_8  and  C_14
REMARK    4  A    between atoms: C_13  and  C_15
REMARK                            x       y       z     vdW  Elec       q    Type
REMARK                         _______ _______ _______ _____ _____    ______ ____
ROOT
ATOM     14  C   UNL     1      -4.947 -13.885  16.834  0.00  0.00    +0.124 C 
ENDROOT
BRANCH  14   4
ATOM      1  O   UNL     1      -4.694 -14.078  14.038  0.00  0.00    -0.253 OA
ATOM      2  O   UNL     1      -1.564 -10.620  12.438  0.00  0.00    -0.377 OA
ATOM      4  N   UNL     1      -4.012 -13.142  16.019  0.00  0.00    -0.298 N 
ATOM      5  N   UNL     1      -2.984 -12.512  13.985  0.00  0.00    -0.281 N 
ATOM     16  C   UNL     1      -3.950 -13.296  14.639  0.00  0.00    +0.302 C 
ATOM     17  C   UNL     1      -2.063 -11.561  14.623  0.00  0.00    +0.137 C 
ATOM     18  C   UNL     1      -2.732 -12.732  12.559  0.00  0.00    +0.137 C 
ATOM     19  C   UNL     1      -1.920 -10.297  13.784  0.00  0.00    +0.179 C 
ATOM     20  C   UNL     1      -2.582 -11.411  11.821  0.00  0.00    +0.179 C 
ATOM     21  H   UNL     1      -3.349 -12.562  16.513  0.00  0.00    +0.150 HD
ENDBRANCH  14   4
BRANCH  14   8
ATOM      3  N   UNL     1      -6.762 -12.674  18.072  0.00  0.00    -0.298 NA
ATOM      6  C   UNL     1      -5.250 -10.649  18.691  0.00  0.00    -0.004 C 
ATOM      7  C   UNL     1      -6.199 -10.291  17.526  0.00  0.00    +0.006 C 
ATOM      8  C   UNL     1      -5.334 -13.090  18.083  0.00  0.00    +0.074 C 
ATOM      9  C   UNL     1      -4.403 -11.876  18.300  0.00  0.00    +0.024 C 
ATOM     10  C   UNL     1      -6.967 -11.566  17.107  0.00  0.00    +0.088 C 
ATOM     11  C   UNL     1      -6.136 -11.066  19.879  0.00  0.00    +0.019 C 
ATOM     12  C   UNL     1      -7.103 -12.175  19.426  0.00  0.00    +0.085 C 
BRANCH   7  13
ATOM     13  C   UNL     1      -5.483  -9.651  16.340  0.00  0.00    +0.002 C 
ATOM     15  C   UNL     1      -5.937 -10.257  15.025  0.00  0.00    +0.004 C 
ENDBRANCH   7  13
ENDBRANCH  14   8
TORSDOF 3
ENDMDL
MODEL 5
REMARK VINA RESULT:      -5.5      1.848      2.437
REMARK  Name = 11943282
REMARK  4 active torsions:
REMARK  status: ('A' for Active; 'I' for Inactive)
REMARK    1  A    between atoms: N_4  and  C_14
REMARK    2  A    between atoms: C_7  and  C_13
REMARK    3  A    between atoms: C_8  and  C_14
REMARK    4  A    between atoms: C_13  and  C_15
REMARK                            x       y       z     vdW  Elec       q    Type
REMARK                         _______ _______ _______ _____ _____    ______ ____
ROOT
ATOM     14  C   UNL     1      10.896   9.662  22.707  0.00  0.00    +0.124 C 
ENDROOT
BRANCH  14   4
ATOM      1  O   UNL     1      11.339  10.715  25.279  0.00  0.00    -0.253 OA
ATOM      2  O   UNL     1      10.528  15.578  25.216  0.00  0.00    -0.377 OA
ATOM      4  N   UNL     1      10.620  11.020  23.121  0.00  0.00    -0.298 N 
ATOM      5  N   UNL     1      10.540  12.805  24.669  0.00  0.00    -0.281 N 
ATOM     16  C   UNL     1      10.868  11.462  24.416  0.00  0.00    +0.302 C 
ATOM     17  C   UNL     1       9.978  13.758  23.701  0.00  0.00    +0.137 C 
ATOM     18  C   UNL     1      10.607  13.309  26.043  0.00  0.00    +0.137 C 
ATOM     19  C   UNL     1      10.615  15.133  23.861  0.00  0.00    +0.179 C 
ATOM     20  C   UNL     1      11.236  14.693  26.086  0.00  0.00    +0.179 C 
ATOM     21  H   UNL     1      10.162  11.611  22.443  0.00  0.00    +0.150 HD
ENDBRANCH  14   4
BRANCH  14   8
ATOM      3  N   UNL     1      11.119   8.278  20.627  0.00  0.00    -0.298 NA
ATOM      6  C   UNL     1      13.513   9.140  20.082  0.00  0.00    -0.004 C 
ATOM      7  C   UNL     1      13.563   7.720  20.689  0.00  0.00    +0.006 C 
ATOM      8  C   UNL     1      11.330   9.617  21.240  0.00  0.00    +0.074 C 
ATOM      9  C   UNL     1      12.791  10.087  21.060  0.00  0.00    +0.024 C 
ATOM     10  C   UNL     1      12.136   7.319  21.125  0.00  0.00    +0.088 C 
ATOM     11  C   UNL     1      12.648   9.052  18.810  0.00  0.00    +0.019 C 
ATOM     12  C   UNL     1      11.292   8.415  19.161  0.00  0.00    +0.085 C 
BRANCH   7  13
ATOM     13  C   UNL     1      14.560   7.592  21.839  0.00  0.00    +0.002 C 
ATOM     15  C   UNL     1      15.830   6.891  21.395  0.00  0.00    +0.004 C 
ENDBRANCH   7  13
ENDBRANCH  14   8
TORSDOF 3
ENDMDL
MODEL 6
REMARK VINA RESULT:      -5.5     15.302     18.806
REMARK  Name = 11943282
REMARK  4 active torsions:
REMARK  status: ('A' for Active; 'I' for Inactive)
REMARK    1  A    between atoms: N_4  and  C_14
REMARK    2  A    between atoms: C_7  and  C_13
REMARK    3  A    between atoms: C_8  and  C_14
REMARK    4  A    between atoms: C_13  and  C_15
REMARK                            x       y       z     vdW  Elec       q    Type
REMARK                         _______ _______ _______ _____ _____    ______ ____
ROOT
ATOM     14  C   UNL     1      11.707   6.807   4.537  0.00  0.00    +0.124 C 
ENDROOT
BRANCH  14   4
ATOM      1  O   UNL     1      10.306   6.352   2.139  0.00  0.00    -0.253 OA
ATOM      2  O   UNL     1      12.702   2.974  -0.538  0.00  0.00    -0.377 OA
ATOM      4  N   UNL     1      12.014   5.784   3.562  0.00  0.00    -0.298 N 
ATOM      5  N   UNL     1      11.685   4.582   1.553  0.00  0.00    -0.281 N 
ATOM     16  C   UNL     1      11.270   5.625   2.399  0.00  0.00    +0.302 C 
ATOM     17  C   UNL     1      12.817   3.674   1.788  0.00  0.00    +0.137 C 
ATOM     18  C   UNL     1      10.861   4.232   0.394  0.00  0.00    +0.137 C 
ATOM     19  C   UNL     1      13.584   3.417   0.496  0.00  0.00    +0.179 C 
ATOM     20  C   UNL     1      11.724   3.974  -0.831  0.00  0.00    +0.179 C 
ATOM     21  H   UNL     1      12.750   5.137   3.808  0.00  0.00    +0.150 HD
ENDBRANCH  14   4
BRANCH  14   8
ATOM      3  N   UNL     1      10.045   5.298   5.653  0.00  0.00    -0.298 NA
ATOM      6  C   UNL     1       9.616   6.924   7.638  0.00  0.00    -0.004 C 
ATOM      7  C   UNL     1       8.454   6.978   6.621  0.00  0.00    +0.006 C 
ATOM      8  C   UNL     1      11.223   6.185   5.848  0.00  0.00    +0.074 C 
ATOM      9  C   UNL     1      10.938   7.260   6.921  0.00  0.00    +0.024 C 
ATOM     10  C   UNL     1       8.827   6.107   5.400  0.00  0.00    +0.088 C 
ATOM     11  C   UNL     1       9.718   5.466   8.124  0.00  0.00    +0.019 C 
ATOM     12  C   UNL     1       9.837   4.532   6.906  0.00  0.00    +0.085 C 
BRANCH   7  13
ATOM     13  C   UNL     1       8.082   8.399   6.206  0.00  0.00    +0.002 C 
ATOM     15  C   UNL     1       8.078   8.551   4.696  0.00  0.00    +0.004 C 
ENDBRANCH   7  13
ENDBRANCH  14   8
TORSDOF 3
ENDMDL
MODEL 7
REMARK VINA RESULT:      -5.5     14.578     18.215
REMARK  Name = 11943282
REMARK  4 active torsions:
REMARK  status: ('A' for Active; 'I' for Inactive)
REMARK    1  A    between atoms: N_4  and  C_14
REMARK    2  A    between atoms: C_7  and  C_13
REMARK    3  A    between atoms: C_8  and  C_14
REMARK    4  A    between atoms: C_13  and  C_15
REMARK                            x       y       z     vdW  Elec       q    Type
REMARK                         _______ _______ _______ _____ _____    ______ ____
ROOT
ATOM     14  C   UNL     1      12.103   7.036   5.162  0.00  0.00    +0.124 C 
ENDROOT
BRANCH  14   4
ATOM      1  O   UNL     1      13.108   7.572   2.588  0.00  0.00    -0.253 OA
ATOM      2  O   UNL     1      13.310   3.376   0.007  0.00  0.00    -0.377 OA
ATOM      4  N   UNL     1      12.171   6.091   4.070  0.00  0.00    -0.298 N 
ATOM      5  N   UNL     1      12.677   5.412   1.862  0.00  0.00    -0.281 N 
ATOM     16  C   UNL     1      12.684   6.436   2.824  0.00  0.00    +0.302 C 
ATOM     17  C   UNL     1      12.192   4.039   2.061  0.00  0.00    +0.137 C 
ATOM     18  C   UNL     1      13.038   5.730   0.479  0.00  0.00    +0.137 C 
ATOM     19  C   UNL     1      13.113   3.034   1.380  0.00  0.00    +0.179 C 
ATOM     20  C   UNL     1      13.936   4.655  -0.112  0.00  0.00    +0.179 C 
ATOM     21  H   UNL     1      11.754   5.186   4.233  0.00  0.00    +0.150 HD
ENDBRANCH  14   4
BRANCH  14   8
ATOM      3  N   UNL     1      10.499   8.235   6.672  0.00  0.00    -0.298 NA
ATOM      6  C   UNL     1       8.615   6.463   6.392  0.00  0.00    -0.004 C 
ATOM      7  C   UNL     1       9.328   6.298   7.753  0.00  0.00    +0.006 C 
ATOM      8  C   UNL     1      10.666   7.514   5.381  0.00  0.00    +0.074 C 
ATOM      9  C   UNL     1       9.652   6.356   5.257  0.00  0.00    +0.024 C 
ATOM     10  C   UNL     1      10.524   7.276   7.804  0.00  0.00    +0.088 C 
ATOM     11  C   UNL     1       8.045   7.893   6.355  0.00  0.00    +0.019 C 
ATOM     12  C   UNL     1       9.172   8.897   6.657  0.00  0.00    +0.085 C 
BRANCH   7  13
ATOM     13  C   UNL     1       9.763   4.863   8.036  0.00  0.00    +0.002 C 
ATOM     15  C   UNL     1       9.372   4.432   9.437  0.00  0.00    +0.004 C 
ENDBRANCH   7  13
ENDBRANCH  14   8
TORSDOF 3
ENDMDL
MODEL 8
REMARK VINA RESULT:      -5.4      1.790      2.213
REMARK  Name = 11943282
REMARK  4 active torsions:
REMARK  status: ('A' for Active; 'I' for Inactive)
REMARK    1  A    between atoms: N_4  and  C_14
REMARK    2  A    between atoms: C_7  and  C_13
REMARK    3  A    between atoms: C_8  and  C_14
REMARK    4  A    between atoms: C_13  and  C_15
REMARK                            x       y       z     vdW  Elec       q    Type
REMARK                         _______ _______ _______ _____ _____    ______ ____
ROOT
ATOM     14  C   UNL     1      11.867   8.842  21.739  0.00  0.00    +0.124 C 
ENDROOT
BRANCH  14   4
ATOM      1  O   UNL     1      10.900  11.171  22.989  0.00  0.00    -0.253 OA
ATOM      2  O   UNL     1      14.347  12.939  26.039  0.00  0.00    -0.377 OA
ATOM      4  N   UNL     1      12.636   9.725  22.586  0.00  0.00    -0.298 N 
ATOM      5  N   UNL     1      12.957  11.623  23.959  0.00  0.00    -0.281 N 
ATOM     16  C   UNL     1      12.082  10.860  23.168  0.00  0.00    +0.302 C 
ATOM     17  C   UNL     1      14.372  11.325  24.222  0.00  0.00    +0.137 C 
ATOM     18  C   UNL     1      12.510  12.921  24.470  0.00  0.00    +0.137 C 
ATOM     19  C   UNL     1      14.727  11.610  25.676  0.00  0.00    +0.179 C 
ATOM     20  C   UNL     1      12.934  13.113  25.917  0.00  0.00    +0.179 C 
ATOM     21  H   UNL     1      13.622   9.520  22.671  0.00  0.00    +0.150 HD
ENDBRANCH  14   4
BRANCH  14   8
ATOM      3  N   UNL     1      11.743   7.958  19.395  0.00  0.00    -0.298 NA
ATOM      6  C   UNL     1      14.198   8.600  18.821  0.00  0.00    -0.004 C 
ATOM      7  C   UNL     1      14.074   7.085  19.094  0.00  0.00    +0.006 C 
ATOM      8  C   UNL     1      12.192   9.080  20.263  0.00  0.00    +0.074 C 
ATOM      9  C   UNL     1      13.692   9.383  20.048  0.00  0.00    +0.024 C 
ATOM     10  C   UNL     1      12.635   6.785  19.569  0.00  0.00    +0.088 C 
ATOM     11  C   UNL     1      13.249   8.923  17.652  0.00  0.00    +0.019 C 
ATOM     12  C   UNL     1      11.838   8.405  17.985  0.00  0.00    +0.085 C 
BRANCH   7  13
ATOM     13  C   UNL     1      15.113   6.564  20.085  0.00  0.00    +0.002 C 
ATOM     15  C   UNL     1      16.491   6.492  19.455  0.00  0.00    +0.004 C 
ENDBRANCH   7  13
ENDBRANCH  14   8
TORSDOF 3
ENDMDL
MODEL 9
REMARK VINA RESULT:      -5.3      2.223      6.578
REMARK  Name = 11943282
REMARK  4 active torsions:
REMARK  status: ('A' for Active; 'I' for Inactive)
REMARK    1  A    between atoms: N_4  and  C_14
REMARK    2  A    between atoms: C_7  and  C_13
REMARK    3  A    between atoms: C_8  and  C_14
REMARK    4  A    between atoms: C_13  and  C_15
REMARK                            x       y       z     vdW  Elec       q    Type
REMARK                         _______ _______ _______ _____ _____    ______ ____
ROOT
ATOM     14  C   UNL     1      10.891  10.156  23.097  0.00  0.00    +0.124 C 
ENDROOT
BRANCH  14   4
ATOM      1  O   UNL     1      11.021   8.636  20.732  0.00  0.00    -0.253 OA
ATOM      2  O   UNL     1      15.562   6.779  20.232  0.00  0.00    -0.377 OA
ATOM      4  N   UNL     1      12.007   9.336  22.683  0.00  0.00    -0.298 N 
ATOM      5  N   UNL     1      13.148   7.858  21.232  0.00  0.00    -0.281 N 
ATOM     16  C   UNL     1      11.992   8.614  21.495  0.00  0.00    +0.302 C 
ATOM     17  C   UNL     1      14.343   7.776  22.084  0.00  0.00    +0.137 C 
ATOM     18  C   UNL     1      13.154   6.936  20.094  0.00  0.00    +0.137 C 
ATOM     19  C   UNL     1      15.612   7.789  21.241  0.00  0.00    +0.179 C 
ATOM     20  C   UNL     1      14.471   7.011  19.338  0.00  0.00    +0.179 C 
ATOM     21  H   UNL     1      12.770   9.251  23.340  0.00  0.00    +0.150 HD
ENDBRANCH  14   4
BRANCH  14   8
ATOM      3  N   UNL     1      10.358  12.276  24.326  0.00  0.00    -0.298 NA
ATOM      6  C   UNL     1      12.793  13.183  24.203  0.00  0.00    -0.004 C 
ATOM      7  C   UNL     1      11.889  13.891  23.169  0.00  0.00    +0.006 C 
ATOM      8  C   UNL     1      11.315  11.147  24.184  0.00  0.00    +0.074 C 
ATOM      9  C   UNL     1      12.754  11.662  23.958  0.00  0.00    +0.024 C 
ATOM     10  C   UNL     1      10.499  13.216  23.187  0.00  0.00    +0.088 C 
ATOM     11  C   UNL     1      12.172  13.438  25.590  0.00  0.00    +0.019 C 
ATOM     12  C   UNL     1      10.695  13.007  25.571  0.00  0.00    +0.085 C 
BRANCH   7  13
ATOM     13  C   UNL     1      12.485  13.916  21.764  0.00  0.00    +0.002 C 
ATOM     15  C   UNL     1      11.406  14.061  20.708  0.00  0.00    +0.004 C 
ENDBRANCH   7  13
ENDBRANCH  14   8
TORSDOF 3
ENDMDL
MODEL 10
REMARK VINA RESULT:      -5.2      1.949      2.561
REMARK  Name = 11943282
REMARK  4 active torsions:
REMARK  status: ('A' for Active; 'I' for Inactive)
REMARK    1  A    between atoms: N_4  and  C_14
REMARK    2  A    between atoms: C_7  and  C_13
REMARK    3  A    between atoms: C_8  and  C_14
REMARK    4  A    between atoms: C_13  and  C_15
REMARK                            x       y       z     vdW  Elec       q    Type
REMARK                         _______ _______ _______ _____ _____    ______ ____
ROOT
ATOM     14  C   UNL     1      14.046   9.276  22.192  0.00  0.00    +0.124 C 
ENDROOT
BRANCH  14   4
ATOM      1  O   UNL     1      14.702  11.157  24.181  0.00  0.00    -0.253 OA
ATOM      2  O   UNL     1      10.672  13.730  25.387  0.00  0.00    -0.377 OA
ATOM      4  N   UNL     1      13.106  10.111  22.906  0.00  0.00    -0.298 N 
ATOM      5  N   UNL     1      12.481  11.754  24.488  0.00  0.00    -0.281 N 
ATOM     16  C   UNL     1      13.512  11.019  23.877  0.00  0.00    +0.302 C 
ATOM     17  C   UNL     1      11.047  11.650  24.186  0.00  0.00    +0.137 C 
ATOM     18  C   UNL     1      12.797  12.606  25.636  0.00  0.00    +0.137 C 
ATOM     19  C   UNL     1      10.393  13.027  24.175  0.00  0.00    +0.179 C 
ATOM     20  C   UNL     1      12.078  13.942  25.538  0.00  0.00    +0.179 C 
ATOM     21  H   UNL     1      12.127   9.946  22.718  0.00  0.00    +0.150 HD
ENDBRANCH  14   4
BRANCH  14   8
ATOM      3  N   UNL     1      13.095   7.691  20.497  0.00  0.00    -0.298 NA
ATOM      6  C   UNL     1      14.789   8.362  18.640  0.00  0.00    -0.004 C 
ATOM      7  C   UNL     1      15.173   7.005  19.272  0.00  0.00    +0.006 C 
ATOM      8  C   UNL     1      13.601   9.068  20.743  0.00  0.00    +0.074 C 
ATOM      9  C   UNL     1      14.719   9.436  19.742  0.00  0.00    +0.024 C 
ATOM     10  C   UNL     1      14.223   6.728  20.459  0.00  0.00    +0.088 C 
ATOM     11  C   UNL     1      13.368   8.202  18.067  0.00  0.00    +0.019 C 
ATOM     12  C   UNL     1      12.432   7.677  19.171  0.00  0.00    +0.085 C 
BRANCH   7  13
ATOM     13  C   UNL     1      16.638   6.930  19.695  0.00  0.00    +0.002 C 
ATOM     15  C   UNL     1      17.353   5.779  19.014  0.00  0.00    +0.004 C 
ENDBRANCH   7  13
ENDBRANCH  14   8
TORSDOF 3
ENDMDL
