MODEL 1
REMARK VINA RESULT:      -7.6      0.000      0.000
REMARK  Name = 75536076
REMARK  5 active torsions:
REMARK  status: ('A' for Active; 'I' for Inactive)
REMARK    1  A    between atoms: O_2  and  C_9
REMARK    2  A    between atoms: O_3  and  C_11
REMARK    3  A    between atoms: N_5  and  C_8
REMARK    4  A    between atoms: C_7  and  C_12
REMARK    5  A    between atoms: C_15  and  C_16
REMARK                            x       y       z     vdW  Elec       q    Type
REMARK                         _______ _______ _______ _____ _____    ______ ____
ROOT
ATOM      7  C   UNL     1      12.974   9.297  19.914  0.00  0.00    +0.046 C 
ATOM      8  C   UNL     1      13.188   7.834  20.365  0.00  0.00    +0.112 C 
ATOM      9  C   UNL     1      12.351   7.728  21.638  0.00  0.00    +0.164 C 
ATOM     10  C   UNL     1      11.634   9.745  20.555  0.00  0.00    +0.044 C 
ATOM     11  C   UNL     1      11.096   8.521  21.295  0.00  0.00    +0.145 C 
ENDROOT
BRANCH   7  12
ATOM      6  N   UNL     1      12.224   8.828  16.226  0.00  0.00    -0.263 NA
ATOM     12  C   UNL     1      13.035   9.469  18.412  0.00  0.00    -0.024 A 
ATOM     13  C   UNL     1      13.909  10.380  17.829  0.00  0.00    +0.007 A 
ATOM     14  C   UNL     1      12.220   8.724  17.574  0.00  0.00    +0.114 A 
ATOM     17  C   UNL     1      13.943  10.515  16.445  0.00  0.00    +0.020 A 
ATOM     18  C   UNL     1      13.089   9.723  15.695  0.00  0.00    +0.111 A 
ENDBRANCH   7  12
BRANCH   8   5
ATOM      4  O   UNL     1      15.087   6.821  18.464  0.00  0.00    -0.270 OA
ATOM      5  N   UNL     1      14.578   7.541  20.609  0.00  0.00    -0.305 N 
ATOM     15  C   UNL     1      15.423   7.052  19.622  0.00  0.00    +0.251 C 
ATOM     26  H   UNL     1      14.941   7.748  21.533  0.00  0.00    +0.149 HD
BRANCH  15  16
ATOM      1  S   UNL     1      17.552   7.775  21.214  0.00  0.00    -0.084 S 
ATOM     16  C   UNL     1      16.822   6.776  20.041  0.00  0.00    +0.075 A 
ATOM     19  C   UNL     1      17.669   5.783  19.610  0.00  0.00    +0.029 A 
ATOM     20  C   UNL     1      18.954   5.830  20.248  0.00  0.00    -0.010 A 
ATOM     21  C   UNL     1      19.028   6.886  21.161  0.00  0.00    +0.020 A 
ATOM     22  C   UNL     1      20.092   5.001  20.089  0.00  0.00    +0.009 A 
ATOM     23  C   UNL     1      20.195   7.131  21.910  0.00  0.00    +0.015 A 
ATOM     24  C   UNL     1      21.251   5.243  20.830  0.00  0.00    +0.001 A 
ATOM     25  C   UNL     1      21.300   6.297  21.732  0.00  0.00    +0.001 A 
ENDBRANCH  15  16
ENDBRANCH   8   5
BRANCH   9   2
ATOM      2  O   UNL     1      12.035   6.388  21.963  0.00  0.00    -0.387 OA
ATOM     27  H   UNL     1      11.387   6.407  22.688  0.00  0.00    +0.210 HD
ENDBRANCH   9   2
BRANCH  11   3
ATOM      3  O   UNL     1      10.254   7.787  20.411  0.00  0.00    -0.389 OA
ATOM     28  H   UNL     1       9.634   7.276  20.958  0.00  0.00    +0.210 HD
ENDBRANCH  11   3
TORSDOF 5
ENDMDL
MODEL 2
REMARK VINA RESULT:      -7.5      3.699      7.809
REMARK  Name = 75536076
REMARK  5 active torsions:
REMARK  status: ('A' for Active; 'I' for Inactive)
REMARK    1  A    between atoms: O_2  and  C_9
REMARK    2  A    between atoms: O_3  and  C_11
REMARK    3  A    between atoms: N_5  and  C_8
REMARK    4  A    between atoms: C_7  and  C_12
REMARK    5  A    between atoms: C_15  and  C_16
REMARK                            x       y       z     vdW  Elec       q    Type
REMARK                         _______ _______ _______ _____ _____    ______ ____
ROOT
ATOM      7  C   UNL     1      14.025   9.143  18.930  0.00  0.00    +0.046 C 
ATOM      8  C   UNL     1      12.632   8.981  19.579  0.00  0.00    +0.112 C 
ATOM      9  C   UNL     1      11.675   9.060  18.391  0.00  0.00    +0.164 C 
ATOM     10  C   UNL     1      13.854   8.714  17.449  0.00  0.00    +0.044 C 
ATOM     11  C   UNL     1      12.400   8.267  17.309  0.00  0.00    +0.145 C 
ENDROOT
BRANCH   7  12
ATOM      6  N   UNL     1      16.855   8.419  21.351  0.00  0.00    -0.263 NA
ATOM     12  C   UNL     1      15.115   8.398  19.672  0.00  0.00    -0.024 A 
ATOM     13  C   UNL     1      15.389   7.064  19.393  0.00  0.00    +0.007 A 
ATOM     14  C   UNL     1      15.869   9.025  20.651  0.00  0.00    +0.114 A 
ATOM     17  C   UNL     1      16.396   6.406  20.091  0.00  0.00    +0.020 A 
ATOM     18  C   UNL     1      17.094   7.122  21.051  0.00  0.00    +0.111 A 
ENDBRANCH   7  12
BRANCH   8   5
ATOM      4  O   UNL     1      10.669   8.896  21.673  0.00  0.00    -0.270 OA
ATOM      5  N   UNL     1      12.366  10.011  20.552  0.00  0.00    -0.305 N 
ATOM     15  C   UNL     1      11.392   9.879  21.532  0.00  0.00    +0.251 C 
ATOM     26  H   UNL     1      12.955  10.836  20.527  0.00  0.00    +0.149 HD
BRANCH  15  16
ATOM      1  S   UNL     1      11.239  12.617  21.794  0.00  0.00    -0.084 S 
ATOM     16  C   UNL     1      11.224  11.041  22.444  0.00  0.00    +0.075 A 
ATOM     19  C   UNL     1      11.045  11.046  23.806  0.00  0.00    +0.029 A 
ATOM     20  C   UNL     1      10.916  12.370  24.347  0.00  0.00    -0.010 A 
ATOM     21  C   UNL     1      11.004  13.338  23.342  0.00  0.00    +0.020 A 
ATOM     22  C   UNL     1      10.721  12.805  25.680  0.00  0.00    +0.009 A 
ATOM     23  C   UNL     1      10.905  14.712  23.633  0.00  0.00    +0.015 A 
ATOM     24  C   UNL     1      10.623  14.167  25.972  0.00  0.00    +0.001 A 
ATOM     25  C   UNL     1      10.713  15.110  24.957  0.00  0.00    +0.001 A 
ENDBRANCH  15  16
ENDBRANCH   8   5
BRANCH   9   2
ATOM      2  O   UNL     1      10.412   8.491  18.680  0.00  0.00    -0.387 OA
ATOM     27  H   UNL     1      10.083   8.910  19.495  0.00  0.00    +0.210 HD
ENDBRANCH   9   2
BRANCH  11   3
ATOM      3  O   UNL     1      12.326   6.868  17.566  0.00  0.00    -0.389 OA
ATOM     28  H   UNL     1      12.287   6.416  16.706  0.00  0.00    +0.210 HD
ENDBRANCH  11   3
TORSDOF 5
ENDMDL
MODEL 3
REMARK VINA RESULT:      -6.6     31.991     32.999
REMARK  Name = 75536076
REMARK  5 active torsions:
REMARK  status: ('A' for Active; 'I' for Inactive)
REMARK    1  A    between atoms: O_2  and  C_9
REMARK    2  A    between atoms: O_3  and  C_11
REMARK    3  A    between atoms: N_5  and  C_8
REMARK    4  A    between atoms: C_7  and  C_12
REMARK    5  A    between atoms: C_15  and  C_16
REMARK                            x       y       z     vdW  Elec       q    Type
REMARK                         _______ _______ _______ _____ _____    ______ ____
ROOT
ATOM      7  C   UNL     1     -15.424   3.471  28.992  0.00  0.00    +0.046 C 
ATOM      8  C   UNL     1     -16.330   4.336  29.897  0.00  0.00    +0.112 C 
ATOM      9  C   UNL     1     -17.055   5.247  28.907  0.00  0.00    +0.164 C 
ATOM     10  C   UNL     1     -16.082   3.496  27.587  0.00  0.00    +0.044 C 
ATOM     11  C   UNL     1     -17.363   4.314  27.741  0.00  0.00    +0.145 C 
ENDROOT
BRANCH   7  12
ATOM      6  N   UNL     1     -16.011  -0.162  29.913  0.00  0.00    -0.263 NA
ATOM     12  C   UNL     1     -15.188   2.081  29.545  0.00  0.00    -0.024 A 
ATOM     13  C   UNL     1     -13.991   1.754  30.174  0.00  0.00    +0.007 A 
ATOM     14  C   UNL     1     -16.157   1.097  29.441  0.00  0.00    +0.114 A 
ATOM     17  C   UNL     1     -13.804   0.470  30.672  0.00  0.00    +0.020 A 
ATOM     18  C   UNL     1     -14.835  -0.443  30.519  0.00  0.00    +0.111 A 
ENDBRANCH   7  12
BRANCH   8   5
ATOM      4  O   UNL     1     -15.974   3.701  32.674  0.00  0.00    -0.270 OA
ATOM      5  N   UNL     1     -15.569   5.090  30.862  0.00  0.00    -0.305 N 
ATOM     15  C   UNL     1     -15.453   4.702  32.189  0.00  0.00    +0.251 C 
ATOM     26  H   UNL     1     -15.072   5.908  30.525  0.00  0.00    +0.149 HD
BRANCH  15  16
ATOM      1  S   UNL     1     -14.375   5.152  34.684  0.00  0.00    -0.084 S 
ATOM     16  C   UNL     1     -14.655   5.601  33.063  0.00  0.00    +0.075 A 
ATOM     19  C   UNL     1     -14.070   6.805  32.753  0.00  0.00    +0.029 A 
ATOM     20  C   UNL     1     -13.370   7.388  33.863  0.00  0.00    -0.010 A 
ATOM     21  C   UNL     1     -13.458   6.577  34.999  0.00  0.00    +0.020 A 
ATOM     22  C   UNL     1     -12.646   8.601  33.960  0.00  0.00    +0.009 A 
ATOM     23  C   UNL     1     -12.847   6.943  36.213  0.00  0.00    +0.015 A 
ATOM     24  C   UNL     1     -12.039   8.967  35.164  0.00  0.00    +0.001 A 
ATOM     25  C   UNL     1     -12.139   8.146  36.278  0.00  0.00    +0.001 A 
ENDBRANCH  15  16
ENDBRANCH   8   5
BRANCH   9   2
ATOM      2  O   UNL     1     -18.242   5.792  29.451  0.00  0.00    -0.387 OA
ATOM     27  H   UNL     1     -18.022   6.158  30.326  0.00  0.00    +0.210 HD
ENDBRANCH   9   2
BRANCH  11   3
ATOM      3  O   UNL     1     -18.434   3.432  28.062  0.00  0.00    -0.389 OA
ATOM     28  H   UNL     1     -19.236   3.972  28.163  0.00  0.00    +0.210 HD
ENDBRANCH  11   3
TORSDOF 5
ENDMDL
MODEL 4
REMARK VINA RESULT:      -6.3     13.853     17.425
REMARK  Name = 75536076
REMARK  5 active torsions:
REMARK  status: ('A' for Active; 'I' for Inactive)
REMARK    1  A    between atoms: O_2  and  C_9
REMARK    2  A    between atoms: O_3  and  C_11
REMARK    3  A    between atoms: N_5  and  C_8
REMARK    4  A    between atoms: C_7  and  C_12
REMARK    5  A    between atoms: C_15  and  C_16
REMARK                            x       y       z     vdW  Elec       q    Type
REMARK                         _______ _______ _______ _____ _____    ______ ____
ROOT
ATOM      7  C   UNL     1      11.260   6.393   6.636  0.00  0.00    +0.046 C 
ATOM      8  C   UNL     1      10.200   6.555   5.523  0.00  0.00    +0.112 C 
ATOM      9  C   UNL     1       8.957   5.896   6.117  0.00  0.00    +0.164 C 
ATOM     10  C   UNL     1      10.464   6.216   7.955  0.00  0.00    +0.044 C 
ATOM     11  C   UNL     1       8.990   6.343   7.574  0.00  0.00    +0.145 C 
ENDROOT
BRANCH   7  12
ATOM      6  N   UNL     1      12.725   9.877   6.960  0.00  0.00    -0.263 NA
ATOM     12  C   UNL     1      12.269   7.521   6.662  0.00  0.00    -0.024 A 
ATOM     13  C   UNL     1      13.619   7.281   6.428  0.00  0.00    +0.007 A 
ATOM     14  C   UNL     1      11.877   8.824   6.921  0.00  0.00    +0.114 A 
ATOM     17  C   UNL     1      14.522   8.338   6.458  0.00  0.00    +0.020 A 
ATOM     18  C   UNL     1      14.029   9.605   6.726  0.00  0.00    +0.111 A 
ENDBRANCH   7  12
BRANCH   8   5
ATOM      4  O   UNL     1       9.188   7.114   2.894  0.00  0.00    -0.270 OA
ATOM      5  N   UNL     1      10.607   5.926   4.292  0.00  0.00    -0.305 N 
ATOM     15  C   UNL     1      10.059   6.264   3.062  0.00  0.00    +0.251 C 
ATOM     26  H   UNL     1      11.354   5.242   4.345  0.00  0.00    +0.149 HD
BRANCH  15  16
ATOM      1  S   UNL     1      11.993   4.583   2.052  0.00  0.00    -0.084 S 
ATOM     16  C   UNL     1      10.567   5.504   1.891  0.00  0.00    +0.075 A 
ATOM     19  C   UNL     1      10.038   5.417   0.626  0.00  0.00    +0.029 A 
ATOM     20  C   UNL     1      10.811   4.579  -0.246  0.00  0.00    -0.010 A 
ATOM     21  C   UNL     1      11.924   4.051   0.414  0.00  0.00    +0.020 A 
ATOM     22  C   UNL     1      10.612   4.233  -1.605  0.00  0.00    +0.009 A 
ATOM     23  C   UNL     1      12.831   3.196  -0.240  0.00  0.00    +0.015 A 
ATOM     24  C   UNL     1      11.510   3.386  -2.258  0.00  0.00    +0.001 A 
ATOM     25  C   UNL     1      12.609   2.873  -1.581  0.00  0.00    +0.001 A 
ENDBRANCH  15  16
ENDBRANCH   8   5
BRANCH   9   2
ATOM      2  O   UNL     1       7.767   6.321   5.480  0.00  0.00    -0.387 OA
ATOM     27  H   UNL     1       7.264   5.525   5.237  0.00  0.00    +0.210 HD
ENDBRANCH   9   2
BRANCH  11   3
ATOM      3  O   UNL     1       8.602   7.707   7.698  0.00  0.00    -0.389 OA
ATOM     28  H   UNL     1       9.330   8.250   7.351  0.00  0.00    +0.210 HD
ENDBRANCH  11   3
TORSDOF 5
ENDMDL
MODEL 5
REMARK VINA RESULT:      -6.2     27.471     29.085
REMARK  Name = 75536076
REMARK  5 active torsions:
REMARK  status: ('A' for Active; 'I' for Inactive)
REMARK    1  A    between atoms: O_2  and  C_9
REMARK    2  A    between atoms: O_3  and  C_11
REMARK    3  A    between atoms: N_5  and  C_8
REMARK    4  A    between atoms: C_7  and  C_12
REMARK    5  A    between atoms: C_15  and  C_16
REMARK                            x       y       z     vdW  Elec       q    Type
REMARK                         _______ _______ _______ _____ _____    ______ ____
ROOT
ATOM      7  C   UNL     1      -7.001 -10.208  18.220  0.00  0.00    +0.046 C 
ATOM      8  C   UNL     1      -6.610 -11.410  17.330  0.00  0.00    +0.112 C 
ATOM      9  C   UNL     1      -5.660 -12.214  18.215  0.00  0.00    +0.164 C 
ATOM     10  C   UNL     1      -6.767 -10.672  19.682  0.00  0.00    +0.044 C 
ATOM     11  C   UNL     1      -6.312 -12.127  19.590  0.00  0.00    +0.145 C 
ENDROOT
BRANCH   7  12
ATOM      6  N   UNL     1     -10.780  -9.891  18.321  0.00  0.00    -0.263 NA
ATOM     12  C   UNL     1      -8.399  -9.698  17.945  0.00  0.00    -0.024 A 
ATOM     13  C   UNL     1      -8.613  -8.612  17.102  0.00  0.00    +0.007 A 
ATOM     14  C   UNL     1      -9.506 -10.297  18.525  0.00  0.00    +0.114 A 
ATOM     17  C   UNL     1      -9.909  -8.166  16.868  0.00  0.00    +0.020 A 
ATOM     18  C   UNL     1     -10.948  -8.833  17.495  0.00  0.00    +0.111 A 
ENDBRANCH   7  12
BRANCH   8   5
ATOM      4  O   UNL     1      -7.852 -11.178  14.751  0.00  0.00    -0.270 OA
ATOM      5  N   UNL     1      -5.977 -10.991  16.104  0.00  0.00    -0.305 N 
ATOM     15  C   UNL     1      -6.662 -10.909  14.900  0.00  0.00    +0.251 C 
ATOM     26  H   UNL     1      -5.004 -10.709  16.156  0.00  0.00    +0.149 HD
BRANCH  15  16
ATOM      1  S   UNL     1      -6.601  -9.547  12.507  0.00  0.00    -0.084 S 
ATOM     16  C   UNL     1      -5.861 -10.486  13.722  0.00  0.00    +0.075 A 
ATOM     19  C   UNL     1      -4.541 -10.744  13.443  0.00  0.00    +0.029 A 
ATOM     20  C   UNL     1      -4.109 -10.164  12.202  0.00  0.00    -0.010 A 
ATOM     21  C   UNL     1      -5.150  -9.471  11.578  0.00  0.00    +0.020 A 
ATOM     22  C   UNL     1      -2.846 -10.194  11.562  0.00  0.00    +0.009 A 
ATOM     23  C   UNL     1      -4.964  -8.817  10.345  0.00  0.00    +0.015 A 
ATOM     24  C   UNL     1      -2.658  -9.547  10.339  0.00  0.00    +0.001 A 
ATOM     25  C   UNL     1      -3.707  -8.864   9.737  0.00  0.00    +0.001 A 
ENDBRANCH  15  16
ENDBRANCH   8   5
BRANCH   9   2
ATOM      2  O   UNL     1      -5.540 -13.558  17.791  0.00  0.00    -0.387 OA
ATOM     27  H   UNL     1      -5.056 -13.557  16.947  0.00  0.00    +0.210 HD
ENDBRANCH   9   2
BRANCH  11   3
ATOM      3  O   UNL     1      -7.457 -12.970  19.666  0.00  0.00    -0.389 OA
ATOM     28  H   UNL     1      -8.241 -12.394  19.685  0.00  0.00    +0.210 HD
ENDBRANCH  11   3
TORSDOF 5
ENDMDL
MODEL 6
REMARK VINA RESULT:      -6.2     26.686     29.469
REMARK  Name = 75536076
REMARK  5 active torsions:
REMARK  status: ('A' for Active; 'I' for Inactive)
REMARK    1  A    between atoms: O_2  and  C_9
REMARK    2  A    between atoms: O_3  and  C_11
REMARK    3  A    between atoms: N_5  and  C_8
REMARK    4  A    between atoms: C_7  and  C_12
REMARK    5  A    between atoms: C_15  and  C_16
REMARK                            x       y       z     vdW  Elec       q    Type
REMARK                         _______ _______ _______ _____ _____    ______ ____
ROOT
ATOM      7  C   UNL     1      -5.225 -11.637  16.769  0.00  0.00    +0.046 C 
ATOM      8  C   UNL     1      -5.696 -10.551  17.763  0.00  0.00    +0.112 C 
ATOM      9  C   UNL     1      -6.136 -11.354  18.986  0.00  0.00    +0.164 C 
ATOM     10  C   UNL     1      -4.863 -12.873  17.634  0.00  0.00    +0.044 C 
ATOM     11  C   UNL     1      -5.074 -12.444  19.085  0.00  0.00    +0.145 C 
ENDROOT
BRANCH   7  12
ATOM      6  N   UNL     1      -3.368 -10.598  13.629  0.00  0.00    -0.263 NA
ATOM     12  C   UNL     1      -4.112 -11.165  15.859  0.00  0.00    -0.024 A 
ATOM     13  C   UNL     1      -2.851 -10.867  16.363  0.00  0.00    +0.007 A 
ATOM     14  C   UNL     1      -4.318 -11.015  14.496  0.00  0.00    +0.114 A 
ATOM     17  C   UNL     1      -1.848 -10.436  15.502  0.00  0.00    +0.020 A 
ATOM     18  C   UNL     1      -2.154 -10.320  14.156  0.00  0.00    +0.111 A 
ENDBRANCH   7  12
BRANCH   8   5
ATOM      4  O   UNL     1      -8.430 -11.363  17.432  0.00  0.00    -0.270 OA
ATOM      5  N   UNL     1      -6.771  -9.755  17.227  0.00  0.00    -0.305 N 
ATOM     15  C   UNL     1      -8.067 -10.236  17.105  0.00  0.00    +0.251 C 
ATOM     26  H   UNL     1      -6.558  -8.796  16.974  0.00  0.00    +0.149 HD
BRANCH  15  16
ATOM      1  S   UNL     1      -9.767  -9.687  15.007  0.00  0.00    -0.084 S 
ATOM     16  C   UNL     1      -9.055  -9.300  16.507  0.00  0.00    +0.075 A 
ATOM     19  C   UNL     1      -9.515  -8.104  17.003  0.00  0.00    +0.029 A 
ATOM     20  C   UNL     1     -10.477  -7.475  16.141  0.00  0.00    -0.010 A 
ATOM     21  C   UNL     1     -10.710  -8.244  14.997  0.00  0.00    +0.020 A 
ATOM     22  C   UNL     1     -11.180  -6.254  16.282  0.00  0.00    +0.009 A 
ATOM     23  C   UNL     1     -11.618  -7.830  14.004  0.00  0.00    +0.015 A 
ATOM     24  C   UNL     1     -12.081  -5.840  15.298  0.00  0.00    +0.001 A 
ATOM     25  C   UNL     1     -12.297  -6.621  14.171  0.00  0.00    +0.001 A 
ENDBRANCH  15  16
ENDBRANCH   8   5
BRANCH   9   2
ATOM      2  O   UNL     1      -6.170 -10.567  20.161  0.00  0.00    -0.387 OA
ATOM     27  H   UNL     1      -5.390  -9.986  20.147  0.00  0.00    +0.210 HD
ENDBRANCH   9   2
BRANCH  11   3
ATOM      3  O   UNL     1      -3.850 -11.919  19.589  0.00  0.00    -0.389 OA
ATOM     28  H   UNL     1      -3.158 -12.117  18.936  0.00  0.00    +0.210 HD
ENDBRANCH  11   3
TORSDOF 5
ENDMDL
MODEL 7
REMARK VINA RESULT:      -6.2     31.620     33.922
REMARK  Name = 75536076
REMARK  5 active torsions:
REMARK  status: ('A' for Active; 'I' for Inactive)
REMARK    1  A    between atoms: O_2  and  C_9
REMARK    2  A    between atoms: O_3  and  C_11
REMARK    3  A    between atoms: N_5  and  C_8
REMARK    4  A    between atoms: C_7  and  C_12
REMARK    5  A    between atoms: C_15  and  C_16
REMARK                            x       y       z     vdW  Elec       q    Type
REMARK                         _______ _______ _______ _____ _____    ______ ____
ROOT
ATOM      7  C   UNL     1     -15.399   4.092  30.989  0.00  0.00    +0.046 C 
ATOM      8  C   UNL     1     -15.190   2.709  30.332  0.00  0.00    +0.112 C 
ATOM      9  C   UNL     1     -13.677   2.514  30.388  0.00  0.00    +0.164 C 
ATOM     10  C   UNL     1     -14.153   4.328  31.883  0.00  0.00    +0.044 C 
ATOM     11  C   UNL     1     -13.307   3.062  31.761  0.00  0.00    +0.145 C 
ENDROOT
BRANCH   7  12
ATOM      6  N   UNL     1     -17.925   4.264  33.814  0.00  0.00    -0.263 NA
ATOM     12  C   UNL     1     -16.721   4.209  31.718  0.00  0.00    -0.024 A 
ATOM     13  C   UNL     1     -17.914   4.362  31.020  0.00  0.00    +0.007 A 
ATOM     14  C   UNL     1     -16.780   4.166  33.102  0.00  0.00    +0.114 A 
ATOM     17  C   UNL     1     -19.112   4.465  31.717  0.00  0.00    +0.020 A 
ATOM     18  C   UNL     1     -19.065   4.410  33.101  0.00  0.00    +0.111 A 
ENDBRANCH   7  12
BRANCH   8   5
ATOM      4  O   UNL     1     -16.138   0.398  28.915  0.00  0.00    -0.270 OA
ATOM      5  N   UNL     1     -15.688   2.672  28.979  0.00  0.00    -0.305 N 
ATOM     15  C   UNL     1     -16.127   1.502  28.376  0.00  0.00    +0.251 C 
ATOM     26  H   UNL     1     -15.750   3.555  28.483  0.00  0.00    +0.149 HD
BRANCH  15  16
ATOM      1  S   UNL     1     -16.323   3.091  26.135  0.00  0.00    -0.084 S 
ATOM     16  C   UNL     1     -16.586   1.628  26.968  0.00  0.00    +0.075 A 
ATOM     19  C   UNL     1     -17.222   0.695  26.184  0.00  0.00    +0.029 A 
ATOM     20  C   UNL     1     -17.509   1.179  24.863  0.00  0.00    -0.010 A 
ATOM     21  C   UNL     1     -17.066   2.494  24.698  0.00  0.00    +0.020 A 
ATOM     22  C   UNL     1     -18.144   0.544  23.768  0.00  0.00    +0.009 A 
ATOM     23  C   UNL     1     -17.237   3.182  23.482  0.00  0.00    +0.015 A 
ATOM     24  C   UNL     1     -18.316   1.223  22.560  0.00  0.00    +0.001 A 
ATOM     25  C   UNL     1     -17.866   2.529  22.419  0.00  0.00    +0.001 A 
ENDBRANCH  15  16
ENDBRANCH   8   5
BRANCH   9   2
ATOM      2  O   UNL     1     -13.307   1.153  30.264  0.00  0.00    -0.387 OA
ATOM     27  H   UNL     1     -12.434   1.049  30.682  0.00  0.00    +0.210 HD
ENDBRANCH   9   2
BRANCH  11   3
ATOM      3  O   UNL     1     -13.689   2.156  32.792  0.00  0.00    -0.389 OA
ATOM     28  H   UNL     1     -14.466   1.665  32.474  0.00  0.00    +0.210 HD
ENDBRANCH  11   3
TORSDOF 5
ENDMDL
MODEL 8
REMARK VINA RESULT:      -6.0     27.438     29.030
REMARK  Name = 75536076
REMARK  5 active torsions:
REMARK  status: ('A' for Active; 'I' for Inactive)
REMARK    1  A    between atoms: O_2  and  C_9
REMARK    2  A    between atoms: O_3  and  C_11
REMARK    3  A    between atoms: N_5  and  C_8
REMARK    4  A    between atoms: C_7  and  C_12
REMARK    5  A    between atoms: C_15  and  C_16
REMARK                            x       y       z     vdW  Elec       q    Type
REMARK                         _______ _______ _______ _____ _____    ______ ____
ROOT
ATOM      7  C   UNL     1      -4.452 -11.864  12.274  0.00  0.00    +0.046 C 
ATOM      8  C   UNL     1      -4.035 -11.565  13.732  0.00  0.00    +0.112 C 
ATOM      9  C   UNL     1      -3.275 -12.823  14.150  0.00  0.00    +0.164 C 
ATOM     10  C   UNL     1      -3.452 -12.933  11.760  0.00  0.00    +0.044 C 
ATOM     11  C   UNL     1      -2.467 -13.168  12.904  0.00  0.00    +0.145 C 
ENDROOT
BRANCH   7  12
ATOM      6  N   UNL     1      -5.817  -8.725  10.639  0.00  0.00    -0.263 NA
ATOM     12  C   UNL     1      -4.532 -10.621  11.414  0.00  0.00    -0.024 A 
ATOM     13  C   UNL     1      -3.454 -10.220  10.631  0.00  0.00    +0.007 A 
ATOM     14  C   UNL     1      -5.680  -9.845  11.384  0.00  0.00    +0.114 A 
ATOM     17  C   UNL     1      -3.557  -9.074   9.851  0.00  0.00    +0.020 A 
ATOM     18  C   UNL     1      -4.749  -8.368   9.889  0.00  0.00    +0.111 A 
ENDBRANCH   7  12
BRANCH   8   5
ATOM      4  O   UNL     1      -4.019 -10.269  16.295  0.00  0.00    -0.270 OA
ATOM      5  N   UNL     1      -5.175 -11.320  14.581  0.00  0.00    -0.305 N 
ATOM     15  C   UNL     1      -5.069 -10.682  15.809  0.00  0.00    +0.251 C 
ATOM     26  H   UNL     1      -6.085 -11.594  14.227  0.00  0.00    +0.149 HD
BRANCH  15  16
ATOM      1  S   UNL     1      -6.599 -11.506  17.946  0.00  0.00    -0.084 S 
ATOM     16  C   UNL     1      -6.333 -10.529  16.574  0.00  0.00    +0.075 A 
ATOM     19  C   UNL     1      -7.381  -9.672  16.340  0.00  0.00    +0.029 A 
ATOM     20  C   UNL     1      -8.439  -9.808  17.302  0.00  0.00    -0.010 A 
ATOM     21  C   UNL     1      -8.138 -10.790  18.250  0.00  0.00    +0.020 A 
ATOM     22  C   UNL     1      -9.674  -9.124  17.415  0.00  0.00    +0.009 A 
ATOM     23  C   UNL     1      -9.028 -11.102  19.295  0.00  0.00    +0.015 A 
ATOM     24  C   UNL     1     -10.560  -9.431  18.451  0.00  0.00    +0.001 A 
ATOM     25  C   UNL     1     -10.238 -10.410  19.381  0.00  0.00    +0.001 A 
ENDBRANCH  15  16
ENDBRANCH   8   5
BRANCH   9   2
ATOM      2  O   UNL     1      -2.428 -12.593  15.259  0.00  0.00    -0.387 OA
ATOM     27  H   UNL     1      -2.982 -12.263  15.988  0.00  0.00    +0.210 HD
ENDBRANCH   9   2
BRANCH  11   3
ATOM      3  O   UNL     1      -1.365 -12.280  12.747  0.00  0.00    -0.389 OA
ATOM     28  H   UNL     1      -1.670 -11.391  12.998  0.00  0.00    +0.210 HD
ENDBRANCH  11   3
TORSDOF 5
ENDMDL
MODEL 9
REMARK VINA RESULT:      -5.8     23.117     27.131
REMARK  Name = 75536076
REMARK  5 active torsions:
REMARK  status: ('A' for Active; 'I' for Inactive)
REMARK    1  A    between atoms: O_2  and  C_9
REMARK    2  A    between atoms: O_3  and  C_11
REMARK    3  A    between atoms: N_5  and  C_8
REMARK    4  A    between atoms: C_7  and  C_12
REMARK    5  A    between atoms: C_15  and  C_16
REMARK                            x       y       z     vdW  Elec       q    Type
REMARK                         _______ _______ _______ _____ _____    ______ ____
ROOT
ATOM      7  C   UNL     1      -3.469   9.974   3.855  0.00  0.00    +0.046 C 
ATOM      8  C   UNL     1      -2.388   9.581   2.822  0.00  0.00    +0.112 C 
ATOM      9  C   UNL     1      -1.138  10.301   3.324  0.00  0.00    +0.164 C 
ATOM     10  C   UNL     1      -2.700  10.364   5.144  0.00  0.00    +0.044 C 
ATOM     11  C   UNL     1      -1.223  10.128   4.836  0.00  0.00    +0.145 C 
ENDROOT
BRANCH   7  12
ATOM      6  N   UNL     1      -6.769   8.112   3.664  0.00  0.00    -0.263 NA
ATOM     12  C   UNL     1      -4.516   8.899   4.055  0.00  0.00    -0.024 A 
ATOM     13  C   UNL     1      -4.230   7.745   4.778  0.00  0.00    +0.007 A 
ATOM     14  C   UNL     1      -5.789   9.033   3.523  0.00  0.00    +0.114 A 
ATOM     17  C   UNL     1      -5.212   6.775   4.945  0.00  0.00    +0.020 A 
ATOM     18  C   UNL     1      -6.454   7.004   4.374  0.00  0.00    +0.111 A 
ENDBRANCH   7  12
BRANCH   8   5
ATOM      4  O   UNL     1      -1.022   8.880   0.396  0.00  0.00    -0.270 OA
ATOM      5  N   UNL     1      -2.743   9.988   1.486  0.00  0.00    -0.305 N 
ATOM     15  C   UNL     1      -2.019   9.597   0.368  0.00  0.00    +0.251 C 
ATOM     26  H   UNL     1      -3.583  10.546   1.378  0.00  0.00    +0.149 HD
BRANCH  15  16
ATOM      1  S   UNL     1      -1.372  10.771  -2.038  0.00  0.00    -0.084 S 
ATOM     16  C   UNL     1      -2.500  10.123  -0.936  0.00  0.00    +0.075 A 
ATOM     19  C   UNL     1      -3.783  10.169  -1.424  0.00  0.00    +0.029 A 
ATOM     20  C   UNL     1      -3.861  10.750  -2.735  0.00  0.00    -0.010 A 
ATOM     21  C   UNL     1      -2.597  11.128  -3.197  0.00  0.00    +0.020 A 
ATOM     22  C   UNL     1      -4.978  10.978  -3.576  0.00  0.00    +0.009 A 
ATOM     23  C   UNL     1      -2.423  11.721  -4.462  0.00  0.00    +0.015 A 
ATOM     24  C   UNL     1      -4.808  11.567  -4.831  0.00  0.00    +0.001 A 
ATOM     25  C   UNL     1      -3.543  11.934  -5.269  0.00  0.00    +0.001 A 
ENDBRANCH  15  16
ENDBRANCH   8   5
BRANCH   9   2
ATOM      2  O   UNL     1       0.051   9.733   2.811  0.00  0.00    -0.387 OA
ATOM     27  H   UNL     1       0.730   9.798   3.505  0.00  0.00    +0.210 HD
ENDBRANCH   9   2
BRANCH  11   3
ATOM      3  O   UNL     1      -0.884   8.798   5.217  0.00  0.00    -0.389 OA
ATOM     28  H   UNL     1      -0.030   8.837   5.682  0.00  0.00    +0.210 HD
ENDBRANCH  11   3
TORSDOF 5
ENDMDL
MODEL 10
REMARK VINA RESULT:      -5.7     32.075     33.861
REMARK  Name = 75536076
REMARK  5 active torsions:
REMARK  status: ('A' for Active; 'I' for Inactive)
REMARK    1  A    between atoms: O_2  and  C_9
REMARK    2  A    between atoms: O_3  and  C_11
REMARK    3  A    between atoms: N_5  and  C_8
REMARK    4  A    between atoms: C_7  and  C_12
REMARK    5  A    between atoms: C_15  and  C_16
REMARK                            x       y       z     vdW  Elec       q    Type
REMARK                         _______ _______ _______ _____ _____    ______ ____
ROOT
ATOM      7  C   UNL     1     -14.823   3.237  30.163  0.00  0.00    +0.046 C 
ATOM      8  C   UNL     1     -15.552   1.990  29.613  0.00  0.00    +0.112 C 
ATOM      9  C   UNL     1     -14.503   0.886  29.728  0.00  0.00    +0.164 C 
ATOM     10  C   UNL     1     -13.690   2.697  31.074  0.00  0.00    +0.044 C 
ATOM     11  C   UNL     1     -13.839   1.177  31.069  0.00  0.00    +0.145 C 
ENDROOT
BRANCH   7  12
ATOM      6  N   UNL     1     -17.995   4.775  31.563  0.00  0.00    -0.263 NA
ATOM     12  C   UNL     1     -15.756   4.217  30.841  0.00  0.00    -0.024 A 
ATOM     13  C   UNL     1     -15.282   5.419  31.357  0.00  0.00    +0.007 A 
ATOM     14  C   UNL     1     -17.109   3.945  30.970  0.00  0.00    +0.114 A 
ATOM     17  C   UNL     1     -16.163   6.300  31.974  0.00  0.00    +0.020 A 
ATOM     18  C   UNL     1     -17.497   5.935  32.051  0.00  0.00    +0.111 A 
ENDBRANCH   7  12
BRANCH   8   5
ATOM      4  O   UNL     1     -17.559   0.467  28.235  0.00  0.00    -0.270 OA
ATOM      5  N   UNL     1     -15.990   2.175  28.252  0.00  0.00    -0.305 N 
ATOM     15  C   UNL     1     -16.972   1.387  27.670  0.00  0.00    +0.251 C 
ATOM     26  H   UNL     1     -15.582   2.945  27.734  0.00  0.00    +0.149 HD
BRANCH  15  16
ATOM      1  S   UNL     1     -17.695   0.409  25.198  0.00  0.00    -0.084 S 
ATOM     16  C   UNL     1     -17.293   1.688  26.250  0.00  0.00    +0.075 A 
ATOM     19  C   UNL     1     -17.321   2.907  25.615  0.00  0.00    +0.029 A 
ATOM     20  C   UNL     1     -17.679   2.805  24.228  0.00  0.00    -0.010 A 
ATOM     21  C   UNL     1     -17.914   1.477  23.862  0.00  0.00    +0.020 A 
ATOM     22  C   UNL     1     -17.820   3.808  23.238  0.00  0.00    +0.009 A 
ATOM     23  C   UNL     1     -18.282   1.129  22.548  0.00  0.00    +0.015 A 
ATOM     24  C   UNL     1     -18.184   3.466  21.934  0.00  0.00    +0.001 A 
ATOM     25  C   UNL     1     -18.413   2.140  21.593  0.00  0.00    +0.001 A 
ENDBRANCH  15  16
ENDBRANCH   8   5
BRANCH   9   2
ATOM      2  O   UNL     1     -15.080  -0.406  29.714  0.00  0.00    -0.387 OA
ATOM     27  H   UNL     1     -16.000  -0.312  29.412  0.00  0.00    +0.210 HD
ENDBRANCH   9   2
BRANCH  11   3
ATOM      3  O   UNL     1     -14.685   0.797  32.150  0.00  0.00    -0.389 OA
ATOM     28  H   UNL     1     -14.320   1.195  32.959  0.00  0.00    +0.210 HD
ENDBRANCH  11   3
TORSDOF 5
ENDMDL
