MODEL 1
REMARK VINA RESULT:      -7.1      0.000      0.000
REMARK  Name = 45783988
REMARK  11 active torsions:
REMARK  status: ('A' for Active; 'I' for Inactive)
REMARK    1  A    between atoms: N_4  and  C_14
REMARK    2  A    between atoms: N_5  and  C_26
REMARK    3  A    between atoms: N_8  and  C_33
REMARK    4  A    between atoms: C_9  and  C_13
REMARK    5  A    between atoms: C_10  and  C_14
REMARK    6  A    between atoms: C_12  and  C_17
REMARK    7  A    between atoms: C_13  and  C_18
REMARK    8  A    between atoms: C_13  and  C_19
REMARK    9  A    between atoms: C_16  and  C_22
REMARK   10  A    between atoms: C_17  and  C_25
REMARK   11  A    between atoms: C_27  and  C_28
REMARK                            x       y       z     vdW  Elec       q    Type
REMARK                         _______ _______ _______ _____ _____    ______ ____
ROOT
ATOM      9  C   UNL     1      14.168  10.583  21.007  0.00  0.00    +0.000 C 
ATOM     10  C   UNL     1      12.815  10.665  20.262  0.00  0.00    +0.029 C 
ATOM     11  C   UNL     1      14.619   9.122  21.143  0.00  0.00    +0.012 C 
ATOM     12  C   UNL     1      14.732   8.387  19.791  0.00  0.00    +0.024 C 
ATOM     15  C   UNL     1      12.762   9.760  19.057  0.00  0.00    -0.023 C 
ATOM     16  C   UNL     1      13.615   8.746  18.823  0.00  0.00    -0.073 C 
ATOM     22  C   UNL     1      13.524   7.960  17.544  0.00  0.00    +0.039 C 
ENDROOT
BRANCH   9  13
ATOM     13  C   UNL     1      15.242  11.432  20.311  0.00  0.00    -0.013 C 
ATOM     18  C   UNL     1      14.781  12.881  20.195  0.00  0.00    +0.007 C 
ATOM     19  C   UNL     1      16.562  11.343  21.069  0.00  0.00    +0.007 C 
ENDBRANCH   9  13
BRANCH  10  14
ATOM     14  C   UNL     1      11.639  10.341  21.188  0.00  0.00    +0.092 C 
BRANCH  14   4
ATOM      4  N   UNL     1      11.679  11.177  22.386  0.00  0.00    -0.299 NA
ATOM      5  N   UNL     1      10.439  12.667  24.531  0.00  0.00    -0.303 NA
ATOM     20  C   UNL     1      11.045  10.495  23.521  0.00  0.00    +0.100 C 
ATOM     21  C   UNL     1      11.033  12.472  22.140  0.00  0.00    +0.100 C 
ATOM     23  C   UNL     1      11.086  11.373  24.776  0.00  0.00    +0.099 C 
ATOM     24  C   UNL     1      11.072  13.349  23.396  0.00  0.00    +0.099 C 
ATOM     26  C   UNL     1      10.482  13.503  25.728  0.00  0.00    +0.105 C 
ENDBRANCH  14   4
ENDBRANCH  10  14
BRANCH  12  17
ATOM     17  C   UNL     1      14.828   6.880  20.058  0.00  0.00    +0.105 C 
BRANCH  17  25
ATOM      1  O   UNL     1      17.152   6.464  20.674  0.00  0.00    -0.420 OA
ATOM      6  N   UNL     1      16.612   5.775  18.615  0.00  0.00    -0.112 NA
ATOM      7  N   UNL     1      17.945   5.477  18.829  0.00  0.00    -0.107 NA
ATOM     25  C   UNL     1      16.190   6.348  19.718  0.00  0.00    +0.218 A 
ATOM     27  C   UNL     1      18.217   5.898  20.043  0.00  0.00    +0.248 A 
BRANCH  27  28
ATOM     28  C   UNL     1      19.439   5.853  20.792  0.00  0.00    +0.039 A 
ATOM     29  C   UNL     1      19.612   6.689  21.895  0.00  0.00    +0.015 A 
ATOM     30  C   UNL     1      20.455   4.974  20.417  0.00  0.00    +0.015 A 
ATOM     31  C   UNL     1      20.800   6.645  22.625  0.00  0.00    +0.033 A 
ATOM     32  C   UNL     1      21.643   4.931  21.146  0.00  0.00    +0.033 A 
ATOM     33  C   UNL     1      21.816   5.765  22.249  0.00  0.00    +0.126 A 
BRANCH  33   8
ATOM      2  O   UNL     1      23.651   4.635  23.071  0.00  0.00    -0.126 OA
ATOM      3  O   UNL     1      23.435   6.767  23.551  0.00  0.00    -0.126 OA
ATOM      8  N   UNL     1      23.025   5.720  22.992  0.00  0.00    +0.056 N 
ENDBRANCH  33   8
ENDBRANCH  27  28
ENDBRANCH  17  25
ENDBRANCH  12  17
TORSDOF 7
ENDMDL
MODEL 2
REMARK VINA RESULT:      -7.1     27.576     30.604
REMARK  Name = 45783988
REMARK  11 active torsions:
REMARK  status: ('A' for Active; 'I' for Inactive)
REMARK    1  A    between atoms: N_4  and  C_14
REMARK    2  A    between atoms: N_5  and  C_26
REMARK    3  A    between atoms: N_8  and  C_33
REMARK    4  A    between atoms: C_9  and  C_13
REMARK    5  A    between atoms: C_10  and  C_14
REMARK    6  A    between atoms: C_12  and  C_17
REMARK    7  A    between atoms: C_13  and  C_18
REMARK    8  A    between atoms: C_13  and  C_19
REMARK    9  A    between atoms: C_16  and  C_22
REMARK   10  A    between atoms: C_17  and  C_25
REMARK   11  A    between atoms: C_27  and  C_28
REMARK                            x       y       z     vdW  Elec       q    Type
REMARK                         _______ _______ _______ _____ _____    ______ ____
ROOT
ATOM      9  C   UNL     1      -5.719 -10.497  10.419  0.00  0.00    +0.000 C 
ATOM     10  C   UNL     1      -5.037  -9.983   9.130  0.00  0.00    +0.029 C 
ATOM     11  C   UNL     1      -4.714 -11.258  11.294  0.00  0.00    +0.012 C 
ATOM     12  C   UNL     1      -3.472 -10.421  11.668  0.00  0.00    +0.024 C 
ATOM     15  C   UNL     1      -3.682  -9.378   9.394  0.00  0.00    -0.023 C 
ATOM     16  C   UNL     1      -2.973  -9.552  10.524  0.00  0.00    -0.073 C 
ATOM     22  C   UNL     1      -1.668  -8.830  10.718  0.00  0.00    +0.039 C 
ENDROOT
BRANCH   9  13
ATOM     13  C   UNL     1      -6.375  -9.348  11.200  0.00  0.00    -0.013 C 
ATOM     18  C   UNL     1      -7.571  -8.797  10.430  0.00  0.00    +0.007 C 
ATOM     19  C   UNL     1      -6.796  -9.821  12.587  0.00  0.00    +0.007 C 
ENDBRANCH   9  13
BRANCH  10  14
ATOM     14  C   UNL     1      -4.899 -11.094   8.084  0.00  0.00    +0.092 C 
BRANCH  14   4
ATOM      4  N   UNL     1      -5.326 -10.621   6.768  0.00  0.00    -0.299 NA
ATOM      5  N   UNL     1      -7.285 -10.259   4.673  0.00  0.00    -0.303 NA
ATOM     20  C   UNL     1      -6.404  -9.632   6.895  0.00  0.00    +0.100 C 
ATOM     21  C   UNL     1      -5.757 -11.744   5.926  0.00  0.00    +0.100 C 
ATOM     23  C   UNL     1      -6.854  -9.138   5.516  0.00  0.00    +0.099 C 
ATOM     24  C   UNL     1      -6.208 -11.249   4.547  0.00  0.00    +0.099 C 
ATOM     26  C   UNL     1      -7.710  -9.786   3.358  0.00  0.00    +0.105 C 
ENDBRANCH  14   4
ENDBRANCH  10  14
BRANCH  12  17
ATOM     17  C   UNL     1      -2.393 -11.364  12.215  0.00  0.00    +0.105 C 
BRANCH  17  25
ATOM      1  O   UNL     1      -3.299 -11.257  14.479  0.00  0.00    -0.420 OA
ATOM      6  N   UNL     1      -1.090 -10.923  14.359  0.00  0.00    -0.112 NA
ATOM      7  N   UNL     1      -1.463 -10.836  15.687  0.00  0.00    -0.107 NA
ATOM     25  C   UNL     1      -2.192 -11.170  13.691  0.00  0.00    +0.218 A 
ATOM     27  C   UNL     1      -2.760 -11.037  15.710  0.00  0.00    +0.248 A 
BRANCH  27  28
ATOM     28  C   UNL     1      -3.680 -11.060  16.810  0.00  0.00    +0.039 A 
ATOM     29  C   UNL     1      -4.892 -10.375  16.720  0.00  0.00    +0.015 A 
ATOM     30  C   UNL     1      -3.363 -11.767  17.970  0.00  0.00    +0.015 A 
ATOM     31  C   UNL     1      -5.788 -10.398  17.790  0.00  0.00    +0.033 A 
ATOM     32  C   UNL     1      -4.257 -11.790  19.039  0.00  0.00    +0.033 A 
ATOM     33  C   UNL     1      -5.469 -11.106  18.949  0.00  0.00    +0.126 A 
BRANCH  33   8
ATOM      2  O   UNL     1      -7.579 -10.814  19.835  0.00  0.00    -0.126 OA
ATOM      3  O   UNL     1      -5.965 -11.468  21.173  0.00  0.00    -0.126 OA
ATOM      8  N   UNL     1      -6.381 -11.130  20.037  0.00  0.00    +0.056 N 
ENDBRANCH  33   8
ENDBRANCH  27  28
ENDBRANCH  17  25
ENDBRANCH  12  17
TORSDOF 7
ENDMDL
MODEL 3
REMARK VINA RESULT:      -7.1      1.349      2.542
REMARK  Name = 45783988
REMARK  11 active torsions:
REMARK  status: ('A' for Active; 'I' for Inactive)
REMARK    1  A    between atoms: N_4  and  C_14
REMARK    2  A    between atoms: N_5  and  C_26
REMARK    3  A    between atoms: N_8  and  C_33
REMARK    4  A    between atoms: C_9  and  C_13
REMARK    5  A    between atoms: C_10  and  C_14
REMARK    6  A    between atoms: C_12  and  C_17
REMARK    7  A    between atoms: C_13  and  C_18
REMARK    8  A    between atoms: C_13  and  C_19
REMARK    9  A    between atoms: C_16  and  C_22
REMARK   10  A    between atoms: C_17  and  C_25
REMARK   11  A    between atoms: C_27  and  C_28
REMARK                            x       y       z     vdW  Elec       q    Type
REMARK                         _______ _______ _______ _____ _____    ______ ____
ROOT
ATOM      9  C   UNL     1      13.797   9.449  18.108  0.00  0.00    +0.000 C 
ATOM     10  C   UNL     1      12.672  10.018  19.003  0.00  0.00    +0.029 C 
ATOM     11  C   UNL     1      14.737   8.554  18.928  0.00  0.00    +0.012 C 
ATOM     12  C   UNL     1      14.009   7.393  19.638  0.00  0.00    +0.024 C 
ATOM     15  C   UNL     1      12.084   8.980  19.924  0.00  0.00    -0.023 C 
ATOM     16  C   UNL     1      12.660   7.798  20.211  0.00  0.00    -0.073 C 
ATOM     22  C   UNL     1      11.943   6.797  21.076  0.00  0.00    +0.039 C 
ENDROOT
BRANCH   9  13
ATOM     13  C   UNL     1      13.223   8.692  16.901  0.00  0.00    -0.013 C 
ATOM     18  C   UNL     1      11.868   9.271  16.506  0.00  0.00    +0.007 C 
ATOM     19  C   UNL     1      14.197   8.746  15.729  0.00  0.00    +0.007 C 
ENDBRANCH   9  13
BRANCH  10  14
ATOM     14  C   UNL     1      13.158  11.211  19.833  0.00  0.00    +0.092 C 
BRANCH  14   4
ATOM      4  N   UNL     1      12.440  11.283  21.104  0.00  0.00    -0.299 NA
ATOM      5  N   UNL     1      11.841  12.496  23.658  0.00  0.00    -0.303 NA
ATOM     20  C   UNL     1      11.664  12.526  21.194  0.00  0.00    +0.100 C 
ATOM     21  C   UNL     1      13.370  11.175  22.235  0.00  0.00    +0.100 C 
ATOM     23  C   UNL     1      10.912  12.603  22.527  0.00  0.00    +0.099 C 
ATOM     24  C   UNL     1      12.618  11.253  23.568  0.00  0.00    +0.099 C 
ATOM     26  C   UNL     1      11.121  12.566  24.928  0.00  0.00    +0.105 C 
ENDBRANCH  14   4
ENDBRANCH  10  14
BRANCH  12  17
ATOM     17  C   UNL     1      14.950   6.798  20.693  0.00  0.00    +0.105 C 
BRANCH  17  25
ATOM      1  O   UNL     1      17.364   6.464  20.838  0.00  0.00    -0.420 OA
ATOM      6  N   UNL     1      16.463   5.811  18.897  0.00  0.00    -0.112 NA
ATOM      7  N   UNL     1      17.822   5.565  18.841  0.00  0.00    -0.107 NA
ATOM     25  C   UNL     1      16.240   6.334  20.080  0.00  0.00    +0.218 A 
ATOM     27  C   UNL     1      18.307   5.963  19.994  0.00  0.00    +0.248 A 
BRANCH  27  28
ATOM     28  C   UNL     1      19.651   5.949  20.494  0.00  0.00    +0.039 A 
ATOM     29  C   UNL     1      20.427   4.796  20.377  0.00  0.00    +0.015 A 
ATOM     30  C   UNL     1      20.182   7.089  21.097  0.00  0.00    +0.015 A 
ATOM     31  C   UNL     1      21.735   4.783  20.862  0.00  0.00    +0.033 A 
ATOM     32  C   UNL     1      21.489   7.076  21.583  0.00  0.00    +0.033 A 
ATOM     33  C   UNL     1      22.266   5.924  21.465  0.00  0.00    +0.126 A 
BRANCH  33   8
ATOM      2  O   UNL     1      24.436   5.143  21.426  0.00  0.00    -0.126 OA
ATOM      3  O   UNL     1      23.900   6.667  22.913  0.00  0.00    -0.126 OA
ATOM      8  N   UNL     1      23.597   5.911  21.958  0.00  0.00    +0.056 N 
ENDBRANCH  33   8
ENDBRANCH  27  28
ENDBRANCH  17  25
ENDBRANCH  12  17
TORSDOF 7
ENDMDL
MODEL 4
REMARK VINA RESULT:      -6.7     28.235     31.344
REMARK  Name = 45783988
REMARK  11 active torsions:
REMARK  status: ('A' for Active; 'I' for Inactive)
REMARK    1  A    between atoms: N_4  and  C_14
REMARK    2  A    between atoms: N_5  and  C_26
REMARK    3  A    between atoms: N_8  and  C_33
REMARK    4  A    between atoms: C_9  and  C_13
REMARK    5  A    between atoms: C_10  and  C_14
REMARK    6  A    between atoms: C_12  and  C_17
REMARK    7  A    between atoms: C_13  and  C_18
REMARK    8  A    between atoms: C_13  and  C_19
REMARK    9  A    between atoms: C_16  and  C_22
REMARK   10  A    between atoms: C_17  and  C_25
REMARK   11  A    between atoms: C_27  and  C_28
REMARK                            x       y       z     vdW  Elec       q    Type
REMARK                         _______ _______ _______ _____ _____    ______ ____
ROOT
ATOM      9  C   UNL     1      -3.857 -10.421  15.383  0.00  0.00    +0.000 C 
ATOM     10  C   UNL     1      -4.977 -11.200  14.655  0.00  0.00    +0.029 C 
ATOM     11  C   UNL     1      -4.090 -10.435  16.900  0.00  0.00    +0.012 C 
ATOM     12  C   UNL     1      -4.193 -11.857  17.490  0.00  0.00    +0.024 C 
ATOM     15  C   UNL     1      -5.315 -12.500  15.338  0.00  0.00    -0.023 C 
ATOM     16  C   UNL     1      -4.965 -12.817  16.598  0.00  0.00    -0.073 C 
ATOM     22  C   UNL     1      -5.279 -14.180  17.151  0.00  0.00    +0.039 C 
ENDROOT
BRANCH   9  13
ATOM     13  C   UNL     1      -2.470 -10.976  15.030  0.00  0.00    -0.013 C 
ATOM     18  C   UNL     1      -2.229 -10.887  13.526  0.00  0.00    +0.007 C 
ATOM     19  C   UNL     1      -1.387 -10.225  15.797  0.00  0.00    +0.007 C 
ENDBRANCH   9  13
BRANCH  10  14
ATOM     14  C   UNL     1      -6.250 -10.359  14.513  0.00  0.00    +0.092 C 
BRANCH  14   4
ATOM      4  N   UNL     1      -6.686 -10.313  13.119  0.00  0.00    -0.299 NA
ATOM      5  N   UNL     1      -7.667  -8.942  10.771  0.00  0.00    -0.303 NA
ATOM     20  C   UNL     1      -5.814  -9.437  12.328  0.00  0.00    +0.100 C 
ATOM     21  C   UNL     1      -8.082  -9.868  13.024  0.00  0.00    +0.100 C 
ATOM     23  C   UNL     1      -6.272  -9.388  10.866  0.00  0.00    +0.099 C 
ATOM     24  C   UNL     1      -8.540  -9.817  11.562  0.00  0.00    +0.099 C 
ATOM     26  C   UNL     1      -8.103  -8.898   9.376  0.00  0.00    +0.105 C 
ENDBRANCH  14   4
ENDBRANCH  10  14
BRANCH  12  17
ATOM     17  C   UNL     1      -4.776 -11.760  18.905  0.00  0.00    +0.105 C 
BRANCH  17  25
ATOM      1  O   UNL     1      -6.825 -10.587  18.285  0.00  0.00    -0.420 OA
ATOM      6  N   UNL     1      -7.165 -12.527  19.345  0.00  0.00    -0.112 NA
ATOM      7  N   UNL     1      -8.399 -11.977  19.055  0.00  0.00    -0.107 NA
ATOM     25  C   UNL     1      -6.276 -11.683  18.877  0.00  0.00    +0.218 A 
ATOM     27  C   UNL     1      -8.152 -10.845  18.438  0.00  0.00    +0.248 A 
BRANCH  27  28
ATOM     28  C   UNL     1      -9.048  -9.859  17.908  0.00  0.00    +0.039 A 
ATOM     29  C   UNL     1      -8.595  -8.944  16.957  0.00  0.00    +0.015 A 
ATOM     30  C   UNL     1     -10.372  -9.813  18.344  0.00  0.00    +0.015 A 
ATOM     31  C   UNL     1      -9.466  -7.984  16.441  0.00  0.00    +0.033 A 
ATOM     32  C   UNL     1     -11.243  -8.853  17.829  0.00  0.00    +0.033 A 
ATOM     33  C   UNL     1     -10.791  -7.939  16.878  0.00  0.00    +0.126 A 
BRANCH  33   8
ATOM      2  O   UNL     1     -11.257  -5.796  16.165  0.00  0.00    -0.126 OA
ATOM      3  O   UNL     1     -12.859  -7.295  16.087  0.00  0.00    -0.126 OA
ATOM      8  N   UNL     1     -11.678  -6.963  16.352  0.00  0.00    +0.056 N 
ENDBRANCH  33   8
ENDBRANCH  27  28
ENDBRANCH  17  25
ENDBRANCH  12  17
TORSDOF 7
ENDMDL
MODEL 5
REMARK VINA RESULT:      -6.5     28.364     30.746
REMARK  Name = 45783988
REMARK  11 active torsions:
REMARK  status: ('A' for Active; 'I' for Inactive)
REMARK    1  A    between atoms: N_4  and  C_14
REMARK    2  A    between atoms: N_5  and  C_26
REMARK    3  A    between atoms: N_8  and  C_33
REMARK    4  A    between atoms: C_9  and  C_13
REMARK    5  A    between atoms: C_10  and  C_14
REMARK    6  A    between atoms: C_12  and  C_17
REMARK    7  A    between atoms: C_13  and  C_18
REMARK    8  A    between atoms: C_13  and  C_19
REMARK    9  A    between atoms: C_16  and  C_22
REMARK   10  A    between atoms: C_17  and  C_25
REMARK   11  A    between atoms: C_27  and  C_28
REMARK                            x       y       z     vdW  Elec       q    Type
REMARK                         _______ _______ _______ _____ _____    ______ ____
ROOT
ATOM      9  C   UNL     1      -7.115 -12.068  16.989  0.00  0.00    +0.000 C 
ATOM     10  C   UNL     1      -7.181 -11.812  18.513  0.00  0.00    +0.029 C 
ATOM     11  C   UNL     1      -5.907 -11.346  16.374  0.00  0.00    +0.012 C 
ATOM     12  C   UNL     1      -4.563 -11.744  17.020  0.00  0.00    +0.024 C 
ATOM     15  C   UNL     1      -5.834 -11.930  19.178  0.00  0.00    -0.023 C 
ATOM     16  C   UNL     1      -4.655 -11.913  18.529  0.00  0.00    -0.073 C 
ATOM     22  C   UNL     1      -3.372 -12.126  19.284  0.00  0.00    +0.039 C 
ENDROOT
BRANCH   9  13
ATOM     13  C   UNL     1      -7.082 -13.571  16.675  0.00  0.00    -0.013 C 
ATOM     18  C   UNL     1      -8.230 -14.286  17.380  0.00  0.00    +0.007 C 
ATOM     19  C   UNL     1      -7.145 -13.800  15.169  0.00  0.00    +0.007 C 
ENDBRANCH   9  13
BRANCH  10  14
ATOM     14  C   UNL     1      -7.782 -10.439  18.830  0.00  0.00    +0.092 C 
BRANCH  14   4
ATOM      4  N   UNL     1      -8.922 -10.161  17.959  0.00  0.00    -0.299 NA
ATOM      5  N   UNL     1     -11.198  -8.589  17.119  0.00  0.00    -0.303 NA
ATOM     20  C   UNL     1      -8.749  -8.878  17.267  0.00  0.00    +0.100 C 
ATOM     21  C   UNL     1     -10.176 -10.166  18.724  0.00  0.00    +0.100 C 
ATOM     23  C   UNL     1      -9.945  -8.585  16.355  0.00  0.00    +0.099 C 
ATOM     24  C   UNL     1     -11.371  -9.871  17.812  0.00  0.00    +0.099 C 
ATOM     26  C   UNL     1     -12.338  -8.312  16.247  0.00  0.00    +0.105 C 
ENDBRANCH  14   4
ENDBRANCH  10  14
BRANCH  12  17
ATOM     17  C   UNL     1      -3.497 -10.725  16.599  0.00  0.00    +0.105 C 
BRANCH  17  25
ATOM      1  O   UNL     1      -3.615 -10.816  14.163  0.00  0.00    -0.420 OA
ATOM      6  N   UNL     1      -1.722 -11.644  15.020  0.00  0.00    -0.112 NA
ATOM      7  N   UNL     1      -1.653 -11.757  13.644  0.00  0.00    -0.107 NA
ATOM     25  C   UNL     1      -2.883 -11.089  15.278  0.00  0.00    +0.218 A 
ATOM     27  C   UNL     1      -2.779 -11.262  13.186  0.00  0.00    +0.248 A 
BRANCH  27  28
ATOM     28  C   UNL     1      -3.255 -11.121  11.841  0.00  0.00    +0.039 A 
ATOM     29  C   UNL     1      -3.796 -12.220  11.174  0.00  0.00    +0.015 A 
ATOM     30  C   UNL     1      -3.176  -9.886  11.198  0.00  0.00    +0.015 A 
ATOM     31  C   UNL     1      -4.260 -12.084   9.865  0.00  0.00    +0.033 A 
ATOM     32  C   UNL     1      -3.639  -9.749   9.890  0.00  0.00    +0.033 A 
ATOM     33  C   UNL     1      -4.181 -10.847   9.223  0.00  0.00    +0.126 A 
BRANCH  33   8
ATOM      2  O   UNL     1      -5.239  -9.648   7.562  0.00  0.00    -0.126 OA
ATOM      3  O   UNL     1      -4.475 -11.649   7.081  0.00  0.00    -0.126 OA
ATOM      8  N   UNL     1      -4.654 -10.708   7.892  0.00  0.00    +0.056 N 
ENDBRANCH  33   8
ENDBRANCH  27  28
ENDBRANCH  17  25
ENDBRANCH  12  17
TORSDOF 7
ENDMDL
MODEL 6
REMARK VINA RESULT:      -6.5     27.820     30.590
REMARK  Name = 45783988
REMARK  11 active torsions:
REMARK  status: ('A' for Active; 'I' for Inactive)
REMARK    1  A    between atoms: N_4  and  C_14
REMARK    2  A    between atoms: N_5  and  C_26
REMARK    3  A    between atoms: N_8  and  C_33
REMARK    4  A    between atoms: C_9  and  C_13
REMARK    5  A    between atoms: C_10  and  C_14
REMARK    6  A    between atoms: C_12  and  C_17
REMARK    7  A    between atoms: C_13  and  C_18
REMARK    8  A    between atoms: C_13  and  C_19
REMARK    9  A    between atoms: C_16  and  C_22
REMARK   10  A    between atoms: C_17  and  C_25
REMARK   11  A    between atoms: C_27  and  C_28
REMARK                            x       y       z     vdW  Elec       q    Type
REMARK                         _______ _______ _______ _____ _____    ______ ____
ROOT
ATOM      9  C   UNL     1      -3.889 -10.101  11.629  0.00  0.00    +0.000 C 
ATOM     10  C   UNL     1      -5.049 -11.090  11.370  0.00  0.00    +0.029 C 
ATOM     11  C   UNL     1      -2.945 -10.649  12.708  0.00  0.00    +0.012 C 
ATOM     12  C   UNL     1      -2.368 -12.039  12.367  0.00  0.00    +0.024 C 
ATOM     15  C   UNL     1      -4.582 -12.521  11.284  0.00  0.00    -0.023 C 
ATOM     16  C   UNL     1      -3.385 -12.962  11.712  0.00  0.00    -0.073 C 
ATOM     22  C   UNL     1      -2.986 -14.396  11.498  0.00  0.00    +0.039 C 
ENDROOT
BRANCH   9  13
ATOM     13  C   UNL     1      -3.127  -9.782  10.334  0.00  0.00    -0.013 C 
ATOM     18  C   UNL     1      -4.018  -9.007   9.369  0.00  0.00    +0.007 C 
ATOM     19  C   UNL     1      -1.856  -8.999  10.645  0.00  0.00    +0.007 C 
ENDBRANCH   9  13
BRANCH  10  14
ATOM     14  C   UNL     1      -6.137 -10.979  12.443  0.00  0.00    +0.092 C 
BRANCH  14   4
ATOM      4  N   UNL     1      -7.454 -10.823  11.829  0.00  0.00    -0.299 NA
ATOM      5  N   UNL     1      -9.580  -9.254  10.657  0.00  0.00    -0.303 NA
ATOM     20  C   UNL     1      -7.337 -10.272  10.474  0.00  0.00    +0.100 C 
ATOM     21  C   UNL     1      -8.316  -9.969  12.656  0.00  0.00    +0.100 C 
ATOM     23  C   UNL     1      -8.718 -10.107   9.831  0.00  0.00    +0.099 C 
ATOM     24  C   UNL     1      -9.697  -9.803  12.013  0.00  0.00    +0.099 C 
ATOM     26  C   UNL     1     -10.898  -9.100  10.043  0.00  0.00    +0.105 C 
ENDBRANCH  14   4
ENDBRANCH  10  14
BRANCH  12  17
ATOM     17  C   UNL     1      -1.750 -12.638  13.636  0.00  0.00    +0.105 C 
BRANCH  17  25
ATOM      1  O   UNL     1      -3.480 -11.961  15.219  0.00  0.00    -0.420 OA
ATOM      6  N   UNL     1      -1.453 -11.125  15.663  0.00  0.00    -0.112 NA
ATOM      7  N   UNL     1      -2.325 -10.665  16.631  0.00  0.00    -0.107 NA
ATOM     25  C   UNL     1      -2.168 -11.878  14.861  0.00  0.00    +0.218 A 
ATOM     27  C   UNL     1      -3.496 -11.177  16.332  0.00  0.00    +0.248 A 
BRANCH  27  28
ATOM     28  C   UNL     1      -4.766 -11.041  16.984  0.00  0.00    +0.039 A 
ATOM     29  C   UNL     1      -4.826 -10.887  18.369  0.00  0.00    +0.015 A 
ATOM     30  C   UNL     1      -5.942 -11.063  16.233  0.00  0.00    +0.015 A 
ATOM     31  C   UNL     1      -6.061 -10.755  19.004  0.00  0.00    +0.033 A 
ATOM     32  C   UNL     1      -7.176 -10.931  16.868  0.00  0.00    +0.033 A 
ATOM     33  C   UNL     1      -7.237 -10.777  18.252  0.00  0.00    +0.126 A 
BRANCH  33   8
ATOM      2  O   UNL     1      -9.395  -9.968  18.341  0.00  0.00    -0.126 OA
ATOM      3  O   UNL     1      -8.670 -11.198  20.009  0.00  0.00    -0.126 OA
ATOM      8  N   UNL     1      -8.494 -10.641  18.898  0.00  0.00    +0.056 N 
ENDBRANCH  33   8
ENDBRANCH  27  28
ENDBRANCH  17  25
ENDBRANCH  12  17
TORSDOF 7
ENDMDL
MODEL 7
REMARK VINA RESULT:      -6.5     28.613     31.144
REMARK  Name = 45783988
REMARK  11 active torsions:
REMARK  status: ('A' for Active; 'I' for Inactive)
REMARK    1  A    between atoms: N_4  and  C_14
REMARK    2  A    between atoms: N_5  and  C_26
REMARK    3  A    between atoms: N_8  and  C_33
REMARK    4  A    between atoms: C_9  and  C_13
REMARK    5  A    between atoms: C_10  and  C_14
REMARK    6  A    between atoms: C_12  and  C_17
REMARK    7  A    between atoms: C_13  and  C_18
REMARK    8  A    between atoms: C_13  and  C_19
REMARK    9  A    between atoms: C_16  and  C_22
REMARK   10  A    between atoms: C_17  and  C_25
REMARK   11  A    between atoms: C_27  and  C_28
REMARK                            x       y       z     vdW  Elec       q    Type
REMARK                         _______ _______ _______ _____ _____    ______ ____
ROOT
ATOM      9  C   UNL     1      -7.483 -12.061  17.244  0.00  0.00    +0.000 C 
ATOM     10  C   UNL     1      -7.484 -12.015  18.790  0.00  0.00    +0.029 C 
ATOM     11  C   UNL     1      -6.363 -11.176  16.680  0.00  0.00    +0.012 C 
ATOM     12  C   UNL     1      -4.962 -11.554  17.204  0.00  0.00    +0.024 C 
ATOM     15  C   UNL     1      -6.097 -12.119  19.372  0.00  0.00    -0.023 C 
ATOM     16  C   UNL     1      -4.959 -11.928  18.679  0.00  0.00    -0.073 C 
ATOM     22  C   UNL     1      -3.625 -12.142  19.339  0.00  0.00    +0.039 C 
ENDROOT
BRANCH   9  13
ATOM     13  C   UNL     1      -7.366 -13.502  16.727  0.00  0.00    -0.013 C 
ATOM     18  C   UNL     1      -8.409 -14.393  17.394  0.00  0.00    +0.007 C 
ATOM     19  C   UNL     1      -7.515 -13.536  15.210  0.00  0.00    +0.007 C 
ENDBRANCH   9  13
BRANCH  10  14
ATOM     14  C   UNL     1      -8.158 -10.745  19.318  0.00  0.00    +0.092 C 
BRANCH  14   4
ATOM      4  N   UNL     1      -9.397 -11.072  20.021  0.00  0.00    -0.299 NA
ATOM      5  N   UNL     1     -12.033 -12.248  20.183  0.00  0.00    -0.303 NA
ATOM     20  C   UNL     1      -9.580 -12.526  20.107  0.00  0.00    +0.100 C 
ATOM     21  C   UNL     1     -10.551 -10.449  19.360  0.00  0.00    +0.100 C 
ATOM     23  C   UNL     1     -10.879 -12.869  20.843  0.00  0.00    +0.099 C 
ATOM     24  C   UNL     1     -11.851 -10.794  20.095  0.00  0.00    +0.099 C 
ATOM     26  C   UNL     1     -13.271 -12.574  20.888  0.00  0.00    +0.105 C 
ENDBRANCH  14   4
ENDBRANCH  10  14
BRANCH  12  17
ATOM     17  C   UNL     1      -3.992 -10.412  16.878  0.00  0.00    +0.105 C 
BRANCH  17  25
ATOM      1  O   UNL     1      -3.909 -10.603  14.446  0.00  0.00    -0.420 OA
ATOM      6  N   UNL     1      -1.959 -11.010  15.465  0.00  0.00    -0.112 NA
ATOM      7  N   UNL     1      -1.767 -11.151  14.104  0.00  0.00    -0.107 NA
ATOM     25  C   UNL     1      -3.222 -10.689  15.619  0.00  0.00    +0.218 A 
ATOM     27  C   UNL     1      -2.931 -10.906  13.549  0.00  0.00    +0.248 A 
BRANCH  27  28
ATOM     28  C   UNL     1      -3.324 -10.906  12.170  0.00  0.00    +0.039 A 
ATOM     29  C   UNL     1      -3.528 -12.115  11.503  0.00  0.00    +0.015 A 
ATOM     30  C   UNL     1      -3.502  -9.699  11.495  0.00  0.00    +0.015 A 
ATOM     31  C   UNL     1      -3.911 -12.116  10.162  0.00  0.00    +0.033 A 
ATOM     32  C   UNL     1      -3.884  -9.700  10.154  0.00  0.00    +0.033 A 
ATOM     33  C   UNL     1      -4.089 -10.907   9.487  0.00  0.00    +0.126 A 
BRANCH  33   8
ATOM      2  O   UNL     1      -5.000  -9.874   7.637  0.00  0.00    -0.126 OA
ATOM      3  O   UNL     1      -4.295 -11.944   7.438  0.00  0.00    -0.126 OA
ATOM      8  N   UNL     1      -4.480 -10.908   8.122  0.00  0.00    +0.056 N 
ENDBRANCH  33   8
ENDBRANCH  27  28
ENDBRANCH  17  25
ENDBRANCH  12  17
TORSDOF 7
ENDMDL
MODEL 8
REMARK VINA RESULT:      -6.4     15.112     19.457
REMARK  Name = 45783988
REMARK  11 active torsions:
REMARK  status: ('A' for Active; 'I' for Inactive)
REMARK    1  A    between atoms: N_4  and  C_14
REMARK    2  A    between atoms: N_5  and  C_26
REMARK    3  A    between atoms: N_8  and  C_33
REMARK    4  A    between atoms: C_9  and  C_13
REMARK    5  A    between atoms: C_10  and  C_14
REMARK    6  A    between atoms: C_12  and  C_17
REMARK    7  A    between atoms: C_13  and  C_18
REMARK    8  A    between atoms: C_13  and  C_19
REMARK    9  A    between atoms: C_16  and  C_22
REMARK   10  A    between atoms: C_17  and  C_25
REMARK   11  A    between atoms: C_27  and  C_28
REMARK                            x       y       z     vdW  Elec       q    Type
REMARK                         _______ _______ _______ _____ _____    ______ ____
ROOT
ATOM      9  C   UNL     1      13.951   5.616   1.965  0.00  0.00    +0.000 C 
ATOM     10  C   UNL     1      14.031   7.134   1.680  0.00  0.00    +0.029 C 
ATOM     11  C   UNL     1      12.491   5.178   2.143  0.00  0.00    +0.012 C 
ATOM     12  C   UNL     1      11.597   5.521   0.932  0.00  0.00    +0.024 C 
ATOM     15  C   UNL     1      12.996   7.591   0.683  0.00  0.00    -0.023 C 
ATOM     16  C   UNL     1      11.910   6.881   0.328  0.00  0.00    -0.073 C 
ATOM     22  C   UNL     1      10.987   7.394  -0.743  0.00  0.00    +0.039 C 
ENDROOT
BRANCH   9  13
ATOM     13  C   UNL     1      14.643   4.803   0.862  0.00  0.00    -0.013 C 
ATOM     18  C   UNL     1      15.782   5.608   0.243  0.00  0.00    +0.007 C 
ATOM     19  C   UNL     1      15.157   3.480   1.420  0.00  0.00    +0.007 C 
ENDBRANCH   9  13
BRANCH  10  14
ATOM     14  C   UNL     1      13.892   7.958   2.964  0.00  0.00    +0.092 C 
BRANCH  14   4
ATOM      4  N   UNL     1      15.179   8.536   3.348  0.00  0.00    -0.299 NA
ATOM      5  N   UNL     1      18.064   8.512   3.523  0.00  0.00    -0.303 NA
ATOM     20  C   UNL     1      16.016   8.777   2.167  0.00  0.00    +0.100 C 
ATOM     21  C   UNL     1      15.876   7.666   4.303  0.00  0.00    +0.100 C 
ATOM     23  C   UNL     1      17.365   9.382   2.569  0.00  0.00    +0.099 C 
ATOM     24  C   UNL     1      17.226   8.270   4.704  0.00  0.00    +0.099 C 
ATOM     26  C   UNL     1      19.349   9.092   3.909  0.00  0.00    +0.105 C 
ENDBRANCH  14   4
ENDBRANCH  10  14
BRANCH  12  17
ATOM     17  C   UNL     1      10.129   5.378   1.351  0.00  0.00    +0.105 C 
BRANCH  17  25
ATOM      1  O   UNL     1       9.863   5.469   3.775  0.00  0.00    -0.420 OA
ATOM      6  N   UNL     1       9.550   7.430   2.745  0.00  0.00    -0.112 NA
ATOM      7  N   UNL     1       9.371   7.628   4.101  0.00  0.00    -0.107 NA
ATOM     25  C   UNL     1       9.836   6.158   2.600  0.00  0.00    +0.218 A 
ATOM     27  C   UNL     1       9.563   6.457   4.663  0.00  0.00    +0.248 A 
BRANCH  27  28
ATOM     28  C   UNL     1       9.506   6.065   6.041  0.00  0.00    +0.039 A 
ATOM     29  C   UNL     1       9.829   4.759   6.408  0.00  0.00    +0.015 A 
ATOM     30  C   UNL     1       9.128   6.990   7.014  0.00  0.00    +0.015 A 
ATOM     31  C   UNL     1       9.774   4.377   7.749  0.00  0.00    +0.033 A 
ATOM     32  C   UNL     1       9.073   6.609   8.354  0.00  0.00    +0.033 A 
ATOM     33  C   UNL     1       9.396   5.303   8.722  0.00  0.00    +0.126 A 
BRANCH  33   8
ATOM      2  O   UNL     1       8.223   4.721  10.621  0.00  0.00    -0.126 OA
ATOM      3  O   UNL     1      10.416   4.777  10.723  0.00  0.00    -0.126 OA
ATOM      8  N   UNL     1       9.342   4.915  10.087  0.00  0.00    +0.056 N 
ENDBRANCH  33   8
ENDBRANCH  27  28
ENDBRANCH  17  25
ENDBRANCH  12  17
TORSDOF 7
ENDMDL
MODEL 9
REMARK VINA RESULT:      -6.3     13.559     17.073
REMARK  Name = 45783988
REMARK  11 active torsions:
REMARK  status: ('A' for Active; 'I' for Inactive)
REMARK    1  A    between atoms: N_4  and  C_14
REMARK    2  A    between atoms: N_5  and  C_26
REMARK    3  A    between atoms: N_8  and  C_33
REMARK    4  A    between atoms: C_9  and  C_13
REMARK    5  A    between atoms: C_10  and  C_14
REMARK    6  A    between atoms: C_12  and  C_17
REMARK    7  A    between atoms: C_13  and  C_18
REMARK    8  A    between atoms: C_13  and  C_19
REMARK    9  A    between atoms: C_16  and  C_22
REMARK   10  A    between atoms: C_17  and  C_25
REMARK   11  A    between atoms: C_27  and  C_28
REMARK                            x       y       z     vdW  Elec       q    Type
REMARK                         _______ _______ _______ _____ _____    ______ ____
ROOT
ATOM      9  C   UNL     1       9.966  11.497   4.194  0.00  0.00    +0.000 C 
ATOM     10  C   UNL     1       9.101  11.511   5.476  0.00  0.00    +0.029 C 
ATOM     11  C   UNL     1       9.638  10.268   3.336  0.00  0.00    +0.012 C 
ATOM     12  C   UNL     1       8.147  10.172   2.949  0.00  0.00    +0.024 C 
ATOM     15  C   UNL     1       7.659  11.164   5.204  0.00  0.00    -0.023 C 
ATOM     16  C   UNL     1       7.212  10.577   4.078  0.00  0.00    -0.073 C 
ATOM     22  C   UNL     1       5.739  10.355   3.874  0.00  0.00    +0.039 C 
ENDROOT
BRANCH   9  13
ATOM     13  C   UNL     1       9.797  12.795   3.391  0.00  0.00    -0.013 C 
ATOM     18  C   UNL     1      10.359  13.980   4.171  0.00  0.00    +0.007 C 
ATOM     19  C   UNL     1      10.477  12.671   2.032  0.00  0.00    +0.007 C 
ENDBRANCH   9  13
BRANCH  10  14
ATOM     14  C   UNL     1       9.655  10.562   6.542  0.00  0.00    +0.092 C 
BRANCH  14   4
ATOM      4  N   UNL     1      10.042  11.302   7.742  0.00  0.00    -0.299 NA
ATOM      5  N   UNL     1       9.469  12.938  10.055  0.00  0.00    -0.303 NA
ATOM     20  C   UNL     1       9.395  10.738   8.934  0.00  0.00    +0.100 C 
ATOM     21  C   UNL     1       9.712  12.726   7.605  0.00  0.00    +0.100 C 
ATOM     23  C   UNL     1       9.799  11.515  10.191  0.00  0.00    +0.099 C 
ATOM     24  C   UNL     1      10.114  13.502   8.863  0.00  0.00    +0.099 C 
ATOM     26  C   UNL     1       9.858  13.678  11.254  0.00  0.00    +0.105 C 
ENDBRANCH  14   4
ENDBRANCH  10  14
BRANCH  12  17
ATOM     17  C   UNL     1       7.868   8.759   2.422  0.00  0.00    +0.105 C 
BRANCH  17  25
ATOM      1  O   UNL     1       8.460   7.549   4.457  0.00  0.00    -0.420 OA
ATOM      6  N   UNL     1       9.661   6.966   2.662  0.00  0.00    -0.112 NA
ATOM      7  N   UNL     1      10.098   6.209   3.732  0.00  0.00    -0.107 NA
ATOM     25  C   UNL     1       8.705   7.733   3.130  0.00  0.00    +0.218 A 
ATOM     27  C   UNL     1       9.370   6.583   4.758  0.00  0.00    +0.248 A 
BRANCH  27  28
ATOM     28  C   UNL     1       9.384   6.139   6.121  0.00  0.00    +0.039 A 
ATOM     29  C   UNL     1       9.002   7.009   7.143  0.00  0.00    +0.015 A 
ATOM     30  C   UNL     1       9.781   4.836   6.427  0.00  0.00    +0.015 A 
ATOM     31  C   UNL     1       9.015   6.577   8.469  0.00  0.00    +0.033 A 
ATOM     32  C   UNL     1       9.794   4.405   7.753  0.00  0.00    +0.033 A 
ATOM     33  C   UNL     1       9.412   5.274   8.774  0.00  0.00    +0.126 A 
BRANCH  33   8
ATOM      2  O   UNL     1      10.509   4.832  10.754  0.00  0.00    -0.126 OA
ATOM      3  O   UNL     1       8.348   4.459  10.651  0.00  0.00    -0.126 OA
ATOM      8  N   UNL     1       9.424   4.834  10.124  0.00  0.00    +0.056 N 
ENDBRANCH  33   8
ENDBRANCH  27  28
ENDBRANCH  17  25
ENDBRANCH  12  17
TORSDOF 7
ENDMDL
MODEL 10
REMARK VINA RESULT:      -6.3     28.469     31.700
REMARK  Name = 45783988
REMARK  11 active torsions:
REMARK  status: ('A' for Active; 'I' for Inactive)
REMARK    1  A    between atoms: N_4  and  C_14
REMARK    2  A    between atoms: N_5  and  C_26
REMARK    3  A    between atoms: N_8  and  C_33
REMARK    4  A    between atoms: C_9  and  C_13
REMARK    5  A    between atoms: C_10  and  C_14
REMARK    6  A    between atoms: C_12  and  C_17
REMARK    7  A    between atoms: C_13  and  C_18
REMARK    8  A    between atoms: C_13  and  C_19
REMARK    9  A    between atoms: C_16  and  C_22
REMARK   10  A    between atoms: C_17  and  C_25
REMARK   11  A    between atoms: C_27  and  C_28
REMARK                            x       y       z     vdW  Elec       q    Type
REMARK                         _______ _______ _______ _____ _____    ______ ____
ROOT
ATOM      9  C   UNL     1      -5.167 -12.932   9.853  0.00  0.00    +0.000 C 
ATOM     10  C   UNL     1      -5.099 -12.375   8.412  0.00  0.00    +0.029 C 
ATOM     11  C   UNL     1      -4.031 -12.354  10.708  0.00  0.00    +0.012 C 
ATOM     12  C   UNL     1      -4.023 -10.811  10.754  0.00  0.00    +0.024 C 
ATOM     15  C   UNL     1      -4.829 -10.892   8.377  0.00  0.00    -0.023 C 
ATOM     16  C   UNL     1      -4.360 -10.174   9.414  0.00  0.00    -0.073 C 
ATOM     22  C   UNL     1      -4.210  -8.683   9.296  0.00  0.00    +0.039 C 
ENDROOT
BRANCH   9  13
ATOM     13  C   UNL     1      -6.536 -12.659  10.494  0.00  0.00    -0.013 C 
ATOM     18  C   UNL     1      -7.651 -13.248   9.635  0.00  0.00    +0.007 C 
ATOM     19  C   UNL     1      -6.584 -13.229  11.907  0.00  0.00    +0.007 C 
ENDBRANCH   9  13
BRANCH  10  14
ATOM     14  C   UNL     1      -4.040 -13.100   7.576  0.00  0.00    +0.092 C 
BRANCH  14   4
ATOM      4  N   UNL     1      -4.380 -13.048   6.155  0.00  0.00    -0.299 NA
ATOM      5  N   UNL     1      -3.990 -13.779   3.386  0.00  0.00    -0.303 NA
ATOM     20  C   UNL     1      -4.750 -14.379   5.658  0.00  0.00    +0.100 C 
ATOM     21  C   UNL     1      -3.264 -12.501   5.373  0.00  0.00    +0.100 C 
ATOM     23  C   UNL     1      -5.104 -14.325   4.168  0.00  0.00    +0.099 C 
ATOM     24  C   UNL     1      -3.618 -12.449   3.882  0.00  0.00    +0.099 C 
ATOM     26  C   UNL     1      -4.331 -13.726   1.965  0.00  0.00    +0.105 C 
ENDBRANCH  14   4
ENDBRANCH  10  14
BRANCH  12  17
ATOM     17  C   UNL     1      -2.673 -10.344  11.312  0.00  0.00    +0.105 C 
BRANCH  17  25
ATOM      1  O   UNL     1      -3.642 -10.448  13.550  0.00  0.00    -0.420 OA
ATOM      6  N   UNL     1      -1.514 -11.128  13.440  0.00  0.00    -0.112 NA
ATOM      7  N   UNL     1      -1.931 -11.240  14.753  0.00  0.00    -0.107 NA
ATOM     25  C   UNL     1      -2.544 -10.664  12.774  0.00  0.00    +0.218 A 
ATOM     27  C   UNL     1      -3.178 -10.832  14.770  0.00  0.00    +0.248 A 
BRANCH  27  28
ATOM     28  C   UNL     1      -4.110 -10.731  15.855  0.00  0.00    +0.039 A 
ATOM     29  C   UNL     1      -3.801 -11.293  17.094  0.00  0.00    +0.015 A 
ATOM     30  C   UNL     1      -5.325 -10.071  15.672  0.00  0.00    +0.015 A 
ATOM     31  C   UNL     1      -4.707 -11.194  18.151  0.00  0.00    +0.033 A 
ATOM     32  C   UNL     1      -6.231  -9.972  16.728  0.00  0.00    +0.033 A 
ATOM     33  C   UNL     1      -5.923 -10.533  17.966  0.00  0.00    +0.126 A 
BRANCH  33   8
ATOM      2  O   UNL     1      -8.074 -10.491  18.798  0.00  0.00    -0.126 OA
ATOM      3  O   UNL     1      -6.404 -10.285  20.208  0.00  0.00    -0.126 OA
ATOM      8  N   UNL     1      -6.844 -10.431  19.042  0.00  0.00    +0.056 N 
ENDBRANCH  33   8
ENDBRANCH  27  28
ENDBRANCH  17  25
ENDBRANCH  12  17
TORSDOF 7
ENDMDL
