MODEL 1
REMARK VINA RESULT:      -6.6      0.000      0.000
REMARK  Name = 45784012
REMARK  5 active torsions:
REMARK  status: ('A' for Active; 'I' for Inactive)
REMARK    1  A    between atoms: O_2  and  C_14
REMARK    2  A    between atoms: O_2  and  C_20
REMARK    3  A    between atoms: C_6  and  C_10
REMARK    4  A    between atoms: C_11  and  C_14
REMARK    5  A    between atoms: C_17  and  C_19
REMARK                            x       y       z     vdW  Elec       q    Type
REMARK                         _______ _______ _______ _____ _____    ______ ____
ROOT
ATOM      4  N   UNL     1      15.903   7.682  21.449  0.00  0.00    -0.342 N 
ATOM      5  N   UNL     1      15.338   6.599  19.592  0.00  0.00    -0.232 NA
ATOM     10  C   UNL     1      14.914   7.392  20.552  0.00  0.00    +0.113 A 
ATOM     12  C   UNL     1      17.041   7.033  21.042  0.00  0.00    +0.066 A 
ATOM     13  C   UNL     1      16.662   6.365  19.880  0.00  0.00    +0.089 A 
ATOM     15  C   UNL     1      18.331   6.975  21.573  0.00  0.00    +0.031 A 
ATOM     16  C   UNL     1      17.613   5.588  19.196  0.00  0.00    +0.030 A 
ATOM     17  C   UNL     1      19.264   6.198  20.878  0.00  0.00    -0.048 A 
ATOM     18  C   UNL     1      18.913   5.516  19.711  0.00  0.00    +0.005 A 
ATOM     19  C   UNL     1      20.660   6.097  21.397  0.00  0.00    +0.044 C 
ATOM     21  H   UNL     1      15.815   8.269  22.267  0.00  0.00    +0.167 HD
ENDROOT
BRANCH  10   6
ATOM      1  O   UNL     1      11.307   7.321  17.073  0.00  0.00    -0.273 OA
ATOM      3  N   UNL     1      12.529   8.521  18.623  0.00  0.00    -0.299 N 
ATOM      6  C   UNL     1      13.513   7.955  20.712  0.00  0.00    +0.074 C 
ATOM      7  C   UNL     1      13.496   9.483  20.550  0.00  0.00    +0.032 C 
ATOM      8  C   UNL     1      12.473   7.514  19.675  0.00  0.00    +0.119 C 
ATOM      9  C   UNL     1      13.283   9.693  19.055  0.00  0.00    +0.108 C 
ATOM     11  C   UNL     1      11.935   8.333  17.388  0.00  0.00    +0.241 C 
BRANCH  11  14
ATOM     14  C   UNL     1      12.092   9.470  16.412  0.00  0.00    +0.255 C 
BRANCH  14   2
ATOM      2  O   UNL     1      12.781   8.953  15.299  0.00  0.00    -0.374 OA
ATOM     20  C   UNL     1      14.196   9.002  15.473  0.00  0.00    +0.194 C 
ENDBRANCH  14   2
ENDBRANCH  11  14
ENDBRANCH  10   6
TORSDOF 3
ENDMDL
MODEL 2
REMARK VINA RESULT:      -6.4      1.458      2.209
REMARK  Name = 45784012
REMARK  5 active torsions:
REMARK  status: ('A' for Active; 'I' for Inactive)
REMARK    1  A    between atoms: O_2  and  C_14
REMARK    2  A    between atoms: O_2  and  C_20
REMARK    3  A    between atoms: C_6  and  C_10
REMARK    4  A    between atoms: C_11  and  C_14
REMARK    5  A    between atoms: C_17  and  C_19
REMARK                            x       y       z     vdW  Elec       q    Type
REMARK                         _______ _______ _______ _____ _____    ______ ____
ROOT
ATOM      4  N   UNL     1      16.088   6.175  19.130  0.00  0.00    -0.342 N 
ATOM      5  N   UNL     1      15.917   7.915  20.501  0.00  0.00    -0.232 NA
ATOM     10  C   UNL     1      15.297   7.184  19.602  0.00  0.00    +0.113 A 
ATOM     12  C   UNL     1      17.301   6.261  19.767  0.00  0.00    +0.066 A 
ATOM     13  C   UNL     1      17.168   7.354  20.618  0.00  0.00    +0.089 A 
ATOM     15  C   UNL     1      18.465   5.497  19.674  0.00  0.00    +0.031 A 
ATOM     16  C   UNL     1      18.252   7.724  21.432  0.00  0.00    +0.030 A 
ATOM     17  C   UNL     1      19.534   5.879  20.493  0.00  0.00    -0.048 A 
ATOM     18  C   UNL     1      19.431   6.972  21.356  0.00  0.00    +0.005 A 
ATOM     19  C   UNL     1      20.808   5.103  20.440  0.00  0.00    +0.044 C 
ATOM     21  H   UNL     1      15.830   5.487  18.436  0.00  0.00    +0.167 HD
ENDROOT
BRANCH  10   6
ATOM      1  O   UNL     1      13.989   8.504  14.947  0.00  0.00    -0.273 OA
ATOM      3  N   UNL     1      13.780   8.837  17.223  0.00  0.00    -0.299 N 
ATOM      6  C   UNL     1      13.878   7.377  19.097  0.00  0.00    +0.074 C 
ATOM      7  C   UNL     1      13.302   8.734  19.533  0.00  0.00    +0.032 C 
ATOM      8  C   UNL     1      13.690   7.425  17.576  0.00  0.00    +0.119 C 
ATOM      9  C   UNL     1      13.704   9.682  18.410  0.00  0.00    +0.108 C 
ATOM     11  C   UNL     1      13.930   9.262  15.916  0.00  0.00    +0.241 C 
BRANCH  11  14
ATOM     14  C   UNL     1      14.014  10.754  15.724  0.00  0.00    +0.255 C 
BRANCH  14   2
ATOM      2  O   UNL     1      13.338  11.046  14.525  0.00  0.00    -0.374 OA
ATOM     20  C   UNL     1      13.912  12.158  13.841  0.00  0.00    +0.194 C 
ENDBRANCH  14   2
ENDBRANCH  11  14
ENDBRANCH  10   6
TORSDOF 3
ENDMDL
MODEL 3
REMARK VINA RESULT:      -6.3      2.569      3.964
REMARK  Name = 45784012
REMARK  5 active torsions:
REMARK  status: ('A' for Active; 'I' for Inactive)
REMARK    1  A    between atoms: O_2  and  C_14
REMARK    2  A    between atoms: O_2  and  C_20
REMARK    3  A    between atoms: C_6  and  C_10
REMARK    4  A    between atoms: C_11  and  C_14
REMARK    5  A    between atoms: C_17  and  C_19
REMARK                            x       y       z     vdW  Elec       q    Type
REMARK                         _______ _______ _______ _____ _____    ______ ____
ROOT
ATOM      4  N   UNL     1      15.751   6.432  19.062  0.00  0.00    -0.342 N 
ATOM      5  N   UNL     1      15.687   8.289  20.280  0.00  0.00    -0.232 NA
ATOM     10  C   UNL     1      15.022   7.523  19.445  0.00  0.00    +0.113 A 
ATOM     12  C   UNL     1      16.968   6.500  19.692  0.00  0.00    +0.066 A 
ATOM     13  C   UNL     1      16.902   7.667  20.447  0.00  0.00    +0.089 A 
ATOM     15  C   UNL     1      18.085   5.664  19.667  0.00  0.00    +0.031 A 
ATOM     16  C   UNL     1      18.009   8.040  21.229  0.00  0.00    +0.030 A 
ATOM     17  C   UNL     1      19.177   6.050  20.452  0.00  0.00    -0.048 A 
ATOM     18  C   UNL     1      19.142   7.216  21.220  0.00  0.00    +0.005 A 
ATOM     19  C   UNL     1      20.403   5.197  20.468  0.00  0.00    +0.044 C 
ATOM     21  H   UNL     1      15.450   5.704  18.428  0.00  0.00    +0.167 HD
ENDROOT
BRANCH  10   6
ATOM      1  O   UNL     1      11.931  11.200  20.874  0.00  0.00    -0.273 OA
ATOM      3  N   UNL     1      12.267   8.950  20.475  0.00  0.00    -0.299 N 
ATOM      6  C   UNL     1      13.615   7.756  18.923  0.00  0.00    +0.074 C 
ATOM      7  C   UNL     1      12.605   6.795  19.571  0.00  0.00    +0.032 C 
ATOM      8  C   UNL     1      12.989   9.124  19.221  0.00  0.00    +0.119 C 
ATOM      9  C   UNL     1      12.139   7.538  20.818  0.00  0.00    +0.108 C 
ATOM     11  C   UNL     1      11.796  10.022  21.210  0.00  0.00    +0.241 C 
BRANCH  11  14
ATOM     14  C   UNL     1      11.076   9.670  22.486  0.00  0.00    +0.255 C 
BRANCH  14   2
ATOM      2  O   UNL     1      10.665  10.884  23.066  0.00  0.00    -0.374 OA
ATOM     20  C   UNL     1      11.132  11.026  24.406  0.00  0.00    +0.194 C 
ENDBRANCH  14   2
ENDBRANCH  11  14
ENDBRANCH  10   6
TORSDOF 3
ENDMDL
MODEL 4
REMARK VINA RESULT:      -6.0     26.081     27.479
REMARK  Name = 45784012
REMARK  5 active torsions:
REMARK  status: ('A' for Active; 'I' for Inactive)
REMARK    1  A    between atoms: O_2  and  C_14
REMARK    2  A    between atoms: O_2  and  C_20
REMARK    3  A    between atoms: C_6  and  C_10
REMARK    4  A    between atoms: C_11  and  C_14
REMARK    5  A    between atoms: C_17  and  C_19
REMARK                            x       y       z     vdW  Elec       q    Type
REMARK                         _______ _______ _______ _____ _____    ______ ____
ROOT
ATOM      4  N   UNL     1      -2.814 -11.717  15.922  0.00  0.00    -0.342 N 
ATOM      5  N   UNL     1      -4.100 -10.502  14.578  0.00  0.00    -0.232 NA
ATOM     10  C   UNL     1      -2.989 -11.198  14.670  0.00  0.00    +0.113 A 
ATOM     12  C   UNL     1      -3.883 -11.329  16.690  0.00  0.00    +0.066 A 
ATOM     13  C   UNL     1      -4.671 -10.573  15.827  0.00  0.00    +0.089 A 
ATOM     15  C   UNL     1      -4.218 -11.570  18.023  0.00  0.00    +0.031 A 
ATOM     16  C   UNL     1      -5.869 -10.013  16.307  0.00  0.00    +0.030 A 
ATOM     17  C   UNL     1      -5.413 -11.006  18.483  0.00  0.00    -0.048 A 
ATOM     18  C   UNL     1      -6.225 -10.241  17.642  0.00  0.00    +0.005 A 
ATOM     19  C   UNL     1      -5.826 -11.227  19.900  0.00  0.00    +0.044 C 
ATOM     21  H   UNL     1      -2.037 -12.286  16.231  0.00  0.00    +0.167 HD
ENDROOT
BRANCH  10   6
ATOM      1  O   UNL     1      -2.966  -8.991  10.171  0.00  0.00    -0.273 OA
ATOM      3  N   UNL     1      -2.851 -10.934  11.414  0.00  0.00    -0.299 N 
ATOM      6  C   UNL     1      -1.975 -11.440  13.566  0.00  0.00    +0.074 C 
ATOM      7  C   UNL     1      -2.263 -12.746  12.809  0.00  0.00    +0.032 C 
ATOM      8  C   UNL     1      -1.941 -10.413  12.427  0.00  0.00    +0.119 C 
ATOM      9  C   UNL     1      -3.206 -12.322  11.689  0.00  0.00    +0.108 C 
ATOM     11  C   UNL     1      -3.297 -10.163  10.357  0.00  0.00    +0.241 C 
BRANCH  11  14
ATOM     14  C   UNL     1      -4.239 -10.851   9.403  0.00  0.00    +0.255 C 
BRANCH  14   2
ATOM      2  O   UNL     1      -4.542  -9.920   8.393  0.00  0.00    -0.374 OA
ATOM     20  C   UNL     1      -5.268 -10.510   7.317  0.00  0.00    +0.194 C 
ENDBRANCH  14   2
ENDBRANCH  11  14
ENDBRANCH  10   6
TORSDOF 3
ENDMDL
MODEL 5
REMARK VINA RESULT:      -6.0      1.553      2.368
REMARK  Name = 45784012
REMARK  5 active torsions:
REMARK  status: ('A' for Active; 'I' for Inactive)
REMARK    1  A    between atoms: O_2  and  C_14
REMARK    2  A    between atoms: O_2  and  C_20
REMARK    3  A    between atoms: C_6  and  C_10
REMARK    4  A    between atoms: C_11  and  C_14
REMARK    5  A    between atoms: C_17  and  C_19
REMARK                            x       y       z     vdW  Elec       q    Type
REMARK                         _______ _______ _______ _____ _____    ______ ____
ROOT
ATOM      4  N   UNL     1      16.430   7.172  21.352  0.00  0.00    -0.342 N 
ATOM      5  N   UNL     1      17.132   9.238  21.769  0.00  0.00    -0.232 NA
ATOM     10  C   UNL     1      16.083   8.453  21.676  0.00  0.00    +0.113 A 
ATOM     12  C   UNL     1      17.796   7.127  21.227  0.00  0.00    +0.066 A 
ATOM     13  C   UNL     1      18.210   8.430  21.493  0.00  0.00    +0.089 A 
ATOM     15  C   UNL     1      18.677   6.091  20.915  0.00  0.00    +0.031 A 
ATOM     16  C   UNL     1      19.581   8.735  21.449  0.00  0.00    +0.030 A 
ATOM     17  C   UNL     1      20.038   6.413  20.876  0.00  0.00    -0.048 A 
ATOM     18  C   UNL     1      20.484   7.710  21.138  0.00  0.00    +0.005 A 
ATOM     19  C   UNL     1      21.031   5.347  20.548  0.00  0.00    +0.044 C 
ATOM     21  H   UNL     1      15.797   6.394  21.226  0.00  0.00    +0.167 HD
ENDROOT
BRANCH  10   6
ATOM      1  O   UNL     1      12.114   6.342  19.460  0.00  0.00    -0.273 OA
ATOM      3  N   UNL     1      13.263   8.262  20.032  0.00  0.00    -0.299 N 
ATOM      6  C   UNL     1      14.631   8.848  21.886  0.00  0.00    +0.074 C 
ATOM      7  C   UNL     1      14.269  10.115  21.094  0.00  0.00    +0.032 C 
ATOM      8  C   UNL     1      13.571   7.854  21.397  0.00  0.00    +0.119 C 
ATOM      9  C   UNL     1      13.806   9.584  19.742  0.00  0.00    +0.108 C 
ATOM     11  C   UNL     1      12.552   7.454  19.163  0.00  0.00    +0.241 C 
BRANCH  11  14
ATOM     14  C   UNL     1      12.325   8.022  17.787  0.00  0.00    +0.255 C 
BRANCH  14   2
ATOM      2  O   UNL     1      10.934   8.017  17.572  0.00  0.00    -0.374 OA
ATOM     20  C   UNL     1      10.572   8.699  16.373  0.00  0.00    +0.194 C 
ENDBRANCH  14   2
ENDBRANCH  11  14
ENDBRANCH  10   6
TORSDOF 3
ENDMDL
MODEL 6
REMARK VINA RESULT:      -5.9     13.416     16.665
REMARK  Name = 45784012
REMARK  5 active torsions:
REMARK  status: ('A' for Active; 'I' for Inactive)
REMARK    1  A    between atoms: O_2  and  C_14
REMARK    2  A    between atoms: O_2  and  C_20
REMARK    3  A    between atoms: C_6  and  C_10
REMARK    4  A    between atoms: C_11  and  C_14
REMARK    5  A    between atoms: C_17  and  C_19
REMARK                            x       y       z     vdW  Elec       q    Type
REMARK                         _______ _______ _______ _____ _____    ______ ____
ROOT
ATOM      4  N   UNL     1      10.066   4.933   4.758  0.00  0.00    -0.342 N 
ATOM      5  N   UNL     1       9.473   7.071   4.642  0.00  0.00    -0.232 NA
ATOM     10  C   UNL     1       9.865   6.021   3.956  0.00  0.00    +0.113 A 
ATOM     12  C   UNL     1       9.785   5.306   6.048  0.00  0.00    +0.066 A 
ATOM     13  C   UNL     1       9.417   6.645   5.948  0.00  0.00    +0.089 A 
ATOM     15  C   UNL     1       9.820   4.608   7.256  0.00  0.00    +0.031 A 
ATOM     16  C   UNL     1       9.059   7.345   7.114  0.00  0.00    +0.030 A 
ATOM     17  C   UNL     1       9.460   5.321   8.405  0.00  0.00    -0.048 A 
ATOM     18  C   UNL     1       9.086   6.665   8.337  0.00  0.00    +0.005 A 
ATOM     19  C   UNL     1       9.477   4.629   9.728  0.00  0.00    +0.044 C 
ATOM     21  H   UNL     1      10.368   4.016   4.458  0.00  0.00    +0.167 HD
ENDROOT
BRANCH  10   6
ATOM      1  O   UNL     1      12.963   2.862   1.601  0.00  0.00    -0.273 OA
ATOM      3  N   UNL     1      12.213   5.024   1.910  0.00  0.00    -0.299 N 
ATOM      6  C   UNL     1      10.091   5.949   2.456  0.00  0.00    +0.074 C 
ATOM      7  C   UNL     1      11.029   7.066   1.971  0.00  0.00    +0.032 C 
ATOM      8  C   UNL     1      10.793   4.693   1.927  0.00  0.00    +0.119 C 
ATOM      9  C   UNL     1      12.421   6.457   2.091  0.00  0.00    +0.108 C 
ATOM     11  C   UNL     1      13.193   4.063   1.751  0.00  0.00    +0.241 C 
BRANCH  11  14
ATOM     14  C   UNL     1      14.611   4.572   1.764  0.00  0.00    +0.255 C 
BRANCH  14   2
ATOM      2  O   UNL     1      15.401   3.583   1.149  0.00  0.00    -0.374 OA
ATOM     20  C   UNL     1      16.034   4.061  -0.036  0.00  0.00    +0.194 C 
ENDBRANCH  14   2
ENDBRANCH  11  14
ENDBRANCH  10   6
TORSDOF 3
ENDMDL
MODEL 7
REMARK VINA RESULT:      -5.7     25.728     27.541
REMARK  Name = 45784012
REMARK  5 active torsions:
REMARK  status: ('A' for Active; 'I' for Inactive)
REMARK    1  A    between atoms: O_2  and  C_14
REMARK    2  A    between atoms: O_2  and  C_20
REMARK    3  A    between atoms: C_6  and  C_10
REMARK    4  A    between atoms: C_11  and  C_14
REMARK    5  A    between atoms: C_17  and  C_19
REMARK                            x       y       z     vdW  Elec       q    Type
REMARK                         _______ _______ _______ _____ _____    ______ ____
ROOT
ATOM      4  N   UNL     1      -4.289 -10.235  15.257  0.00  0.00    -0.342 N 
ATOM      5  N   UNL     1      -3.329 -11.143  17.043  0.00  0.00    -0.232 NA
ATOM     10  C   UNL     1      -3.176 -10.833  15.775  0.00  0.00    +0.113 A 
ATOM     12  C   UNL     1      -5.225 -10.153  16.258  0.00  0.00    +0.066 A 
ATOM     13  C   UNL     1      -4.600 -10.726  17.362  0.00  0.00    +0.089 A 
ATOM     15  C   UNL     1      -6.523  -9.642  16.290  0.00  0.00    +0.031 A 
ATOM     16  C   UNL     1      -5.298 -10.804  18.580  0.00  0.00    +0.030 A 
ATOM     17  C   UNL     1      -7.202  -9.727  17.510  0.00  0.00    -0.048 A 
ATOM     18  C   UNL     1      -6.603 -10.297  18.636  0.00  0.00    +0.005 A 
ATOM     19  C   UNL     1      -8.595  -9.198  17.609  0.00  0.00    +0.044 C 
ATOM     21  H   UNL     1      -4.406  -9.909  14.307  0.00  0.00    +0.167 HD
ENDROOT
BRANCH  10   6
ATOM      1  O   UNL     1      -2.638  -9.572  10.954  0.00  0.00    -0.273 OA
ATOM      3  N   UNL     1      -2.458 -11.178  12.604  0.00  0.00    -0.299 N 
ATOM      6  C   UNL     1      -1.943 -11.079  14.923  0.00  0.00    +0.074 C 
ATOM      7  C   UNL     1      -1.869 -12.537  14.443  0.00  0.00    +0.032 C 
ATOM      8  C   UNL     1      -1.854 -10.304  13.603  0.00  0.00    +0.119 C 
ATOM      9  C   UNL     1      -2.634 -12.530  13.125  0.00  0.00    +0.108 C 
ATOM     11  C   UNL     1      -2.809 -10.728  11.345  0.00  0.00    +0.241 C 
BRANCH  11  14
ATOM     14  C   UNL     1      -3.428 -11.758  10.436  0.00  0.00    +0.255 C 
BRANCH  14   2
ATOM      2  O   UNL     1      -4.121 -11.049   9.437  0.00  0.00    -0.374 OA
ATOM     20  C   UNL     1      -5.534 -11.213   9.542  0.00  0.00    +0.194 C 
ENDBRANCH  14   2
ENDBRANCH  11  14
ENDBRANCH  10   6
TORSDOF 3
ENDMDL
MODEL 8
REMARK VINA RESULT:      -5.5     28.307     30.611
REMARK  Name = 45784012
REMARK  5 active torsions:
REMARK  status: ('A' for Active; 'I' for Inactive)
REMARK    1  A    between atoms: O_2  and  C_14
REMARK    2  A    between atoms: O_2  and  C_20
REMARK    3  A    between atoms: C_6  and  C_10
REMARK    4  A    between atoms: C_11  and  C_14
REMARK    5  A    between atoms: C_17  and  C_19
REMARK                            x       y       z     vdW  Elec       q    Type
REMARK                         _______ _______ _______ _____ _____    ______ ____
ROOT
ATOM      4  N   UNL     1       0.451   0.313  -5.631  0.00  0.00    -0.342 N 
ATOM      5  N   UNL     1      -0.083   1.922  -7.068  0.00  0.00    -0.232 NA
ATOM     10  C   UNL     1       0.749   1.554  -6.119  0.00  0.00    +0.113 A 
ATOM     12  C   UNL     1      -0.648  -0.150  -6.309  0.00  0.00    +0.066 A 
ATOM     13  C   UNL     1      -0.961   0.872  -7.201  0.00  0.00    +0.089 A 
ATOM     15  C   UNL     1      -1.372  -1.340  -6.223  0.00  0.00    +0.031 A 
ATOM     16  C   UNL     1      -2.059   0.716  -8.065  0.00  0.00    +0.030 A 
ATOM     17  C   UNL     1      -2.460  -1.479  -7.090  0.00  0.00    -0.048 A 
ATOM     18  C   UNL     1      -2.799  -0.471  -7.995  0.00  0.00    +0.005 A 
ATOM     19  C   UNL     1      -3.274  -2.730  -7.046  0.00  0.00    +0.044 C 
ATOM     21  H   UNL     1       0.948  -0.178  -4.900  0.00  0.00    +0.167 HD
ENDROOT
BRANCH  10   6
ATOM      1  O   UNL     1       0.625   6.371  -4.739  0.00  0.00    -0.273 OA
ATOM      3  N   UNL     1       1.657   4.690  -5.941  0.00  0.00    -0.299 N 
ATOM      6  C   UNL     1       1.920   2.355  -5.577  0.00  0.00    +0.074 C 
ATOM      7  C   UNL     1       2.864   2.810  -6.703  0.00  0.00    +0.032 C 
ATOM      8  C   UNL     1       1.585   3.684  -4.889  0.00  0.00    +0.119 C 
ATOM      9  C   UNL     1       2.296   4.155  -7.138  0.00  0.00    +0.108 C 
ATOM     11  C   UNL     1       1.158   5.969  -5.774  0.00  0.00    +0.241 C 
BRANCH  11  14
ATOM     14  C   UNL     1       1.306   6.884  -6.962  0.00  0.00    +0.255 C 
BRANCH  14   2
ATOM      2  O   UNL     1       1.963   8.040  -6.500  0.00  0.00    -0.374 OA
ATOM     20  C   UNL     1       3.381   7.884  -6.487  0.00  0.00    +0.194 C 
ENDBRANCH  14   2
ENDBRANCH  11  14
ENDBRANCH  10   6
TORSDOF 3
ENDMDL
MODEL 9
REMARK VINA RESULT:      -5.5     13.157     16.788
REMARK  Name = 45784012
REMARK  5 active torsions:
REMARK  status: ('A' for Active; 'I' for Inactive)
REMARK    1  A    between atoms: O_2  and  C_14
REMARK    2  A    between atoms: O_2  and  C_20
REMARK    3  A    between atoms: C_6  and  C_10
REMARK    4  A    between atoms: C_11  and  C_14
REMARK    5  A    between atoms: C_17  and  C_19
REMARK                            x       y       z     vdW  Elec       q    Type
REMARK                         _______ _______ _______ _____ _____    ______ ____
ROOT
ATOM      4  N   UNL     1      11.427   6.074   3.315  0.00  0.00    -0.342 N 
ATOM      5  N   UNL     1       9.552   6.644   2.268  0.00  0.00    -0.232 NA
ATOM     10  C   UNL     1      10.265   6.792   3.362  0.00  0.00    +0.113 A 
ATOM     12  C   UNL     1      11.467   5.419   2.111  0.00  0.00    +0.066 A 
ATOM     13  C   UNL     1      10.285   5.791   1.476  0.00  0.00    +0.089 A 
ATOM     15  C   UNL     1      12.406   4.559   1.540  0.00  0.00    +0.031 A 
ATOM     16  C   UNL     1      10.007   5.285   0.194  0.00  0.00    +0.030 A 
ATOM     17  C   UNL     1      12.114   4.065   0.264  0.00  0.00    -0.048 A 
ATOM     18  C   UNL     1      10.936   4.420  -0.398  0.00  0.00    +0.005 A 
ATOM     19  C   UNL     1      13.080   3.141  -0.400  0.00  0.00    +0.044 C 
ATOM     21  H   UNL     1      12.134   6.032   4.038  0.00  0.00    +0.167 HD
ENDROOT
BRANCH  10   6
ATOM      1  O   UNL     1      11.746   5.950   8.076  0.00  0.00    -0.273 OA
ATOM      3  N   UNL     1      10.028   6.402   6.600  0.00  0.00    -0.299 N 
ATOM      6  C   UNL     1       9.907   7.637   4.572  0.00  0.00    +0.074 C 
ATOM      7  C   UNL     1       8.487   7.334   5.074  0.00  0.00    +0.032 C 
ATOM      8  C   UNL     1      10.745   7.416   5.837  0.00  0.00    +0.119 C 
ATOM      9  C   UNL     1       8.683   6.200   6.072  0.00  0.00    +0.108 C 
ATOM     11  C   UNL     1      10.602   5.740   7.669  0.00  0.00    +0.241 C 
BRANCH  11  14
ATOM     14  C   UNL     1       9.727   4.716   8.345  0.00  0.00    +0.255 C 
BRANCH  14   2
ATOM      2  O   UNL     1       9.077   5.377   9.404  0.00  0.00    -0.374 OA
ATOM     20  C   UNL     1       8.757   4.491  10.475  0.00  0.00    +0.194 C 
ENDBRANCH  14   2
ENDBRANCH  11  14
ENDBRANCH  10   6
TORSDOF 3
ENDMDL
MODEL 10
REMARK VINA RESULT:      -5.4     14.184     17.187
REMARK  Name = 45784012
REMARK  5 active torsions:
REMARK  status: ('A' for Active; 'I' for Inactive)
REMARK    1  A    between atoms: O_2  and  C_14
REMARK    2  A    between atoms: O_2  and  C_20
REMARK    3  A    between atoms: C_6  and  C_10
REMARK    4  A    between atoms: C_11  and  C_14
REMARK    5  A    between atoms: C_17  and  C_19
REMARK                            x       y       z     vdW  Elec       q    Type
REMARK                         _______ _______ _______ _____ _____    ______ ____
ROOT
ATOM      4  N   UNL     1      10.225   6.325   3.738  0.00  0.00    -0.342 N 
ATOM      5  N   UNL     1      10.310   4.347   4.747  0.00  0.00    -0.232 NA
ATOM     10  C   UNL     1      10.386   4.976   3.596  0.00  0.00    +0.113 A 
ATOM     12  C   UNL     1      10.031   6.585   5.071  0.00  0.00    +0.066 A 
ATOM     13  C   UNL     1      10.089   5.334   5.679  0.00  0.00    +0.089 A 
ATOM     15  C   UNL     1       9.817   7.771   5.775  0.00  0.00    +0.031 A 
ATOM     16  C   UNL     1       9.925   5.242   7.072  0.00  0.00    +0.030 A 
ATOM     17  C   UNL     1       9.657   7.661   7.160  0.00  0.00    -0.048 A 
ATOM     18  C   UNL     1       9.709   6.420   7.799  0.00  0.00    +0.005 A 
ATOM     19  C   UNL     1       9.425   8.894   7.969  0.00  0.00    +0.044 C 
ATOM     21  H   UNL     1      10.245   7.012   2.996  0.00  0.00    +0.167 HD
ENDROOT
BRANCH  10   6
ATOM      1  O   UNL     1      14.726   3.096   1.937  0.00  0.00    -0.273 OA
ATOM      3  N   UNL     1      12.902   4.464   1.571  0.00  0.00    -0.299 N 
ATOM      6  C   UNL     1      10.621   4.348   2.233  0.00  0.00    +0.074 C 
ATOM      7  C   UNL     1      10.785   5.415   1.139  0.00  0.00    +0.032 C 
ATOM      8  C   UNL     1      11.904   3.524   2.068  0.00  0.00    +0.119 C 
ATOM      9  C   UNL     1      12.280   5.709   1.131  0.00  0.00    +0.108 C 
ATOM     11  C   UNL     1      14.252   4.166   1.553  0.00  0.00    +0.241 C 
BRANCH  11  14
ATOM     14  C   UNL     1      15.149   5.250   1.014  0.00  0.00    +0.255 C 
BRANCH  14   2
ATOM      2  O   UNL     1      15.995   4.640   0.069  0.00  0.00    -0.374 OA
ATOM     20  C   UNL     1      15.339   4.423  -1.179  0.00  0.00    +0.194 C 
ENDBRANCH  14   2
ENDBRANCH  11  14
ENDBRANCH  10   6
TORSDOF 3
ENDMDL
