REMARK  Name = 11911959
REMARK  2 active torsions:
REMARK  status: ('A' for Active; 'I' for Inactive)
REMARK    1  A    between atoms: C_16  and  C_19
REMARK    2  A    between atoms: C_17  and  C_20
REMARK                            x       y       z     vdW  Elec       q    Type
REMARK                         _______ _______ _______ _____ _____    ______ ____
ROOT
ATOM      3  O   UNL     1      -0.788   1.774  -1.484  0.00  0.00    -0.267 OA
ATOM      4  O   UNL     1       3.258  -1.043  -2.441  0.00  0.00    -0.269 OA
ATOM      5  N   UNL     1       3.793   0.157  -0.531  0.00  0.00    -0.296 N 
ATOM      6  N   UNL     1       1.074   1.690  -0.080  0.00  0.00    -0.311 N 
ATOM      7  C   UNL     1       3.368   2.595  -0.779  0.00  0.00    +0.027 C 
ATOM      8  C   UNL     1       3.091   1.522   1.419  0.00  0.00    +0.054 C 
ATOM      9  C   UNL     1       3.593   2.782   0.717  0.00  0.00    +0.018 C 
ATOM     10  C   UNL     1       1.860   2.480  -1.040  0.00  0.00    +0.130 C 
ATOM     11  C   UNL     1       4.139   1.362  -1.287  0.00  0.00    +0.113 C 
ATOM     12  C   UNL     1       3.898   0.301   0.931  0.00  0.00    +0.117 C 
ATOM     13  C   UNL     1       1.616   1.295   1.147  0.00  0.00    +0.027 A 
ATOM     14  C   UNL     1       0.848   0.675   2.057  0.00  0.00    +0.022 A 
ATOM     15  C   UNL     1      -0.270   1.437  -0.418  0.00  0.00    +0.260 A 
ATOM     16  C   UNL     1       3.322  -0.982  -1.212  0.00  0.00    +0.253 C 
ATOM     17  C   UNL     1      -1.092   0.712   0.611  0.00  0.00    +0.053 A 
ATOM     18  C   UNL     1      -0.530   0.380   1.782  0.00  0.00    +0.016 A 
ENDROOT
BRANCH  17  20
ATOM      1  S   UNL     1      -2.852  -1.110  -0.367  0.00  0.00    -0.088 S 
ATOM     20  C   UNL     1      -2.459   0.387   0.354  0.00  0.00    +0.026 A 
ATOM     21  C   UNL     1      -3.587   1.137   0.612  0.00  0.00    +0.024 A 
ATOM     23  C   UNL     1      -4.802   0.484   0.216  0.00  0.00    -0.010 A 
ATOM     24  C   UNL     1      -4.543  -0.771  -0.343  0.00  0.00    +0.020 A 
ATOM     27  C   UNL     1      -6.149   0.910   0.308  0.00  0.00    +0.009 A 
ATOM     28  C   UNL     1      -5.583  -1.600  -0.806  0.00  0.00    +0.015 A 
ATOM     29  C   UNL     1      -7.183   0.091  -0.151  0.00  0.00    +0.001 A 
ATOM     30  C   UNL     1      -6.901  -1.151  -0.702  0.00  0.00    +0.001 A 
ENDBRANCH  17  20
BRANCH  16  19
ATOM      2  S   UNL     1       4.004  -3.305   0.048  0.00  0.00    -0.092 S 
ATOM     19  C   UNL     1       2.874  -2.104  -0.400  0.00  0.00    +0.074 A 
ATOM     22  C   UNL     1       1.616  -2.360   0.089  0.00  0.00    +0.021 A 
ATOM     25  C   UNL     1       1.577  -3.566   0.847  0.00  0.00    +0.008 A 
ATOM     26  C   UNL     1       2.808  -4.181   0.904  0.00  0.00    +0.046 A 
ENDBRANCH  16  19
TORSDOF 2
