MODEL 1
REMARK VINA RESULT:      -6.5      0.000      0.000
REMARK  Name = 38027302
REMARK  11 active torsions:
REMARK  status: ('A' for Active; 'I' for Inactive)
REMARK    1  A    between atoms: N_3  and  C_15
REMARK    2  A    between atoms: N_4  and  C_14
REMARK    3  A    between atoms: C_6  and  C_10
REMARK    4  A    between atoms: C_7  and  C_14
REMARK    5  A    between atoms: C_9  and  C_13
REMARK    6  A    between atoms: C_10  and  C_16
REMARK    7  A    between atoms: C_10  and  C_17
REMARK    8  A    between atoms: C_11  and  C_20
REMARK    9  A    between atoms: C_13  and  C_21
REMARK   10  A    between atoms: C_24  and  C_25
REMARK   11  A    between atoms: C_30  and  C_31
REMARK                            x       y       z     vdW  Elec       q    Type
REMARK                         _______ _______ _______ _____ _____    ______ ____
ROOT
ATOM      6  C   UNL     1      13.113   9.196  20.076  0.00  0.00    +0.000 C 
ATOM      7  C   UNL     1      12.184   8.173  19.375  0.00  0.00    +0.032 C 
ATOM      8  C   UNL     1      12.933  10.592  19.462  0.00  0.00    +0.012 C 
ATOM      9  C   UNL     1      13.240  10.608  17.953  0.00  0.00    +0.023 C 
ATOM     11  C   UNL     1      12.568   9.459  17.229  0.00  0.00    -0.073 C 
ATOM     12  C   UNL     1      12.090   8.386  17.882  0.00  0.00    -0.022 C 
ATOM     20  C   UNL     1      12.416   9.594  15.739  0.00  0.00    +0.039 C 
ENDROOT
BRANCH   6  10
ATOM     10  C   UNL     1      12.856   9.255  21.585  0.00  0.00    -0.013 C 
ATOM     16  C   UNL     1      14.084   9.796  22.312  0.00  0.00    +0.007 C 
ATOM     17  C   UNL     1      11.631  10.113  21.883  0.00  0.00    +0.007 C 
ENDBRANCH   6  10
BRANCH   9  13
ATOM     13  C   UNL     1      14.751  10.610  17.696  0.00  0.00    +0.103 C 
BRANCH  13  21
ATOM      1  O   UNL     1      15.202  12.968  17.994  0.00  0.00    -0.276 OA
ATOM      3  N   UNL     1      16.339  11.412  19.293  0.00  0.00    -0.312 N 
ATOM     21  C   UNL     1      15.432  11.807  18.319  0.00  0.00    +0.214 C 
ATOM     32  H   UNL     1      16.426  10.425  19.516  0.00  0.00    +0.149 HD
BRANCH   3  15
ATOM     15  C   UNL     1      17.135  12.344  20.052  0.00  0.00    +0.073 C 
ATOM     18  C   UNL     1      18.622  12.031  19.946  0.00  0.00    +0.022 C 
ATOM     19  C   UNL     1      16.872  12.230  21.549  0.00  0.00    +0.022 C 
ATOM     22  C   UNL     1      18.854  10.920  20.966  0.00  0.00    +0.002 C 
ATOM     23  C   UNL     1      17.755  11.075  22.018  0.00  0.00    +0.002 C 
ENDBRANCH   3  15
ENDBRANCH  13  21
ENDBRANCH   9  13
BRANCH   7  14
ATOM     14  C   UNL     1      12.629   6.734  19.659  0.00  0.00    +0.112 C 
BRANCH  14   4
ATOM      2  O   UNL     1      14.961   6.887  17.989  0.00  0.00    -0.270 OA
ATOM      4  N   UNL     1      13.992   6.700  20.089  0.00  0.00    -0.311 N 
ATOM     24  C   UNL     1      15.070   6.780  19.207  0.00  0.00    +0.244 C 
ATOM     33  H   UNL     1      14.159   6.605  21.085  0.00  0.00    +0.149 HD
BRANCH  24  25
ATOM     25  C   UNL     1      16.424   6.704  19.811  0.00  0.00    +0.037 A 
ATOM     26  C   UNL     1      17.383   5.847  19.268  0.00  0.00    +0.014 A 
ATOM     27  C   UNL     1      16.740   7.489  20.920  0.00  0.00    +0.014 A 
ATOM     28  C   UNL     1      18.655   5.775  19.834  0.00  0.00    +0.019 A 
ATOM     29  C   UNL     1      18.013   7.416  21.486  0.00  0.00    +0.019 A 
ATOM     30  C   UNL     1      18.970   6.560  20.944  0.00  0.00    +0.052 A 
BRANCH  30  31
ATOM      5  N   UNL     1      21.332   6.425  21.996  0.00  0.00    -0.191 NA
ATOM     31  C   UNL     1      20.274   6.486  21.525  0.00  0.00    +0.099 C 
ENDBRANCH  30  31
ENDBRANCH  24  25
ENDBRANCH  14   4
ENDBRANCH   7  14
TORSDOF 8
ENDMDL
MODEL 2
REMARK VINA RESULT:      -6.4     27.075     30.185
REMARK  Name = 38027302
REMARK  11 active torsions:
REMARK  status: ('A' for Active; 'I' for Inactive)
REMARK    1  A    between atoms: N_3  and  C_15
REMARK    2  A    between atoms: N_4  and  C_14
REMARK    3  A    between atoms: C_6  and  C_10
REMARK    4  A    between atoms: C_7  and  C_14
REMARK    5  A    between atoms: C_9  and  C_13
REMARK    6  A    between atoms: C_10  and  C_16
REMARK    7  A    between atoms: C_10  and  C_17
REMARK    8  A    between atoms: C_11  and  C_20
REMARK    9  A    between atoms: C_13  and  C_21
REMARK   10  A    between atoms: C_24  and  C_25
REMARK   11  A    between atoms: C_30  and  C_31
REMARK                            x       y       z     vdW  Elec       q    Type
REMARK                         _______ _______ _______ _____ _____    ______ ____
ROOT
ATOM      6  C   UNL     1      -3.217 -12.122  12.415  0.00  0.00    +0.000 C 
ATOM      7  C   UNL     1      -2.134 -11.035  12.198  0.00  0.00    +0.032 C 
ATOM      8  C   UNL     1      -3.894 -12.479  11.083  0.00  0.00    +0.012 C 
ATOM      9  C   UNL     1      -4.556 -11.256  10.421  0.00  0.00    +0.023 C 
ATOM     11  C   UNL     1      -3.635 -10.053  10.411  0.00  0.00    -0.073 C 
ATOM     12  C   UNL     1      -2.550  -9.978  11.201  0.00  0.00    -0.022 C 
ATOM     20  C   UNL     1      -3.964  -8.957   9.436  0.00  0.00    +0.039 C 
ENDROOT
BRANCH   6  10
ATOM     10  C   UNL     1      -2.632 -13.386  13.055  0.00  0.00    -0.013 C 
ATOM     16  C   UNL     1      -3.489 -13.826  14.239  0.00  0.00    +0.007 C 
ATOM     17  C   UNL     1      -2.521 -14.502  12.023  0.00  0.00    +0.007 C 
ENDBRANCH   6  10
BRANCH   9  13
ATOM     13  C   UNL     1      -5.892 -10.919  11.093  0.00  0.00    +0.103 C 
BRANCH  13  21
ATOM      1  O   UNL     1      -8.117 -10.308  10.366  0.00  0.00    -0.276 OA
ATOM      3  N   UNL     1      -6.610 -11.181   8.828  0.00  0.00    -0.312 N 
ATOM     21  C   UNL     1      -7.009 -10.757  10.087  0.00  0.00    +0.214 C 
ATOM     32  H   UNL     1      -5.654 -11.499   8.693  0.00  0.00    +0.149 HD
BRANCH   3  15
ATOM     15  C   UNL     1      -7.473 -11.143   7.674  0.00  0.00    +0.073 C 
ATOM     18  C   UNL     1      -6.907 -11.960   6.520  0.00  0.00    +0.022 C 
ATOM     19  C   UNL     1      -7.568  -9.742   7.080  0.00  0.00    +0.022 C 
ATOM     22  C   UNL     1      -5.890 -11.036   5.856  0.00  0.00    +0.002 C 
ATOM     23  C   UNL     1      -6.340  -9.610   6.181  0.00  0.00    +0.002 C 
ENDBRANCH   3  15
ENDBRANCH  13  21
ENDBRANCH   9  13
BRANCH   7  14
ATOM     14  C   UNL     1      -1.748 -10.366  13.521  0.00  0.00    +0.112 C 
BRANCH  14   4
ATOM      2  O   UNL     1      -1.542 -10.786  16.355  0.00  0.00    -0.270 OA
ATOM      4  N   UNL     1      -2.827 -10.428  14.457  0.00  0.00    -0.311 N 
ATOM     24  C   UNL     1      -2.638 -10.637  15.822  0.00  0.00    +0.244 C 
ATOM     33  H   UNL     1      -3.765 -10.321  14.085  0.00  0.00    +0.149 HD
BRANCH  24  25
ATOM     25  C   UNL     1      -3.866 -10.703  16.656  0.00  0.00    +0.037 A 
ATOM     26  C   UNL     1      -5.033 -10.067  16.230  0.00  0.00    +0.014 A 
ATOM     27  C   UNL     1      -3.853 -11.399  17.865  0.00  0.00    +0.014 A 
ATOM     28  C   UNL     1      -6.186 -10.129  17.012  0.00  0.00    +0.019 A 
ATOM     29  C   UNL     1      -5.006 -11.460  18.647  0.00  0.00    +0.019 A 
ATOM     30  C   UNL     1      -6.172 -10.825  18.220  0.00  0.00    +0.052 A 
BRANCH  30  31
ATOM      5  N   UNL     1      -8.313 -10.938  19.673  0.00  0.00    -0.191 NA
ATOM     31  C   UNL     1      -7.354 -10.887  19.022  0.00  0.00    +0.099 C 
ENDBRANCH  30  31
ENDBRANCH  24  25
ENDBRANCH  14   4
ENDBRANCH   7  14
TORSDOF 8
ENDMDL
MODEL 3
REMARK VINA RESULT:      -6.4     27.070     30.038
REMARK  Name = 38027302
REMARK  11 active torsions:
REMARK  status: ('A' for Active; 'I' for Inactive)
REMARK    1  A    between atoms: N_3  and  C_15
REMARK    2  A    between atoms: N_4  and  C_14
REMARK    3  A    between atoms: C_6  and  C_10
REMARK    4  A    between atoms: C_7  and  C_14
REMARK    5  A    between atoms: C_9  and  C_13
REMARK    6  A    between atoms: C_10  and  C_16
REMARK    7  A    between atoms: C_10  and  C_17
REMARK    8  A    between atoms: C_11  and  C_20
REMARK    9  A    between atoms: C_13  and  C_21
REMARK   10  A    between atoms: C_24  and  C_25
REMARK   11  A    between atoms: C_30  and  C_31
REMARK                            x       y       z     vdW  Elec       q    Type
REMARK                         _______ _______ _______ _____ _____    ______ ____
ROOT
ATOM      6  C   UNL     1      -3.304 -12.050  12.463  0.00  0.00    +0.000 C 
ATOM      7  C   UNL     1      -2.173 -11.013  12.251  0.00  0.00    +0.032 C 
ATOM      8  C   UNL     1      -3.957 -12.414  11.120  0.00  0.00    +0.012 C 
ATOM      9  C   UNL     1      -4.549 -11.184  10.408  0.00  0.00    +0.023 C 
ATOM     11  C   UNL     1      -3.580 -10.019  10.396  0.00  0.00    -0.073 C 
ATOM     12  C   UNL     1      -2.517  -9.966  11.217  0.00  0.00    -0.022 C 
ATOM     20  C   UNL     1      -3.836  -8.936   9.385  0.00  0.00    +0.039 C 
ENDROOT
BRANCH   6  10
ATOM     10  C   UNL     1      -2.791 -13.319  13.151  0.00  0.00    -0.013 C 
ATOM     16  C   UNL     1      -3.769 -13.770  14.232  0.00  0.00    +0.007 C 
ATOM     17  C   UNL     1      -2.568 -14.426  12.128  0.00  0.00    +0.007 C 
ENDBRANCH   6  10
BRANCH   9  13
ATOM     13  C   UNL     1      -5.889 -10.777  11.031  0.00  0.00    +0.103 C 
BRANCH  13  21
ATOM      1  O   UNL     1      -7.694 -11.900   9.877  0.00  0.00    -0.276 OA
ATOM      3  N   UNL     1      -7.214  -9.685   9.367  0.00  0.00    -0.312 N 
ATOM     21  C   UNL     1      -7.030 -10.882  10.045  0.00  0.00    +0.214 C 
ATOM     32  H   UNL     1      -6.635  -8.886   9.610  0.00  0.00    +0.149 HD
BRANCH   3  15
ATOM     15  C   UNL     1      -8.231  -9.496   8.364  0.00  0.00    +0.073 C 
ATOM     18  C   UNL     1      -7.786  -8.512   7.289  0.00  0.00    +0.022 C 
ATOM     19  C   UNL     1      -9.478  -8.830   8.934  0.00  0.00    +0.022 C 
ATOM     22  C   UNL     1      -8.052  -7.137   7.893  0.00  0.00    +0.002 C 
ATOM     23  C   UNL     1      -9.168  -7.334   8.920  0.00  0.00    +0.002 C 
ENDBRANCH   3  15
ENDBRANCH  13  21
ENDBRANCH   9  13
BRANCH   7  14
ATOM     14  C   UNL     1      -1.798 -10.325  13.569  0.00  0.00    +0.112 C 
BRANCH  14   4
ATOM      2  O   UNL     1      -1.583 -10.780  16.396  0.00  0.00    -0.270 OA
ATOM      4  N   UNL     1      -2.875 -10.402  14.506  0.00  0.00    -0.311 N 
ATOM     24  C   UNL     1      -2.681 -10.627  15.868  0.00  0.00    +0.244 C 
ATOM     33  H   UNL     1      -3.814 -10.292  14.138  0.00  0.00    +0.149 HD
BRANCH  24  25
ATOM     25  C   UNL     1      -3.906 -10.706  16.705  0.00  0.00    +0.037 A 
ATOM     26  C   UNL     1      -3.895 -11.440  17.891  0.00  0.00    +0.014 A 
ATOM     27  C   UNL     1      -5.069 -10.046  16.305  0.00  0.00    +0.014 A 
ATOM     28  C   UNL     1      -5.044 -11.513  18.678  0.00  0.00    +0.019 A 
ATOM     29  C   UNL     1      -6.218 -10.120  17.092  0.00  0.00    +0.019 A 
ATOM     30  C   UNL     1      -6.206 -10.853  18.277  0.00  0.00    +0.052 A 
BRANCH  30  31
ATOM      5  N   UNL     1      -8.341 -10.992  19.736  0.00  0.00    -0.191 NA
ATOM     31  C   UNL     1      -7.385 -10.930  19.083  0.00  0.00    +0.099 C 
ENDBRANCH  30  31
ENDBRANCH  24  25
ENDBRANCH  14   4
ENDBRANCH   7  14
TORSDOF 8
ENDMDL
MODEL 4
REMARK VINA RESULT:      -6.4     26.971     30.289
REMARK  Name = 38027302
REMARK  11 active torsions:
REMARK  status: ('A' for Active; 'I' for Inactive)
REMARK    1  A    between atoms: N_3  and  C_15
REMARK    2  A    between atoms: N_4  and  C_14
REMARK    3  A    between atoms: C_6  and  C_10
REMARK    4  A    between atoms: C_7  and  C_14
REMARK    5  A    between atoms: C_9  and  C_13
REMARK    6  A    between atoms: C_10  and  C_16
REMARK    7  A    between atoms: C_10  and  C_17
REMARK    8  A    between atoms: C_11  and  C_20
REMARK    9  A    between atoms: C_13  and  C_21
REMARK   10  A    between atoms: C_24  and  C_25
REMARK   11  A    between atoms: C_30  and  C_31
REMARK                            x       y       z     vdW  Elec       q    Type
REMARK                         _______ _______ _______ _____ _____    ______ ____
ROOT
ATOM      6  C   UNL     1      -3.181 -12.096  12.764  0.00  0.00    +0.000 C 
ATOM      7  C   UNL     1      -2.088 -11.023  12.534  0.00  0.00    +0.032 C 
ATOM      8  C   UNL     1      -3.766 -12.563  11.423  0.00  0.00    +0.012 C 
ATOM      9  C   UNL     1      -4.383 -11.402  10.621  0.00  0.00    +0.023 C 
ATOM     11  C   UNL     1      -3.464 -10.198  10.576  0.00  0.00    -0.073 C 
ATOM     12  C   UNL     1      -2.436 -10.053  11.429  0.00  0.00    -0.022 C 
ATOM     20  C   UNL     1      -3.728  -9.186   9.495  0.00  0.00    +0.039 C 
ENDROOT
BRANCH   6  10
ATOM     10  C   UNL     1      -2.641 -13.300  13.542  0.00  0.00    -0.013 C 
ATOM     16  C   UNL     1      -3.695 -13.819  14.517  0.00  0.00    +0.007 C 
ATOM     17  C   UNL     1      -2.203 -14.401  12.583  0.00  0.00    +0.007 C 
ENDBRANCH   6  10
BRANCH   9  13
ATOM     13  C   UNL     1      -5.762 -11.020  11.172  0.00  0.00    +0.103 C 
BRANCH  13  21
ATOM      1  O   UNL     1      -6.803 -13.132  10.615  0.00  0.00    -0.276 OA
ATOM      3  N   UNL     1      -7.180 -12.186  12.703  0.00  0.00    -0.312 N 
ATOM     21  C   UNL     1      -6.625 -12.233  11.432  0.00  0.00    +0.214 C 
ATOM     32  H   UNL     1      -6.937 -11.416  13.320  0.00  0.00    +0.149 HD
BRANCH   3  15
ATOM     15  C   UNL     1      -8.050 -13.211  13.222  0.00  0.00    +0.073 C 
ATOM     18  C   UNL     1      -9.118 -12.632  14.141  0.00  0.00    +0.022 C 
ATOM     19  C   UNL     1      -7.308 -14.179  14.137  0.00  0.00    +0.022 C 
ATOM     22  C   UNL     1      -8.420 -12.469  15.487  0.00  0.00    +0.002 C 
ATOM     23  C   UNL     1      -7.283 -13.492  15.502  0.00  0.00    +0.002 C 
ENDBRANCH   3  15
ENDBRANCH  13  21
ENDBRANCH   9  13
BRANCH   7  14
ATOM     14  C   UNL     1      -1.792 -10.247  13.821  0.00  0.00    +0.112 C 
BRANCH  14   4
ATOM      2  O   UNL     1      -1.656 -10.881  16.619  0.00  0.00    -0.270 OA
ATOM      4  N   UNL     1      -2.891 -10.336  14.732  0.00  0.00    -0.311 N 
ATOM     24  C   UNL     1      -2.736 -10.651  16.081  0.00  0.00    +0.244 C 
ATOM     33  H   UNL     1      -3.817 -10.166  14.354  0.00  0.00    +0.149 HD
BRANCH  24  25
ATOM     25  C   UNL     1      -3.981 -10.730  16.888  0.00  0.00    +0.037 A 
ATOM     26  C   UNL     1      -4.007 -11.490  18.058  0.00  0.00    +0.014 A 
ATOM     27  C   UNL     1      -5.124 -10.045  16.476  0.00  0.00    +0.014 A 
ATOM     28  C   UNL     1      -5.175 -11.563  18.816  0.00  0.00    +0.019 A 
ATOM     29  C   UNL     1      -6.293 -10.120  17.235  0.00  0.00    +0.019 A 
ATOM     30  C   UNL     1      -6.318 -10.878  18.404  0.00  0.00    +0.052 A 
BRANCH  30  31
ATOM      5  N   UNL     1      -8.488 -11.017  19.811  0.00  0.00    -0.191 NA
ATOM     31  C   UNL     1      -7.515 -10.955  19.181  0.00  0.00    +0.099 C 
ENDBRANCH  30  31
ENDBRANCH  24  25
ENDBRANCH  14   4
ENDBRANCH   7  14
TORSDOF 8
ENDMDL
MODEL 5
REMARK VINA RESULT:      -6.2     27.468     31.095
REMARK  Name = 38027302
REMARK  11 active torsions:
REMARK  status: ('A' for Active; 'I' for Inactive)
REMARK    1  A    between atoms: N_3  and  C_15
REMARK    2  A    between atoms: N_4  and  C_14
REMARK    3  A    between atoms: C_6  and  C_10
REMARK    4  A    between atoms: C_7  and  C_14
REMARK    5  A    between atoms: C_9  and  C_13
REMARK    6  A    between atoms: C_10  and  C_16
REMARK    7  A    between atoms: C_10  and  C_17
REMARK    8  A    between atoms: C_11  and  C_20
REMARK    9  A    between atoms: C_13  and  C_21
REMARK   10  A    between atoms: C_24  and  C_25
REMARK   11  A    between atoms: C_30  and  C_31
REMARK                            x       y       z     vdW  Elec       q    Type
REMARK                         _______ _______ _______ _____ _____    ______ ____
ROOT
ATOM      6  C   UNL     1      -6.084  -9.521   7.633  0.00  0.00    +0.000 C 
ATOM      7  C   UNL     1      -7.360  -8.983   8.327  0.00  0.00    +0.032 C 
ATOM      8  C   UNL     1      -5.361 -10.526   8.544  0.00  0.00    +0.012 C 
ATOM      9  C   UNL     1      -4.958  -9.903   9.894  0.00  0.00    +0.023 C 
ATOM     11  C   UNL     1      -6.098  -9.123  10.517  0.00  0.00    -0.073 C 
ATOM     12  C   UNL     1      -7.169  -8.732   9.805  0.00  0.00    -0.022 C 
ATOM     20  C   UNL     1      -5.999  -8.842  11.991  0.00  0.00    +0.039 C 
ENDROOT
BRANCH   6  10
ATOM     10  C   UNL     1      -6.402 -10.177   6.286  0.00  0.00    -0.013 C 
ATOM     16  C   UNL     1      -5.204 -10.980   5.790  0.00  0.00    +0.007 C 
ATOM     17  C   UNL     1      -7.636 -11.064   6.405  0.00  0.00    +0.007 C 
ENDBRANCH   6  10
BRANCH   9  13
ATOM     13  C   UNL     1      -3.709  -9.027   9.748  0.00  0.00    +0.103 C 
BRANCH  13  21
ATOM      1  O   UNL     1      -1.476  -8.960  10.675  0.00  0.00    -0.276 OA
ATOM      3  N   UNL     1      -2.948 -10.623  11.357  0.00  0.00    -0.312 N 
ATOM     21  C   UNL     1      -2.575  -9.504  10.627  0.00  0.00    +0.214 C 
ATOM     32  H   UNL     1      -3.899 -10.972  11.275  0.00  0.00    +0.149 HD
BRANCH   3  15
ATOM     15  C   UNL     1      -2.064 -11.293  12.278  0.00  0.00    +0.073 C 
ATOM     18  C   UNL     1      -2.526 -12.716  12.567  0.00  0.00    +0.022 C 
ATOM     19  C   UNL     1      -2.083 -10.646  13.658  0.00  0.00    +0.022 C 
ATOM     22  C   UNL     1      -3.606 -12.560  13.634  0.00  0.00    +0.002 C 
ATOM     23  C   UNL     1      -3.296 -11.251  14.362  0.00  0.00    +0.002 C 
ENDBRANCH   3  15
ENDBRANCH  13  21
ENDBRANCH   9  13
BRANCH   7  14
ATOM     14  C   UNL     1      -7.859  -7.700   7.652  0.00  0.00    +0.112 C 
BRANCH  14   4
ATOM      2  O   UNL     1     -10.261  -6.343   6.855  0.00  0.00    -0.270 OA
ATOM      4  N   UNL     1      -8.767  -6.998   8.505  0.00  0.00    -0.311 N 
ATOM     24  C   UNL     1      -9.916  -6.364   8.032  0.00  0.00    +0.244 C 
ATOM     33  H   UNL     1      -8.540  -6.967   9.492  0.00  0.00    +0.149 HD
BRANCH  24  25
ATOM     25  C   UNL     1     -10.741  -5.654   9.044  0.00  0.00    +0.037 A 
ATOM     26  C   UNL     1     -10.706  -4.262   9.120  0.00  0.00    +0.014 A 
ATOM     27  C   UNL     1     -11.551  -6.380   9.917  0.00  0.00    +0.014 A 
ATOM     28  C   UNL     1     -11.481  -3.595  10.068  0.00  0.00    +0.019 A 
ATOM     29  C   UNL     1     -12.326  -5.713  10.866  0.00  0.00    +0.019 A 
ATOM     30  C   UNL     1     -12.291  -4.321  10.942  0.00  0.00    +0.052 A 
BRANCH  30  31
ATOM      5  N   UNL     1     -13.728  -3.083  12.705  0.00  0.00    -0.191 NA
ATOM     31  C   UNL     1     -13.084  -3.638  11.915  0.00  0.00    +0.099 C 
ENDBRANCH  30  31
ENDBRANCH  24  25
ENDBRANCH  14   4
ENDBRANCH   7  14
TORSDOF 8
ENDMDL
MODEL 6
REMARK VINA RESULT:      -6.1     13.374     16.128
REMARK  Name = 38027302
REMARK  11 active torsions:
REMARK  status: ('A' for Active; 'I' for Inactive)
REMARK    1  A    between atoms: N_3  and  C_15
REMARK    2  A    between atoms: N_4  and  C_14
REMARK    3  A    between atoms: C_6  and  C_10
REMARK    4  A    between atoms: C_7  and  C_14
REMARK    5  A    between atoms: C_9  and  C_13
REMARK    6  A    between atoms: C_10  and  C_16
REMARK    7  A    between atoms: C_10  and  C_17
REMARK    8  A    between atoms: C_11  and  C_20
REMARK    9  A    between atoms: C_13  and  C_21
REMARK   10  A    between atoms: C_24  and  C_25
REMARK   11  A    between atoms: C_30  and  C_31
REMARK                            x       y       z     vdW  Elec       q    Type
REMARK                         _______ _______ _______ _____ _____    ______ ____
ROOT
ATOM      6  C   UNL     1       9.293   8.180   5.522  0.00  0.00    +0.000 C 
ATOM      7  C   UNL     1       9.026   8.089   7.046  0.00  0.00    +0.032 C 
ATOM      8  C   UNL     1       8.819   6.901   4.817  0.00  0.00    +0.012 C 
ATOM      9  C   UNL     1       9.520   5.642   5.361  0.00  0.00    +0.023 C 
ATOM     11  C   UNL     1       9.533   5.615   6.876  0.00  0.00    -0.073 C 
ATOM     12  C   UNL     1       9.296   6.714   7.612  0.00  0.00    -0.022 C 
ATOM     20  C   UNL     1       9.778   4.281   7.527  0.00  0.00    +0.039 C 
ENDROOT
BRANCH   6  10
ATOM     10  C   UNL     1       8.609   9.401   4.898  0.00  0.00    -0.013 C 
ATOM     16  C   UNL     1       9.631  10.264   4.164  0.00  0.00    +0.007 C 
ATOM     17  C   UNL     1       7.495   8.962   3.955  0.00  0.00    +0.007 C 
ENDBRANCH   6  10
BRANCH   9  13
ATOM     13  C   UNL     1      10.940   5.513   4.798  0.00  0.00    +0.103 C 
BRANCH  13  21
ATOM      1  O   UNL     1       9.959   4.458   2.854  0.00  0.00    -0.276 OA
ATOM      3  N   UNL     1      12.202   5.064   2.818  0.00  0.00    -0.312 N 
ATOM     21  C   UNL     1      10.945   4.950   3.395  0.00  0.00    +0.214 C 
ATOM     32  H   UNL     1      12.944   5.525   3.337  0.00  0.00    +0.149 HD
BRANCH   3  15
ATOM     15  C   UNL     1      12.501   4.606   1.484  0.00  0.00    +0.073 C 
ATOM     18  C   UNL     1      13.156   3.231   1.494  0.00  0.00    +0.022 C 
ATOM     19  C   UNL     1      13.553   5.476   0.806  0.00  0.00    +0.022 C 
ATOM     22  C   UNL     1      14.628   3.508   1.785  0.00  0.00    +0.002 C 
ATOM     23  C   UNL     1      14.893   4.935   1.304  0.00  0.00    +0.002 C 
ENDBRANCH   3  15
ENDBRANCH  13  21
ENDBRANCH   9  13
BRANCH   7  14
ATOM     14  C   UNL     1       9.847   9.129   7.816  0.00  0.00    +0.112 C 
BRANCH  14   4
ATOM      2  O   UNL     1      11.599  11.250   6.992  0.00  0.00    -0.270 OA
ATOM      4  N   UNL     1      11.237   9.015   7.498  0.00  0.00    -0.311 N 
ATOM     24  C   UNL     1      12.017  10.101   7.104  0.00  0.00    +0.244 C 
ATOM     33  H   UNL     1      11.649   8.091   7.562  0.00  0.00    +0.149 HD
BRANCH  24  25
ATOM     25  C   UNL     1      13.438   9.811   6.784  0.00  0.00    +0.037 A 
ATOM     26  C   UNL     1      14.368  10.850   6.732  0.00  0.00    +0.014 A 
ATOM     27  C   UNL     1      13.844   8.499   6.535  0.00  0.00    +0.014 A 
ATOM     28  C   UNL     1      15.703  10.578   6.433  0.00  0.00    +0.019 A 
ATOM     29  C   UNL     1      15.179   8.228   6.235  0.00  0.00    +0.019 A 
ATOM     30  C   UNL     1      16.108   9.266   6.184  0.00  0.00    +0.052 A 
BRANCH  30  31
ATOM      5  N   UNL     1      18.586   8.761   5.625  0.00  0.00    -0.191 NA
ATOM     31  C   UNL     1      17.476   8.988   5.875  0.00  0.00    +0.099 C 
ENDBRANCH  30  31
ENDBRANCH  24  25
ENDBRANCH  14   4
ENDBRANCH   7  14
TORSDOF 8
ENDMDL
MODEL 7
REMARK VINA RESULT:      -6.0     27.418     31.062
REMARK  Name = 38027302
REMARK  11 active torsions:
REMARK  status: ('A' for Active; 'I' for Inactive)
REMARK    1  A    between atoms: N_3  and  C_15
REMARK    2  A    between atoms: N_4  and  C_14
REMARK    3  A    between atoms: C_6  and  C_10
REMARK    4  A    between atoms: C_7  and  C_14
REMARK    5  A    between atoms: C_9  and  C_13
REMARK    6  A    between atoms: C_10  and  C_16
REMARK    7  A    between atoms: C_10  and  C_17
REMARK    8  A    between atoms: C_11  and  C_20
REMARK    9  A    between atoms: C_13  and  C_21
REMARK   10  A    between atoms: C_24  and  C_25
REMARK   11  A    between atoms: C_30  and  C_31
REMARK                            x       y       z     vdW  Elec       q    Type
REMARK                         _______ _______ _______ _____ _____    ______ ____
ROOT
ATOM      6  C   UNL     1      -6.213 -10.539  15.612  0.00  0.00    +0.000 C 
ATOM      7  C   UNL     1      -6.841 -10.575  17.027  0.00  0.00    +0.032 C 
ATOM      8  C   UNL     1      -5.245 -11.717  15.424  0.00  0.00    +0.012 C 
ATOM      9  C   UNL     1      -4.108 -11.708  16.464  0.00  0.00    +0.023 C 
ATOM     11  C   UNL     1      -4.630 -11.478  17.868  0.00  0.00    -0.073 C 
ATOM     12  C   UNL     1      -5.858 -10.984  18.100  0.00  0.00    -0.022 C 
ATOM     20  C   UNL     1      -3.723 -11.872  19.000  0.00  0.00    +0.039 C 
ENDROOT
BRANCH   6  10
ATOM     10  C   UNL     1      -7.282 -10.566  14.515  0.00  0.00    -0.013 C 
ATOM     16  C   UNL     1      -6.772  -9.864  13.259  0.00  0.00    +0.007 C 
ATOM     17  C   UNL     1      -7.689 -12.002  14.204  0.00  0.00    +0.007 C 
ENDBRANCH   6  10
BRANCH   9  13
ATOM     13  C   UNL     1      -3.035 -10.675  16.101  0.00  0.00    +0.103 C 
BRANCH  13  21
ATOM      1  O   UNL     1      -1.123 -11.780  15.115  0.00  0.00    -0.276 OA
ATOM      3  N   UNL     1      -2.685 -10.750  13.737  0.00  0.00    -0.312 N 
ATOM     21  C   UNL     1      -2.160 -11.142  14.960  0.00  0.00    +0.214 C 
ATOM     32  H   UNL     1      -3.574 -10.258  13.715  0.00  0.00    +0.149 HD
BRANCH   3  15
ATOM     15  C   UNL     1      -2.058 -11.057  12.476  0.00  0.00    +0.073 C 
ATOM     18  C   UNL     1      -2.051  -9.852  11.543  0.00  0.00    +0.022 C 
ATOM     19  C   UNL     1      -2.848 -12.092  11.683  0.00  0.00    +0.022 C 
ATOM     22  C   UNL     1      -3.440  -9.847  10.912  0.00  0.00    +0.002 C 
ATOM     23  C   UNL     1      -3.933 -11.294  10.963  0.00  0.00    +0.002 C 
ENDBRANCH   3  15
ENDBRANCH  13  21
ENDBRANCH   9  13
BRANCH   7  14
ATOM     14  C   UNL     1      -7.462  -9.223  17.393  0.00  0.00    +0.112 C 
BRANCH  14   4
ATOM      2  O   UNL     1     -10.075  -9.271  16.201  0.00  0.00    -0.270 OA
ATOM      4  N   UNL     1      -8.708  -9.402  18.071  0.00  0.00    -0.311 N 
ATOM     24  C   UNL     1      -9.937  -9.412  17.413  0.00  0.00    +0.244 C 
ATOM     33  H   UNL     1      -8.671  -9.518  19.078  0.00  0.00    +0.149 HD
BRANCH  24  25
ATOM     25  C   UNL     1     -11.141  -9.584  18.266  0.00  0.00    +0.037 A 
ATOM     26  C   UNL     1     -11.002  -9.965  19.601  0.00  0.00    +0.014 A 
ATOM     27  C   UNL     1     -12.412  -9.363  17.733  0.00  0.00    +0.014 A 
ATOM     28  C   UNL     1     -12.132 -10.125  20.402  0.00  0.00    +0.019 A 
ATOM     29  C   UNL     1     -13.542  -9.524  18.535  0.00  0.00    +0.019 A 
ATOM     30  C   UNL     1     -13.402  -9.905  19.869  0.00  0.00    +0.052 A 
BRANCH  30  31
ATOM      5  N   UNL     1     -15.500 -10.204  21.357  0.00  0.00    -0.191 NA
ATOM     31  C   UNL     1     -14.560 -10.070  20.690  0.00  0.00    +0.099 C 
ENDBRANCH  30  31
ENDBRANCH  24  25
ENDBRANCH  14   4
ENDBRANCH   7  14
TORSDOF 8
ENDMDL
MODEL 8
REMARK VINA RESULT:      -6.0      1.940      3.263
REMARK  Name = 38027302
REMARK  11 active torsions:
REMARK  status: ('A' for Active; 'I' for Inactive)
REMARK    1  A    between atoms: N_3  and  C_15
REMARK    2  A    between atoms: N_4  and  C_14
REMARK    3  A    between atoms: C_6  and  C_10
REMARK    4  A    between atoms: C_7  and  C_14
REMARK    5  A    between atoms: C_9  and  C_13
REMARK    6  A    between atoms: C_10  and  C_16
REMARK    7  A    between atoms: C_10  and  C_17
REMARK    8  A    between atoms: C_11  and  C_20
REMARK    9  A    between atoms: C_13  and  C_21
REMARK   10  A    between atoms: C_24  and  C_25
REMARK   11  A    between atoms: C_30  and  C_31
REMARK                            x       y       z     vdW  Elec       q    Type
REMARK                         _______ _______ _______ _____ _____    ______ ____
ROOT
ATOM      6  C   UNL     1      13.172   9.248  20.324  0.00  0.00    +0.000 C 
ATOM      7  C   UNL     1      12.521   8.063  19.567  0.00  0.00    +0.032 C 
ATOM      8  C   UNL     1      12.851  10.576  19.620  0.00  0.00    +0.012 C 
ATOM      9  C   UNL     1      13.347  10.596  18.162  0.00  0.00    +0.023 C 
ATOM     11  C   UNL     1      12.971   9.328  17.421  0.00  0.00    -0.073 C 
ATOM     12  C   UNL     1      12.591   8.211  18.064  0.00  0.00    -0.022 C 
ATOM     20  C   UNL     1      12.997   9.390  15.918  0.00  0.00    +0.039 C 
ENDROOT
BRANCH   6  10
ATOM     10  C   UNL     1      12.713   9.311  21.784  0.00  0.00    -0.013 C 
ATOM     16  C   UNL     1      13.475  10.399  22.534  0.00  0.00    +0.007 C 
ATOM     17  C   UNL     1      11.210   9.555  21.859  0.00  0.00    +0.007 C 
ENDBRANCH   6  10
BRANCH   9  13
ATOM     13  C   UNL     1      14.858  10.843  18.095  0.00  0.00    +0.103 C 
BRANCH  13  21
ATOM      1  O   UNL     1      15.178  13.225  17.824  0.00  0.00    -0.276 OA
ATOM      3  N   UNL     1      15.518  11.811  16.011  0.00  0.00    -0.312 N 
ATOM     21  C   UNL     1      15.195  12.102  17.329  0.00  0.00    +0.214 C 
ATOM     32  H   UNL     1      15.543  10.841  15.711  0.00  0.00    +0.149 HD
BRANCH   3  15
ATOM     15  C   UNL     1      15.880  12.821  15.048  0.00  0.00    +0.073 C 
ATOM     18  C   UNL     1      14.653  13.408  14.361  0.00  0.00    +0.022 C 
ATOM     19  C   UNL     1      16.673  12.240  13.883  0.00  0.00    +0.022 C 
ATOM     22  C   UNL     1      14.313  12.406  13.262  0.00  0.00    +0.002 C 
ATOM     23  C   UNL     1      15.619  11.686  12.926  0.00  0.00    +0.002 C 
ENDBRANCH   3  15
ENDBRANCH  13  21
ENDBRANCH   9  13
BRANCH   7  14
ATOM     14  C   UNL     1      13.153   6.729  19.978  0.00  0.00    +0.112 C 
BRANCH  14   4
ATOM      2  O   UNL     1      15.539   6.352  18.425  0.00  0.00    -0.270 OA
ATOM      4  N   UNL     1      14.500   6.919  20.420  0.00  0.00    -0.311 N 
ATOM     24  C   UNL     1      15.606   6.713  19.597  0.00  0.00    +0.244 C 
ATOM     33  H   UNL     1      14.631   7.210  21.383  0.00  0.00    +0.149 HD
BRANCH  24  25
ATOM     25  C   UNL     1      16.939   6.928  20.216  0.00  0.00    +0.037 A 
ATOM     26  C   UNL     1      17.997   6.073  19.909  0.00  0.00    +0.014 A 
ATOM     27  C   UNL     1      17.133   7.986  21.105  0.00  0.00    +0.014 A 
ATOM     28  C   UNL     1      19.249   6.276  20.488  0.00  0.00    +0.019 A 
ATOM     29  C   UNL     1      18.386   8.188  21.685  0.00  0.00    +0.019 A 
ATOM     30  C   UNL     1      19.443   7.333  21.377  0.00  0.00    +0.052 A 
BRANCH  30  31
ATOM      5  N   UNL     1      21.767   7.708  22.456  0.00  0.00    -0.191 NA
ATOM     31  C   UNL     1      20.726   7.540  21.973  0.00  0.00    +0.099 C 
ENDBRANCH  30  31
ENDBRANCH  24  25
ENDBRANCH  14   4
ENDBRANCH   7  14
TORSDOF 8
ENDMDL
MODEL 9
REMARK VINA RESULT:      -5.9      2.891      4.403
REMARK  Name = 38027302
REMARK  11 active torsions:
REMARK  status: ('A' for Active; 'I' for Inactive)
REMARK    1  A    between atoms: N_3  and  C_15
REMARK    2  A    between atoms: N_4  and  C_14
REMARK    3  A    between atoms: C_6  and  C_10
REMARK    4  A    between atoms: C_7  and  C_14
REMARK    5  A    between atoms: C_9  and  C_13
REMARK    6  A    between atoms: C_10  and  C_16
REMARK    7  A    between atoms: C_10  and  C_17
REMARK    8  A    between atoms: C_11  and  C_20
REMARK    9  A    between atoms: C_13  and  C_21
REMARK   10  A    between atoms: C_24  and  C_25
REMARK   11  A    between atoms: C_30  and  C_31
REMARK                            x       y       z     vdW  Elec       q    Type
REMARK                         _______ _______ _______ _____ _____    ______ ____
ROOT
ATOM      6  C   UNL     1      12.531   9.047  20.564  0.00  0.00    +0.000 C 
ATOM      7  C   UNL     1      12.772   9.411  19.077  0.00  0.00    +0.032 C 
ATOM      8  C   UNL     1      11.857  10.214  21.300  0.00  0.00    +0.012 C 
ATOM      9  C   UNL     1      12.699  11.503  21.243  0.00  0.00    +0.023 C 
ATOM     11  C   UNL     1      13.202  11.786  19.842  0.00  0.00    -0.073 C 
ATOM     12  C   UNL     1      13.214  10.843  18.884  0.00  0.00    -0.022 C 
ATOM     20  C   UNL     1      13.648  13.193  19.554  0.00  0.00    +0.039 C 
ENDROOT
BRANCH   6  10
ATOM     10  C   UNL     1      11.680   7.781  20.707  0.00  0.00    -0.013 C 
ATOM     16  C   UNL     1      12.533   6.622  21.215  0.00  0.00    +0.007 C 
ATOM     17  C   UNL     1      10.503   8.036  21.642  0.00  0.00    +0.007 C 
ENDBRANCH   6  10
BRANCH   9  13
ATOM     13  C   UNL     1      13.861  11.448  22.242  0.00  0.00    +0.103 C 
BRANCH  13  21
ATOM      1  O   UNL     1      14.903  13.076  23.697  0.00  0.00    -0.276 OA
ATOM      3  N   UNL     1      12.622  13.216  23.271  0.00  0.00    -0.312 N 
ATOM     21  C   UNL     1      13.887  12.658  23.149  0.00  0.00    +0.214 C 
ATOM     32  H   UNL     1      11.853  12.817  22.742  0.00  0.00    +0.149 HD
BRANCH   3  15
ATOM     15  C   UNL     1      12.350  14.379  24.077  0.00  0.00    +0.073 C 
ATOM     18  C   UNL     1      11.908  13.999  25.484  0.00  0.00    +0.022 C 
ATOM     19  C   UNL     1      11.157  15.169  23.551  0.00  0.00    +0.022 C 
ATOM     22  C   UNL     1      10.422  13.680  25.347  0.00  0.00    +0.002 C 
ATOM     23  C   UNL     1       9.931  14.466  24.131  0.00  0.00    +0.002 C 
ENDBRANCH   3  15
ENDBRANCH  13  21
ENDBRANCH   9  13
BRANCH   7  14
ATOM     14  C   UNL     1      13.796   8.469  18.434  0.00  0.00    +0.112 C 
BRANCH  14   4
ATOM      2  O   UNL     1      15.432   6.171  18.974  0.00  0.00    -0.270 OA
ATOM      4  N   UNL     1      15.007   8.442  19.194  0.00  0.00    -0.311 N 
ATOM     24  C   UNL     1      15.743   7.276  19.409  0.00  0.00    +0.244 C 
ATOM     33  H   UNL     1      15.321   9.320  19.592  0.00  0.00    +0.149 HD
BRANCH  24  25
ATOM     25  C   UNL     1      16.964   7.412  20.243  0.00  0.00    +0.037 A 
ATOM     26  C   UNL     1      17.186   8.581  20.970  0.00  0.00    +0.014 A 
ATOM     27  C   UNL     1      17.890   6.369  20.300  0.00  0.00    +0.014 A 
ATOM     28  C   UNL     1      18.333   8.709  21.754  0.00  0.00    +0.019 A 
ATOM     29  C   UNL     1      19.037   6.497  21.084  0.00  0.00    +0.019 A 
ATOM     30  C   UNL     1      19.258   7.666  21.810  0.00  0.00    +0.052 A 
BRANCH  30  31
ATOM      5  N   UNL     1      21.388   7.904  23.265  0.00  0.00    -0.191 NA
ATOM     31  C   UNL     1      20.434   7.798  22.613  0.00  0.00    +0.099 C 
ENDBRANCH  30  31
ENDBRANCH  24  25
ENDBRANCH  14   4
ENDBRANCH   7  14
TORSDOF 8
ENDMDL
MODEL 10
REMARK VINA RESULT:      -5.9     27.495     30.632
REMARK  Name = 38027302
REMARK  11 active torsions:
REMARK  status: ('A' for Active; 'I' for Inactive)
REMARK    1  A    between atoms: N_3  and  C_15
REMARK    2  A    between atoms: N_4  and  C_14
REMARK    3  A    between atoms: C_6  and  C_10
REMARK    4  A    between atoms: C_7  and  C_14
REMARK    5  A    between atoms: C_9  and  C_13
REMARK    6  A    between atoms: C_10  and  C_16
REMARK    7  A    between atoms: C_10  and  C_17
REMARK    8  A    between atoms: C_11  and  C_20
REMARK    9  A    between atoms: C_13  and  C_21
REMARK   10  A    between atoms: C_24  and  C_25
REMARK   11  A    between atoms: C_30  and  C_31
REMARK                            x       y       z     vdW  Elec       q    Type
REMARK                         _______ _______ _______ _____ _____    ______ ____
ROOT
ATOM      6  C   UNL     1     -13.455   8.008  21.032  0.00  0.00    +0.000 C 
ATOM      7  C   UNL     1     -14.018   9.364  21.527  0.00  0.00    +0.032 C 
ATOM      8  C   UNL     1     -14.584   6.976  20.895  0.00  0.00    +0.012 C 
ATOM      9  C   UNL     1     -15.324   6.741  22.225  0.00  0.00    +0.023 C 
ATOM     11  C   UNL     1     -15.678   8.045  22.911  0.00  0.00    -0.073 C 
ATOM     12  C   UNL     1     -15.095   9.209  22.576  0.00  0.00    -0.022 C 
ATOM     20  C   UNL     1     -16.754   7.988  23.960  0.00  0.00    +0.039 C 
ENDROOT
BRANCH   6  10
ATOM     10  C   UNL     1     -12.718   8.152  19.697  0.00  0.00    -0.013 C 
ATOM     16  C   UNL     1     -11.591   7.128  19.599  0.00  0.00    +0.007 C 
ATOM     17  C   UNL     1     -13.691   7.998  18.533  0.00  0.00    +0.007 C 
ENDBRANCH   6  10
BRANCH   9  13
ATOM     13  C   UNL     1     -14.511   5.834  23.157  0.00  0.00    +0.103 C 
BRANCH  13  21
ATOM      1  O   UNL     1     -15.612   3.734  22.679  0.00  0.00    -0.276 OA
ATOM      3  N   UNL     1     -15.476   4.481  24.875  0.00  0.00    -0.312 N 
ATOM     21  C   UNL     1     -15.256   4.567  23.508  0.00  0.00    +0.214 C 
ATOM     32  H   UNL     1     -15.103   5.206  25.482  0.00  0.00    +0.149 HD
BRANCH   3  15
ATOM     15  C   UNL     1     -16.167   3.377  25.494  0.00  0.00    +0.073 C 
ATOM     18  C   UNL     1     -17.679   3.519  25.371  0.00  0.00    +0.022 C 
ATOM     19  C   UNL     1     -15.953   3.346  27.003  0.00  0.00    +0.022 C 
ATOM     22  C   UNL     1     -18.069   4.467  26.501  0.00  0.00    +0.002 C 
ATOM     23  C   UNL     1     -16.983   4.323  27.568  0.00  0.00    +0.002 C 
ENDBRANCH   3  15
ENDBRANCH  13  21
ENDBRANCH   9  13
BRANCH   7  14
ATOM     14  C   UNL     1     -12.901  10.262  22.070  0.00  0.00    +0.112 C 
BRANCH  14   4
ATOM      2  O   UNL     1     -11.642  12.104  23.879  0.00  0.00    -0.270 OA
ATOM      4  N   UNL     1     -12.777  10.118  23.487  0.00  0.00    -0.311 N 
ATOM     24  C   UNL     1     -12.147  11.065  24.295  0.00  0.00    +0.244 C 
ATOM     33  H   UNL     1     -13.165   9.277  23.900  0.00  0.00    +0.149 HD
BRANCH  24  25
ATOM     25  C   UNL     1     -12.078  10.753  25.745  0.00  0.00    +0.037 A 
ATOM     26  C   UNL     1     -10.849  10.463  26.339  0.00  0.00    +0.014 A 
ATOM     27  C   UNL     1     -13.241  10.752  26.516  0.00  0.00    +0.014 A 
ATOM     28  C   UNL     1     -10.783  10.171  27.701  0.00  0.00    +0.019 A 
ATOM     29  C   UNL     1     -13.175  10.459  27.878  0.00  0.00    +0.019 A 
ATOM     30  C   UNL     1     -11.947  10.169  28.470  0.00  0.00    +0.052 A 
BRANCH  30  31
ATOM      5  N   UNL     1     -11.825   9.626  30.999  0.00  0.00    -0.191 NA
ATOM     31  C   UNL     1     -11.879   9.869  29.866  0.00  0.00    +0.099 C 
ENDBRANCH  30  31
ENDBRANCH  24  25
ENDBRANCH  14   4
ENDBRANCH   7  14
TORSDOF 8
ENDMDL
