MODEL 1
REMARK VINA RESULT:      -7.0      0.000      0.000
REMARK  Name = 75368506
REMARK  2 active torsions:
REMARK  status: ('A' for Active; 'I' for Inactive)
REMARK    1  A    between atoms: N_4  and  C_10
REMARK    2  A    between atoms: N_7  and  C_20
REMARK                            x       y       z     vdW  Elec       q    Type
REMARK                         _______ _______ _______ _____ _____    ______ ____
ROOT
ATOM      2  O   UNL     1      16.863   9.916  20.777  0.00  0.00    -0.252 OA
ATOM      3  O   UNL     1      22.603   6.391  22.322  0.00  0.00    -0.252 OA
ATOM      4  N   UNL     1      16.171   7.678  20.517  0.00  0.00    -0.280 N 
ATOM      5  N   UNL     1      18.258   8.084  21.243  0.00  0.00    -0.278 N 
ATOM      6  N   UNL     1      20.566   6.536  21.241  0.00  0.00    -0.282 N 
ATOM      7  N   UNL     1      21.348   4.460  22.040  0.00  0.00    -0.269 N 
ATOM      8  C   UNL     1      18.120   6.638  21.312  0.00  0.00    +0.112 C 
ATOM      9  C   UNL     1      16.790   6.368  20.612  0.00  0.00    +0.133 C 
ATOM     11  C   UNL     1      19.328   5.966  20.669  0.00  0.00    +0.133 C 
ATOM     12  C   UNL     1      19.496   8.715  21.667  0.00  0.00    +0.128 C 
ATOM     13  C   UNL     1      17.071   8.712  20.841  0.00  0.00    +0.305 C 
ATOM     14  C   UNL     1      20.694   7.990  21.054  0.00  0.00    +0.128 C 
ATOM     19  C   UNL     1      21.593   5.825  21.896  0.00  0.00    +0.307 C 
ATOM     26  H   UNL     1      20.383   4.152  22.099  0.00  0.00    +0.156 HD
ENDROOT
BRANCH   4  10
ATOM      1  O   UNL     1      12.473   6.713  18.819  0.00  0.00    -0.380 OA
ATOM     10  C   UNL     1      14.832   7.854  20.009  0.00  0.00    +0.082 C 
ATOM     15  C   UNL     1      14.754   7.495  18.525  0.00  0.00    +0.050 C 
ATOM     16  C   UNL     1      13.830   7.023  20.810  0.00  0.00    +0.050 C 
ATOM     17  C   UNL     1      13.314   7.558  18.033  0.00  0.00    +0.161 C 
ATOM     18  C   UNL     1      12.441   7.110  20.190  0.00  0.00    +0.161 C 
ENDBRANCH   4  10
BRANCH   7  20
ATOM     20  C   UNL     1      22.304   3.415  22.085  0.00  0.00    +0.035 A 
ATOM     21  C   UNL     1      22.638   2.827  23.306  0.00  0.00    +0.023 A 
ATOM     22  C   UNL     1      22.912   2.976  20.910  0.00  0.00    +0.023 A 
ATOM     23  C   UNL     1      23.579   1.800  23.349  0.00  0.00    +0.002 A 
ATOM     24  C   UNL     1      23.854   1.949  20.954  0.00  0.00    +0.002 A 
ATOM     25  C   UNL     1      24.188   1.360  22.174  0.00  0.00    +0.000 A 
ENDBRANCH   7  20
TORSDOF 2
ENDMDL
MODEL 2
REMARK VINA RESULT:      -6.6     32.954     35.506
REMARK  Name = 75368506
REMARK  2 active torsions:
REMARK  status: ('A' for Active; 'I' for Inactive)
REMARK    1  A    between atoms: N_4  and  C_10
REMARK    2  A    between atoms: N_7  and  C_20
REMARK                            x       y       z     vdW  Elec       q    Type
REMARK                         _______ _______ _______ _____ _____    ______ ____
ROOT
ATOM      2  O   UNL     1     -17.584   3.504  21.858  0.00  0.00    -0.252 OA
ATOM      3  O   UNL     1     -17.606   0.513  28.088  0.00  0.00    -0.252 OA
ATOM      4  N   UNL     1     -15.669   4.431  22.874  0.00  0.00    -0.280 N 
ATOM      5  N   UNL     1     -16.842   2.879  23.998  0.00  0.00    -0.278 N 
ATOM      6  N   UNL     1     -17.004   2.261  26.703  0.00  0.00    -0.282 N 
ATOM      7  N   UNL     1     -15.610   1.624  28.495  0.00  0.00    -0.269 N 
ATOM      8  C   UNL     1     -15.684   3.143  24.837  0.00  0.00    +0.112 C 
ATOM      9  C   UNL     1     -15.022   4.348  24.172  0.00  0.00    +0.133 C 
ATOM     11  C   UNL     1     -16.124   3.371  26.279  0.00  0.00    +0.133 C 
ATOM     12  C   UNL     1     -17.825   1.891  24.408  0.00  0.00    +0.128 C 
ATOM     13  C   UNL     1     -16.796   3.591  22.791  0.00  0.00    +0.305 C 
ATOM     14  C   UNL     1     -18.209   2.106  25.872  0.00  0.00    +0.128 C 
ATOM     19  C   UNL     1     -16.799   1.401  27.801  0.00  0.00    +0.307 C 
ATOM     26  H   UNL     1     -14.824   2.009  27.983  0.00  0.00    +0.156 HD
ENDROOT
BRANCH   4  10
ATOM      1  O   UNL     1     -14.096   7.939  21.228  0.00  0.00    -0.380 OA
ATOM     10  C   UNL     1     -15.251   5.383  21.874  0.00  0.00    +0.082 C 
ATOM     15  C   UNL     1     -16.033   6.692  21.998  0.00  0.00    +0.050 C 
ATOM     16  C   UNL     1     -13.749   5.651  21.968  0.00  0.00    +0.050 C 
ATOM     17  C   UNL     1     -15.494   7.732  21.025  0.00  0.00    +0.161 C 
ATOM     18  C   UNL     1     -13.337   6.751  20.998  0.00  0.00    +0.161 C 
ENDBRANCH   4  10
BRANCH   7  20
ATOM     20  C   UNL     1     -15.365   1.402  29.873  0.00  0.00    +0.035 A 
ATOM     21  C   UNL     1     -15.121   0.110  30.339  0.00  0.00    +0.023 A 
ATOM     22  C   UNL     1     -15.368   2.476  30.763  0.00  0.00    +0.023 A 
ATOM     23  C   UNL     1     -14.881  -0.108  31.695  0.00  0.00    +0.002 A 
ATOM     24  C   UNL     1     -15.128   2.258  32.119  0.00  0.00    +0.002 A 
ATOM     25  C   UNL     1     -14.884   0.966  32.585  0.00  0.00    +0.000 A 
ENDBRANCH   7  20
TORSDOF 2
ENDMDL
MODEL 3
REMARK VINA RESULT:      -6.6     29.015     31.411
REMARK  Name = 75368506
REMARK  2 active torsions:
REMARK  status: ('A' for Active; 'I' for Inactive)
REMARK    1  A    between atoms: N_4  and  C_10
REMARK    2  A    between atoms: N_7  and  C_20
REMARK                            x       y       z     vdW  Elec       q    Type
REMARK                         _______ _______ _______ _____ _____    ______ ____
ROOT
ATOM      2  O   UNL     1      -6.707 -11.591  20.377  0.00  0.00    -0.252 OA
ATOM      3  O   UNL     1      -3.115 -10.672  14.545  0.00  0.00    -0.252 OA
ATOM      4  N   UNL     1      -8.396 -11.067  18.817  0.00  0.00    -0.280 N 
ATOM      5  N   UNL     1      -6.275 -11.245  18.093  0.00  0.00    -0.278 N 
ATOM      6  N   UNL     1      -4.989 -10.264  15.834  0.00  0.00    -0.282 N 
ATOM      7  N   UNL     1      -5.152 -10.352  13.483  0.00  0.00    -0.269 N 
ATOM      8  C   UNL     1      -7.059 -11.041  16.886  0.00  0.00    +0.112 C 
ATOM      9  C   UNL     1      -8.453 -10.703  17.412  0.00  0.00    +0.133 C 
ATOM     11  C   UNL     1      -6.421  -9.956  16.025  0.00  0.00    +0.133 C 
ATOM     12  C   UNL     1      -4.837 -11.427  18.002  0.00  0.00    +0.128 C 
ATOM     13  C   UNL     1      -7.079 -11.337  19.239  0.00  0.00    +0.305 C 
ATOM     14  C   UNL     1      -4.228 -10.363  17.090  0.00  0.00    +0.128 C 
ATOM     19  C   UNL     1      -4.325 -10.438  14.602  0.00  0.00    +0.307 C 
ATOM     26  H   UNL     1      -6.127 -10.613  13.590  0.00  0.00    +0.156 HD
ENDROOT
BRANCH   4  10
ATOM      1  O   UNL     1     -12.387 -11.405  20.018  0.00  0.00    -0.380 OA
ATOM     10  C   UNL     1      -9.558 -11.006  19.669  0.00  0.00    +0.082 C 
ATOM     15  C   UNL     1     -10.599 -10.033  19.112  0.00  0.00    +0.050 C 
ATOM     16  C   UNL     1     -10.173 -12.392  19.855  0.00  0.00    +0.050 C 
ATOM     17  C   UNL     1     -11.872 -10.076  19.947  0.00  0.00    +0.161 C 
ATOM     18  C   UNL     1     -11.472 -12.304  20.646  0.00  0.00    +0.161 C 
ENDBRANCH   4  10
BRANCH   7  20
ATOM     20  C   UNL     1      -4.800  -9.902  12.186  0.00  0.00    +0.035 A 
ATOM     21  C   UNL     1      -3.679 -10.431  11.546  0.00  0.00    +0.023 A 
ATOM     22  C   UNL     1      -5.574  -8.932  11.550  0.00  0.00    +0.023 A 
ATOM     23  C   UNL     1      -3.332  -9.988  10.270  0.00  0.00    +0.002 A 
ATOM     24  C   UNL     1      -5.227  -8.489  10.274  0.00  0.00    +0.002 A 
ATOM     25  C   UNL     1      -4.106  -9.018   9.634  0.00  0.00    +0.000 A 
ENDBRANCH   7  20
TORSDOF 2
ENDMDL
MODEL 4
REMARK VINA RESULT:      -6.5      3.557      5.577
REMARK  Name = 75368506
REMARK  2 active torsions:
REMARK  status: ('A' for Active; 'I' for Inactive)
REMARK    1  A    between atoms: N_4  and  C_10
REMARK    2  A    between atoms: N_7  and  C_20
REMARK                            x       y       z     vdW  Elec       q    Type
REMARK                         _______ _______ _______ _____ _____    ______ ____
ROOT
ATOM      2  O   UNL     1      11.336   9.027  19.884  0.00  0.00    -0.252 OA
ATOM      3  O   UNL     1      17.570   6.073  19.470  0.00  0.00    -0.252 OA
ATOM      4  N   UNL     1      12.574  10.224  21.494  0.00  0.00    -0.280 N 
ATOM      5  N   UNL     1      13.628   8.669  20.261  0.00  0.00    -0.278 N 
ATOM      6  N   UNL     1      15.981   7.248  20.666  0.00  0.00    -0.282 N 
ATOM      7  N   UNL     1      18.278   7.630  21.038  0.00  0.00    -0.269 N 
ATOM      8  C   UNL     1      14.681   9.288  21.049  0.00  0.00    +0.112 C 
ATOM      9  C   UNL     1      13.923  10.178  22.031  0.00  0.00    +0.133 C 
ATOM     11  C   UNL     1      15.549   8.215  21.697  0.00  0.00    +0.133 C 
ATOM     12  C   UNL     1      13.954   7.617  19.314  0.00  0.00    +0.128 C 
ATOM     13  C   UNL     1      12.382   9.277  20.469  0.00  0.00    +0.305 C 
ATOM     14  C   UNL     1      14.869   6.583  19.970  0.00  0.00    +0.128 C 
ATOM     19  C   UNL     1      17.310   6.914  20.334  0.00  0.00    +0.307 C 
ATOM     26  H   UNL     1      18.042   8.562  21.360  0.00  0.00    +0.156 HD
ENDROOT
BRANCH   4  10
ATOM      1  O   UNL     1      10.839  13.398  23.593  0.00  0.00    -0.380 OA
ATOM     10  C   UNL     1      11.551  11.059  22.073  0.00  0.00    +0.082 C 
ATOM     15  C   UNL     1      11.685  11.121  23.596  0.00  0.00    +0.050 C 
ATOM     16  C   UNL     1      11.593  12.467  21.480  0.00  0.00    +0.050 C 
ATOM     17  C   UNL     1      10.684  12.107  24.183  0.00  0.00    +0.161 C 
ATOM     18  C   UNL     1      10.598  13.379  22.186  0.00  0.00    +0.161 C 
ENDBRANCH   4  10
BRANCH   7  20
ATOM     20  C   UNL     1      19.578   7.193  21.397  0.00  0.00    +0.035 A 
ATOM     21  C   UNL     1      19.801   6.626  22.652  0.00  0.00    +0.023 A 
ATOM     22  C   UNL     1      20.634   7.330  20.495  0.00  0.00    +0.023 A 
ATOM     23  C   UNL     1      21.080   6.197  23.005  0.00  0.00    +0.002 A 
ATOM     24  C   UNL     1      21.912   6.902  20.849  0.00  0.00    +0.002 A 
ATOM     25  C   UNL     1      22.136   6.335  22.104  0.00  0.00    +0.000 A 
ENDBRANCH   7  20
TORSDOF 2
ENDMDL
MODEL 5
REMARK VINA RESULT:      -6.4     17.295     21.177
REMARK  Name = 75368506
REMARK  2 active torsions:
REMARK  status: ('A' for Active; 'I' for Inactive)
REMARK    1  A    between atoms: N_4  and  C_10
REMARK    2  A    between atoms: N_7  and  C_20
REMARK                            x       y       z     vdW  Elec       q    Type
REMARK                         _______ _______ _______ _____ _____    ______ ____
ROOT
ATOM      2  O   UNL     1      12.876   6.500  -1.258  0.00  0.00    -0.252 OA
ATOM      3  O   UNL     1      12.198   7.198   5.584  0.00  0.00    -0.252 OA
ATOM      4  N   UNL     1      10.944   5.227  -0.806  0.00  0.00    -0.280 N 
ATOM      5  N   UNL     1      11.923   6.340   0.884  0.00  0.00    -0.278 N 
ATOM      6  N   UNL     1      11.821   6.007   3.641  0.00  0.00    -0.282 N 
ATOM      7  N   UNL     1      10.247   5.957   5.395  0.00  0.00    -0.269 N 
ATOM      8  C   UNL     1      10.718   5.772   1.467  0.00  0.00    +0.112 C 
ATOM      9  C   UNL     1      10.188   4.846   0.374  0.00  0.00    +0.133 C 
ATOM     11  C   UNL     1      11.050   5.081   2.785  0.00  0.00    +0.133 C 
ATOM     12  C   UNL     1      12.805   7.159   1.696  0.00  0.00    +0.128 C 
ATOM     13  C   UNL     1      12.021   6.079  -0.490  0.00  0.00    +0.305 C 
ATOM     14  C   UNL     1      13.079   6.471   3.034  0.00  0.00    +0.128 C 
ATOM     19  C   UNL     1      11.473   6.438   4.938  0.00  0.00    +0.307 C 
ATOM     26  H   UNL     1       9.531   5.745   4.709  0.00  0.00    +0.156 HD
ENDROOT
BRANCH   4  10
ATOM      1  O   UNL     1       9.137   2.849  -3.733  0.00  0.00    -0.380 OA
ATOM     10  C   UNL     1      10.671   4.659  -2.103  0.00  0.00    +0.082 C 
ATOM     15  C   UNL     1      10.918   3.150  -2.108  0.00  0.00    +0.050 C 
ATOM     16  C   UNL     1       9.239   4.964  -2.542  0.00  0.00    +0.050 C 
ATOM     17  C   UNL     1      10.501   2.543  -3.441  0.00  0.00    +0.161 C 
ATOM     18  C   UNL     1       8.914   4.254  -3.850  0.00  0.00    +0.161 C 
ENDBRANCH   4  10
BRANCH   7  20
ATOM     20  C   UNL     1       9.875   5.690   6.737  0.00  0.00    +0.035 A 
ATOM     21  C   UNL     1       9.346   6.708   7.530  0.00  0.00    +0.023 A 
ATOM     22  C   UNL     1      10.039   4.409   7.264  0.00  0.00    +0.023 A 
ATOM     23  C   UNL     1       8.980   6.445   8.849  0.00  0.00    +0.002 A 
ATOM     24  C   UNL     1       9.674   4.146   8.584  0.00  0.00    +0.002 A 
ATOM     25  C   UNL     1       9.145   5.165   9.377  0.00  0.00    +0.000 A 
ENDBRANCH   7  20
TORSDOF 2
ENDMDL
MODEL 6
REMARK VINA RESULT:      -6.2     29.178     30.757
REMARK  Name = 75368506
REMARK  2 active torsions:
REMARK  status: ('A' for Active; 'I' for Inactive)
REMARK    1  A    between atoms: N_4  and  C_10
REMARK    2  A    between atoms: N_7  and  C_20
REMARK                            x       y       z     vdW  Elec       q    Type
REMARK                         _______ _______ _______ _____ _____    ______ ____
ROOT
ATOM      2  O   UNL     1      -4.466  -9.271   8.426  0.00  0.00    -0.252 OA
ATOM      3  O   UNL     1      -2.764 -10.834  14.939  0.00  0.00    -0.252 OA
ATOM      4  N   UNL     1      -6.490  -8.912   9.581  0.00  0.00    -0.280 N 
ATOM      5  N   UNL     1      -4.665  -9.491  10.757  0.00  0.00    -0.278 N 
ATOM      6  N   UNL     1      -4.353 -10.626  13.274  0.00  0.00    -0.282 N 
ATOM      7  N   UNL     1      -4.921 -10.211  15.524  0.00  0.00    -0.269 N 
ATOM      8  C   UNL     1      -5.683  -9.232  11.762  0.00  0.00    +0.112 C 
ATOM      9  C   UNL     1      -6.962  -9.059  10.946  0.00  0.00    +0.133 C 
ATOM     11  C   UNL     1      -5.720 -10.372  12.774  0.00  0.00    +0.133 C 
ATOM     12  C   UNL     1      -3.324  -9.873  11.164  0.00  0.00    +0.128 C 
ATOM     13  C   UNL     1      -5.122  -9.227   9.458  0.00  0.00    +0.305 C 
ATOM     14  C   UNL     1      -3.389 -10.978  12.219  0.00  0.00    +0.128 C 
ATOM     19  C   UNL     1      -3.929 -10.584  14.618  0.00  0.00    +0.307 C 
ATOM     26  H   UNL     1      -5.665  -9.605  15.194  0.00  0.00    +0.156 HD
ENDROOT
BRANCH   4  10
ATOM      1  O   UNL     1      -9.919  -7.585   7.589  0.00  0.00    -0.380 OA
ATOM     10  C   UNL     1      -7.387  -8.614   8.491  0.00  0.00    +0.082 C 
ATOM     15  C   UNL     1      -8.688  -9.410   8.614  0.00  0.00    +0.050 C 
ATOM     16  C   UNL     1      -7.686  -7.117   8.423  0.00  0.00    +0.050 C 
ATOM     17  C   UNL     1      -9.677  -8.990   7.535  0.00  0.00    +0.161 C 
ATOM     18  C   UNL     1      -8.733  -6.824   7.356  0.00  0.00    +0.161 C 
ENDBRANCH   4  10
BRANCH   7  20
ATOM     20  C   UNL     1      -5.041 -10.608  16.879  0.00  0.00    +0.035 A 
ATOM     21  C   UNL     1      -6.148 -10.209  17.628  0.00  0.00    +0.023 A 
ATOM     22  C   UNL     1      -4.052 -11.399  17.464  0.00  0.00    +0.023 A 
ATOM     23  C   UNL     1      -6.266 -10.600  18.961  0.00  0.00    +0.002 A 
ATOM     24  C   UNL     1      -4.169 -11.788  18.798  0.00  0.00    +0.002 A 
ATOM     25  C   UNL     1      -5.276 -11.389  19.546  0.00  0.00    +0.000 A 
ENDBRANCH   7  20
TORSDOF 2
ENDMDL
MODEL 7
REMARK VINA RESULT:      -6.2     29.046     31.340
REMARK  Name = 75368506
REMARK  2 active torsions:
REMARK  status: ('A' for Active; 'I' for Inactive)
REMARK    1  A    between atoms: N_4  and  C_10
REMARK    2  A    between atoms: N_7  and  C_20
REMARK                            x       y       z     vdW  Elec       q    Type
REMARK                         _______ _______ _______ _____ _____    ______ ____
ROOT
ATOM      2  O   UNL     1      -2.132 -11.337  14.436  0.00  0.00    -0.252 OA
ATOM      3  O   UNL     1      -4.485  -9.336   8.253  0.00  0.00    -0.252 OA
ATOM      4  N   UNL     1      -4.387 -10.820  14.893  0.00  0.00    -0.280 N 
ATOM      5  N   UNL     1      -3.655 -10.675  12.773  0.00  0.00    -0.278 N 
ATOM      6  N   UNL     1      -4.615  -9.296  10.560  0.00  0.00    -0.282 N 
ATOM      7  N   UNL     1      -6.568  -9.119   9.252  0.00  0.00    -0.269 N 
ATOM      8  C   UNL     1      -5.083 -10.416  12.687  0.00  0.00    +0.112 C 
ATOM      9  C   UNL     1      -5.519 -10.300  14.146  0.00  0.00    +0.133 C 
ATOM     11  C   UNL     1      -5.339  -9.173  11.843  0.00  0.00    +0.133 C 
ATOM     12  C   UNL     1      -2.845 -10.686  11.567  0.00  0.00    +0.128 C 
ATOM     13  C   UNL     1      -3.250 -10.991  14.078  0.00  0.00    +0.305 C 
ATOM     14  C   UNL     1      -3.160  -9.459  10.711  0.00  0.00    +0.128 C 
ATOM     19  C   UNL     1      -5.180  -9.246   9.269  0.00  0.00    +0.307 C 
ATOM     26  H   UNL     1      -7.092  -9.497  10.034  0.00  0.00    +0.156 HD
ENDROOT
BRANCH   4  10
ATOM      1  O   UNL     1      -5.893 -11.785  18.673  0.00  0.00    -0.380 OA
ATOM     10  C   UNL     1      -4.431 -10.990  16.324  0.00  0.00    +0.082 C 
ATOM     15  C   UNL     1      -5.517 -10.114  16.951  0.00  0.00    +0.050 C 
ATOM     16  C   UNL     1      -4.654 -12.457  16.694  0.00  0.00    +0.050 C 
ATOM     17  C   UNL     1      -5.642 -10.399  18.442  0.00  0.00    +0.161 C 
ATOM     18  C   UNL     1      -4.829 -12.612  18.199  0.00  0.00    +0.161 C 
ENDBRANCH   4  10
BRANCH   7  20
ATOM     20  C   UNL     1      -7.360  -8.481   8.264  0.00  0.00    +0.035 A 
ATOM     21  C   UNL     1      -7.697  -9.162   7.094  0.00  0.00    +0.023 A 
ATOM     22  C   UNL     1      -7.804  -7.174   8.463  0.00  0.00    +0.023 A 
ATOM     23  C   UNL     1      -8.476  -8.535   6.122  0.00  0.00    +0.002 A 
ATOM     24  C   UNL     1      -8.582  -6.547   7.491  0.00  0.00    +0.002 A 
ATOM     25  C   UNL     1      -8.918  -7.227   6.320  0.00  0.00    +0.000 A 
ENDBRANCH   7  20
TORSDOF 2
ENDMDL
MODEL 8
REMARK VINA RESULT:      -6.1     27.443     32.373
REMARK  Name = 75368506
REMARK  2 active torsions:
REMARK  status: ('A' for Active; 'I' for Inactive)
REMARK    1  A    between atoms: N_4  and  C_10
REMARK    2  A    between atoms: N_7  and  C_20
REMARK                            x       y       z     vdW  Elec       q    Type
REMARK                         _______ _______ _______ _____ _____    ______ ____
ROOT
ATOM      2  O   UNL     1      -4.482 -11.887  18.523  0.00  0.00    -0.252 OA
ATOM      3  O   UNL     1     -10.940  -9.496  19.097  0.00  0.00    -0.252 OA
ATOM      4  N   UNL     1      -4.807 -10.800  16.456  0.00  0.00    -0.280 N 
ATOM      5  N   UNL     1      -6.442 -10.704  17.995  0.00  0.00    -0.278 N 
ATOM      6  N   UNL     1      -9.165 -10.190  17.791  0.00  0.00    -0.282 N 
ATOM      7  N   UNL     1     -10.633  -8.515  17.017  0.00  0.00    -0.269 N 
ATOM      8  C   UNL     1      -6.904  -9.848  16.914  0.00  0.00    +0.112 C 
ATOM      9  C   UNL     1      -5.895 -10.100  15.796  0.00  0.00    +0.133 C 
ATOM     11  C   UNL     1      -8.348 -10.187  16.560  0.00  0.00    +0.133 C 
ATOM     12  C   UNL     1      -7.251 -10.864  19.191  0.00  0.00    +0.128 C 
ATOM     13  C   UNL     1      -5.157 -11.213  17.757  0.00  0.00    +0.305 C 
ATOM     14  C   UNL     1      -8.704 -11.147  18.810  0.00  0.00    +0.128 C 
ATOM     19  C   UNL     1     -10.309  -9.404  18.041  0.00  0.00    +0.307 C 
ATOM     26  H   UNL     1      -9.880  -8.166  16.433  0.00  0.00    +0.156 HD
ENDROOT
BRANCH   4  10
ATOM      1  O   UNL     1      -1.393 -10.310  14.092  0.00  0.00    -0.380 OA
ATOM     10  C   UNL     1      -3.584 -11.132  15.768  0.00  0.00    +0.082 C 
ATOM     15  C   UNL     1      -3.732 -10.941  14.257  0.00  0.00    +0.050 C 
ATOM     16  C   UNL     1      -2.416 -10.298  16.295  0.00  0.00    +0.050 C 
ATOM     17  C   UNL     1      -2.400 -11.167  13.555  0.00  0.00    +0.161 C 
ATOM     18  C   UNL     1      -1.157 -10.558  15.478  0.00  0.00    +0.161 C 
ENDBRANCH   4  10
BRANCH   7  20
ATOM     20  C   UNL     1     -11.922  -8.046  16.661  0.00  0.00    +0.035 A 
ATOM     21  C   UNL     1     -13.041  -8.850  16.880  0.00  0.00    +0.023 A 
ATOM     22  C   UNL     1     -12.072  -6.781  16.092  0.00  0.00    +0.023 A 
ATOM     23  C   UNL     1     -14.309  -8.389  16.530  0.00  0.00    +0.002 A 
ATOM     24  C   UNL     1     -13.340  -6.321  15.741  0.00  0.00    +0.002 A 
ATOM     25  C   UNL     1     -14.459  -7.125  15.960  0.00  0.00    +0.000 A 
ENDBRANCH   7  20
TORSDOF 2
ENDMDL
MODEL 9
REMARK VINA RESULT:      -6.1     28.877     33.483
REMARK  Name = 75368506
REMARK  2 active torsions:
REMARK  status: ('A' for Active; 'I' for Inactive)
REMARK    1  A    between atoms: N_4  and  C_10
REMARK    2  A    between atoms: N_7  and  C_20
REMARK                            x       y       z     vdW  Elec       q    Type
REMARK                         _______ _______ _______ _____ _____    ______ ____
ROOT
ATOM      2  O   UNL     1      -4.755 -10.722   6.873  0.00  0.00    -0.252 OA
ATOM      3  O   UNL     1     -10.415  -6.823   6.144  0.00  0.00    -0.252 OA
ATOM      4  N   UNL     1      -5.073  -9.875   9.051  0.00  0.00    -0.280 N 
ATOM      5  N   UNL     1      -6.584  -9.371   7.465  0.00  0.00    -0.278 N 
ATOM      6  N   UNL     1      -8.450  -7.323   7.253  0.00  0.00    -0.282 N 
ATOM      7  N   UNL     1     -10.289  -6.428   8.427  0.00  0.00    -0.269 N 
ATOM      8  C   UNL     1      -7.133  -8.807   8.688  0.00  0.00    +0.112 C 
ATOM      9  C   UNL     1      -6.000  -8.964   9.700  0.00  0.00    +0.133 C 
ATOM     11  C   UNL     1      -7.580  -7.370   8.447  0.00  0.00    +0.133 C 
ATOM     12  C   UNL     1      -7.320  -9.254   6.219  0.00  0.00    +0.128 C 
ATOM     13  C   UNL     1      -5.393 -10.074   7.693  0.00  0.00    +0.305 C 
ATOM     14  C   UNL     1      -7.805  -7.817   6.026  0.00  0.00    +0.128 C 
ATOM     19  C   UNL     1      -9.775  -6.842   7.199  0.00  0.00    +0.307 C 
ATOM     26  H   UNL     1      -9.930  -6.869   9.267  0.00  0.00    +0.156 HD
ENDROOT
BRANCH   4  10
ATOM      1  O   UNL     1      -2.416 -10.734  12.163  0.00  0.00    -0.380 OA
ATOM     10  C   UNL     1      -3.901 -10.377   9.723  0.00  0.00    +0.082 C 
ATOM     15  C   UNL     1      -3.111  -9.243  10.377  0.00  0.00    +0.050 C 
ATOM     16  C   UNL     1      -4.276 -11.431  10.765  0.00  0.00    +0.050 C 
ATOM     17  C   UNL     1      -1.950  -9.797  11.192  0.00  0.00    +0.161 C 
ATOM     18  C   UNL     1      -3.051 -11.862  11.561  0.00  0.00    +0.161 C 
ENDBRANCH   4  10
BRANCH   7  20
ATOM     20  C   UNL     1     -11.256  -5.418   8.657  0.00  0.00    +0.035 A 
ATOM     21  C   UNL     1     -12.616  -5.725   8.587  0.00  0.00    +0.023 A 
ATOM     22  C   UNL     1     -10.849  -4.117   8.955  0.00  0.00    +0.023 A 
ATOM     23  C   UNL     1     -13.567  -4.731   8.813  0.00  0.00    +0.002 A 
ATOM     24  C   UNL     1     -11.800  -3.123   9.180  0.00  0.00    +0.002 A 
ATOM     25  C   UNL     1     -13.160  -3.430   9.109  0.00  0.00    +0.000 A 
ENDBRANCH   7  20
TORSDOF 2
ENDMDL
MODEL 10
REMARK VINA RESULT:      -5.8     28.795     32.331
REMARK  Name = 75368506
REMARK  2 active torsions:
REMARK  status: ('A' for Active; 'I' for Inactive)
REMARK    1  A    between atoms: N_4  and  C_10
REMARK    2  A    between atoms: N_7  and  C_20
REMARK                            x       y       z     vdW  Elec       q    Type
REMARK                         _______ _______ _______ _____ _____    ______ ____
ROOT
ATOM      2  O   UNL     1     -10.168  -6.986   5.516  0.00  0.00    -0.252 OA
ATOM      3  O   UNL     1      -4.483 -10.332   7.574  0.00  0.00    -0.252 OA
ATOM      4  N   UNL     1      -9.920  -6.246   7.741  0.00  0.00    -0.280 N 
ATOM      5  N   UNL     1      -8.358  -7.611   6.877  0.00  0.00    -0.278 N 
ATOM      6  N   UNL     1      -6.483  -9.284   8.063  0.00  0.00    -0.282 N 
ATOM      7  N   UNL     1      -4.682  -9.187   9.582  0.00  0.00    -0.269 N 
ATOM      8  C   UNL     1      -7.848  -7.255   8.191  0.00  0.00    +0.112 C 
ATOM      9  C   UNL     1      -9.015  -6.516   8.844  0.00  0.00    +0.133 C 
ATOM     11  C   UNL     1      -7.392  -8.508   8.932  0.00  0.00    +0.133 C 
ATOM     12  C   UNL     1      -7.581  -8.478   6.008  0.00  0.00    +0.128 C 
ATOM     13  C   UNL     1      -9.557  -6.950   6.575  0.00  0.00    +0.305 C 
ATOM     14  C   UNL     1      -7.088  -9.698   6.787  0.00  0.00    +0.128 C 
ATOM     19  C   UNL     1      -5.157  -9.661   8.359  0.00  0.00    +0.307 C 
ATOM     26  H   UNL     1      -5.069  -8.320   9.940  0.00  0.00    +0.156 HD
ENDROOT
BRANCH   4  10
ATOM      1  O   UNL     1     -13.174  -4.434   9.643  0.00  0.00    -0.380 OA
ATOM     10  C   UNL     1     -11.115  -5.457   7.910  0.00  0.00    +0.082 C 
ATOM     15  C   UNL     1     -12.281  -6.319   8.397  0.00  0.00    +0.050 C 
ATOM     16  C   UNL     1     -10.873  -4.298   8.877  0.00  0.00    +0.050 C 
ATOM     17  C   UNL     1     -13.498  -5.454   8.698  0.00  0.00    +0.161 C 
ATOM     18  C   UNL     1     -12.168  -3.547   9.154  0.00  0.00    +0.161 C 
ENDBRANCH   4  10
BRANCH   7  20
ATOM     20  C   UNL     1      -3.722  -9.798  10.426  0.00  0.00    +0.035 A 
ATOM     21  C   UNL     1      -4.001 -11.027  11.025  0.00  0.00    +0.023 A 
ATOM     22  C   UNL     1      -2.497  -9.172  10.658  0.00  0.00    +0.023 A 
ATOM     23  C   UNL     1      -3.057 -11.628  11.856  0.00  0.00    +0.002 A 
ATOM     24  C   UNL     1      -1.553  -9.772  11.489  0.00  0.00    +0.002 A 
ATOM     25  C   UNL     1      -1.833 -11.001  12.088  0.00  0.00    +0.000 A 
ENDBRANCH   7  20
TORSDOF 2
ENDMDL
