MODEL 1
REMARK VINA RESULT:      -6.4      0.000      0.000
REMARK  Name = 45783618
REMARK  13 active torsions:
REMARK  status: ('A' for Active; 'I' for Inactive)
REMARK    1  A    between atoms: O_2  and  C_23
REMARK    2  A    between atoms: O_2  and  C_29
REMARK    3  A    between atoms: O_3  and  C_24
REMARK    4  A    between atoms: O_3  and  C_30
REMARK    5  A    between atoms: O_4  and  C_25
REMARK    6  A    between atoms: O_4  and  C_31
REMARK    7  A    between atoms: O_6  and  C_34
REMARK    8  A    between atoms: O_6  and  C_35
REMARK    9  A    between atoms: N_7  and  C_17
REMARK   10  A    between atoms: C_13  and  C_18
REMARK   11  A    between atoms: C_17  and  C_19
REMARK   12  A    between atoms: C_22  and  C_26
REMARK   13  A    between atoms: C_33  and  C_34
REMARK                            x       y       z     vdW  Elec       q    Type
REMARK                         _______ _______ _______ _____ _____    ______ ____
ROOT
ATOM      7  N   UNL     1      -3.575 -10.805  14.435  0.00  0.00    -0.287 NA
ATOM     13  C   UNL     1      -3.805 -11.328  15.797  0.00  0.00    +0.146 C 
ATOM     14  C   UNL     1      -2.556 -10.908  16.593  0.00  0.00    +0.030 C 
ATOM     15  C   UNL     1      -1.655 -10.213  15.584  0.00  0.00    +0.017 C 
ATOM     16  C   UNL     1      -2.124 -10.759  14.250  0.00  0.00    +0.085 C 
ENDROOT
BRANCH  13  18
ATOM      1  O   UNL     1      -5.454  -9.546  16.072  0.00  0.00    -0.336 OA
ATOM      8  N   UNL     1      -5.917 -11.405  17.230  0.00  0.00    -0.190 NA
ATOM      9  N   UNL     1      -6.653  -9.293  16.751  0.00  0.00    -0.056 NA
ATOM     18  C   UNL     1      -5.090 -10.810  16.409  0.00  0.00    +0.245 A 
ATOM     22  C   UNL     1      -6.860 -10.436  17.412  0.00  0.00    +0.207 A 
BRANCH  22  26
ATOM      5  O   UNL     1     -11.461  -8.099  17.453  0.00  0.00    -0.273 OA
ATOM     10  N   UNL     1      -9.284  -8.944  17.154  0.00  0.00    -0.268 N 
ATOM     11  N   UNL     1     -10.247 -10.124  18.945  0.00  0.00    -0.220 NA
ATOM     12  N   UNL     1      -9.002 -11.839  20.090  0.00  0.00    -0.243 NA
ATOM     26  C   UNL     1      -7.999 -10.641  18.259  0.00  0.00    +0.081 A 
ATOM     27  C   UNL     1      -9.176  -9.929  18.149  0.00  0.00    +0.139 A 
ATOM     28  C   UNL     1      -7.969 -11.593  19.259  0.00  0.00    +0.127 A 
ATOM     32  C   UNL     1     -10.094 -11.080  19.881  0.00  0.00    +0.223 A 
ATOM     33  C   UNL     1     -10.377  -8.121  16.878  0.00  0.00    +0.244 C 
ATOM     36  H   UNL     1      -8.468  -8.806  16.564  0.00  0.00    +0.156 HD
BRANCH  33  34
ATOM     34  C   UNL     1     -10.104  -7.189  15.718  0.00  0.00    +0.255 C 
BRANCH  34   6
ATOM      6  O   UNL     1     -10.858  -6.007  15.896  0.00  0.00    -0.374 OA
ATOM     35  C   UNL     1     -11.771  -5.794  14.823  0.00  0.00    +0.194 C 
ENDBRANCH  34   6
ENDBRANCH  33  34
ENDBRANCH  22  26
ENDBRANCH  13  18
BRANCH   7  17
ATOM     17  C   UNL     1      -4.235 -11.590  13.399  0.00  0.00    +0.120 C 
BRANCH  17  19
ATOM     19  C   UNL     1      -5.155 -10.746  12.557  0.00  0.00    -0.026 A 
ATOM     20  C   UNL     1      -6.492 -10.596  12.923  0.00  0.00    +0.054 A 
ATOM     21  C   UNL     1      -4.669 -10.116  11.412  0.00  0.00    +0.054 A 
ATOM     23  C   UNL     1      -5.521  -9.334  10.632  0.00  0.00    +0.165 A 
ATOM     24  C   UNL     1      -7.344  -9.813  12.143  0.00  0.00    +0.165 A 
ATOM     25  C   UNL     1      -6.859  -9.184  10.998  0.00  0.00    +0.204 A 
BRANCH  23   2
ATOM      2  O   UNL     1      -5.034  -8.723   9.515  0.00  0.00    -0.491 OA
ATOM     29  C   UNL     1      -4.566  -9.569   8.467  0.00  0.00    +0.277 C 
ENDBRANCH  23   2
BRANCH  24   3
ATOM      3  O   UNL     1      -8.648  -9.675  12.510  0.00  0.00    -0.491 OA
ATOM     30  C   UNL     1      -9.037 -10.260  13.752  0.00  0.00    +0.277 C 
ENDBRANCH  24   3
BRANCH  25   4
ATOM      4  O   UNL     1      -7.692  -8.420  10.235  0.00  0.00    -0.488 OA
ATOM     31  C   UNL     1      -8.301  -9.051   9.111  0.00  0.00    +0.277 C 
ENDBRANCH  25   4
ENDBRANCH  17  19
ENDBRANCH   7  17
TORSDOF 9
ENDMDL
MODEL 2
REMARK VINA RESULT:      -6.3      0.578      2.215
REMARK  Name = 45783618
REMARK  13 active torsions:
REMARK  status: ('A' for Active; 'I' for Inactive)
REMARK    1  A    between atoms: O_2  and  C_23
REMARK    2  A    between atoms: O_2  and  C_29
REMARK    3  A    between atoms: O_3  and  C_24
REMARK    4  A    between atoms: O_3  and  C_30
REMARK    5  A    between atoms: O_4  and  C_25
REMARK    6  A    between atoms: O_4  and  C_31
REMARK    7  A    between atoms: O_6  and  C_34
REMARK    8  A    between atoms: O_6  and  C_35
REMARK    9  A    between atoms: N_7  and  C_17
REMARK   10  A    between atoms: C_13  and  C_18
REMARK   11  A    between atoms: C_17  and  C_19
REMARK   12  A    between atoms: C_22  and  C_26
REMARK   13  A    between atoms: C_33  and  C_34
REMARK                            x       y       z     vdW  Elec       q    Type
REMARK                         _______ _______ _______ _____ _____    ______ ____
ROOT
ATOM      7  N   UNL     1      -3.293 -10.670  14.211  0.00  0.00    -0.287 NA
ATOM     13  C   UNL     1      -3.415 -11.233  15.571  0.00  0.00    +0.146 C 
ATOM     14  C   UNL     1      -2.164 -10.732  16.315  0.00  0.00    +0.030 C 
ATOM     15  C   UNL     1      -1.369  -9.951  15.279  0.00  0.00    +0.017 C 
ATOM     16  C   UNL     1      -1.860 -10.509  13.958  0.00  0.00    +0.085 C 
ENDROOT
BRANCH  13  18
ATOM      1  O   UNL     1      -5.141  -9.562  16.019  0.00  0.00    -0.336 OA
ATOM      8  N   UNL     1      -5.473 -11.519  17.055  0.00  0.00    -0.190 NA
ATOM      9  N   UNL     1      -6.328  -9.420  16.748  0.00  0.00    -0.056 NA
ATOM     18  C   UNL     1      -4.704 -10.826  16.255  0.00  0.00    +0.245 A 
ATOM     22  C   UNL     1      -6.456 -10.615  17.332  0.00  0.00    +0.207 A 
BRANCH  22  26
ATOM      5  O   UNL     1     -11.379  -9.072  17.195  0.00  0.00    -0.273 OA
ATOM     10  N   UNL     1      -9.090  -9.568  16.961  0.00  0.00    -0.268 N 
ATOM     11  N   UNL     1      -9.867 -10.745  18.842  0.00  0.00    -0.220 NA
ATOM     12  N   UNL     1      -8.369 -12.135  20.118  0.00  0.00    -0.243 NA
ATOM     26  C   UNL     1      -7.556 -10.937  18.195  0.00  0.00    +0.081 A 
ATOM     27  C   UNL     1      -8.833 -10.440  18.030  0.00  0.00    +0.139 A 
ATOM     28  C   UNL     1      -7.381 -11.789  19.267  0.00  0.00    +0.127 A 
ATOM     32  C   UNL     1      -9.569 -11.586  19.851  0.00  0.00    +0.223 A 
ATOM     33  C   UNL     1     -10.300  -8.960  16.622  0.00  0.00    +0.244 C 
ATOM     36  H   UNL     1      -8.301  -9.344  16.359  0.00  0.00    +0.156 HD
BRANCH  33  34
ATOM     34  C   UNL     1     -10.171  -8.091  15.391  0.00  0.00    +0.255 C 
BRANCH  34   6
ATOM      6  O   UNL     1      -9.984  -6.750  15.796  0.00  0.00    -0.374 OA
ATOM     35  C   UNL     1     -11.158  -5.967  15.597  0.00  0.00    +0.194 C 
ENDBRANCH  34   6
ENDBRANCH  33  34
ENDBRANCH  22  26
ENDBRANCH  13  18
BRANCH   7  17
ATOM     17  C   UNL     1      -3.941 -11.486  13.192  0.00  0.00    +0.120 C 
BRANCH  17  19
ATOM     19  C   UNL     1      -4.941 -10.693  12.393  0.00  0.00    -0.026 A 
ATOM     20  C   UNL     1      -4.559 -10.096  11.192  0.00  0.00    +0.054 A 
ATOM     21  C   UNL     1      -6.250 -10.555  12.855  0.00  0.00    +0.054 A 
ATOM     23  C   UNL     1      -7.178  -9.821  12.114  0.00  0.00    +0.165 A 
ATOM     24  C   UNL     1      -5.486  -9.362  10.452  0.00  0.00    +0.165 A 
ATOM     25  C   UNL     1      -6.794  -9.224  10.913  0.00  0.00    +0.204 A 
BRANCH  23   2
ATOM      2  O   UNL     1      -8.453  -9.694  12.576  0.00  0.00    -0.491 OA
ATOM     29  C   UNL     1      -9.032 -10.838  13.200  0.00  0.00    +0.277 C 
ENDBRANCH  23   2
BRANCH  24   3
ATOM      3  O   UNL     1      -5.099  -8.783   9.281  0.00  0.00    -0.491 OA
ATOM     30  C   UNL     1      -5.017  -9.629   8.136  0.00  0.00    +0.277 C 
ENDBRANCH  24   3
BRANCH  25   4
ATOM      4  O   UNL     1      -7.700  -8.506  10.190  0.00  0.00    -0.488 OA
ATOM     31  C   UNL     1      -8.538  -9.234   9.296  0.00  0.00    +0.277 C 
ENDBRANCH  25   4
ENDBRANCH  17  19
ENDBRANCH   7  17
TORSDOF 9
ENDMDL
MODEL 3
REMARK VINA RESULT:      -6.3      2.597      5.216
REMARK  Name = 45783618
REMARK  13 active torsions:
REMARK  status: ('A' for Active; 'I' for Inactive)
REMARK    1  A    between atoms: O_2  and  C_23
REMARK    2  A    between atoms: O_2  and  C_29
REMARK    3  A    between atoms: O_3  and  C_24
REMARK    4  A    between atoms: O_3  and  C_30
REMARK    5  A    between atoms: O_4  and  C_25
REMARK    6  A    between atoms: O_4  and  C_31
REMARK    7  A    between atoms: O_6  and  C_34
REMARK    8  A    between atoms: O_6  and  C_35
REMARK    9  A    between atoms: N_7  and  C_17
REMARK   10  A    between atoms: C_13  and  C_18
REMARK   11  A    between atoms: C_17  and  C_19
REMARK   12  A    between atoms: C_22  and  C_26
REMARK   13  A    between atoms: C_33  and  C_34
REMARK                            x       y       z     vdW  Elec       q    Type
REMARK                         _______ _______ _______ _____ _____    ______ ____
ROOT
ATOM      7  N   UNL     1      -4.447  -9.892  10.148  0.00  0.00    -0.287 NA
ATOM     13  C   UNL     1      -5.338  -8.892  10.770  0.00  0.00    +0.146 C 
ATOM     14  C   UNL     1      -6.374  -8.560   9.680  0.00  0.00    +0.030 C 
ATOM     15  C   UNL     1      -5.948  -9.371   8.465  0.00  0.00    +0.017 C 
ATOM     16  C   UNL     1      -4.475  -9.631   8.708  0.00  0.00    +0.085 C 
ENDROOT
BRANCH  13  18
ATOM      1  O   UNL     1      -7.178 -10.017  11.919  0.00  0.00    -0.336 OA
ATOM      8  N   UNL     1      -5.540  -9.323  13.279  0.00  0.00    -0.190 NA
ATOM      9  N   UNL     1      -7.563 -10.388  13.214  0.00  0.00    -0.056 NA
ATOM     18  C   UNL     1      -5.977  -9.397  12.048  0.00  0.00    +0.245 A 
ATOM     22  C   UNL     1      -6.547  -9.944  13.959  0.00  0.00    +0.207 A 
BRANCH  22  26
ATOM      5  O   UNL     1      -9.763  -8.232  17.615  0.00  0.00    -0.273 OA
ATOM     10  N   UNL     1      -8.520  -8.847  15.712  0.00  0.00    -0.268 N 
ATOM     11  N   UNL     1      -7.411  -9.738  17.584  0.00  0.00    -0.220 NA
ATOM     12  N   UNL     1      -5.384 -11.011  17.312  0.00  0.00    -0.243 NA
ATOM     26  C   UNL     1      -6.506 -10.106  15.384  0.00  0.00    +0.081 A 
ATOM     27  C   UNL     1      -7.449  -9.583  16.244  0.00  0.00    +0.139 A 
ATOM     28  C   UNL     1      -5.484 -10.819  15.980  0.00  0.00    +0.127 A 
ATOM     32  C   UNL     1      -6.366 -10.452  18.043  0.00  0.00    +0.223 A 
ATOM     33  C   UNL     1      -9.570  -8.240  16.403  0.00  0.00    +0.244 C 
ATOM     36  H   UNL     1      -8.535  -8.736  14.701  0.00  0.00    +0.156 HD
BRANCH  33  34
ATOM     34  C   UNL     1     -10.534  -7.543  15.468  0.00  0.00    +0.255 C 
BRANCH  34   6
ATOM      6  O   UNL     1     -11.019  -6.376  16.099  0.00  0.00    -0.374 OA
ATOM     35  C   UNL     1     -12.115  -5.806  15.391  0.00  0.00    +0.194 C 
ENDBRANCH  34   6
ENDBRANCH  33  34
ENDBRANCH  22  26
ENDBRANCH  13  18
BRANCH   7  17
ATOM     17  C   UNL     1      -3.092  -9.866  10.684  0.00  0.00    +0.120 C 
BRANCH  17  19
ATOM     19  C   UNL     1      -2.822 -11.045  11.582  0.00  0.00    -0.026 A 
ATOM     20  C   UNL     1      -3.071 -12.339  11.127  0.00  0.00    +0.054 A 
ATOM     21  C   UNL     1      -2.323 -10.841  12.868  0.00  0.00    +0.054 A 
ATOM     23  C   UNL     1      -2.072 -11.933  13.700  0.00  0.00    +0.165 A 
ATOM     24  C   UNL     1      -2.820 -13.431  11.959  0.00  0.00    +0.165 A 
ATOM     25  C   UNL     1      -2.322 -13.227  13.245  0.00  0.00    +0.204 A 
BRANCH  23   2
ATOM      2  O   UNL     1      -1.585 -11.720  14.955  0.00  0.00    -0.491 OA
ATOM     29  C   UNL     1      -1.315 -10.369  15.324  0.00  0.00    +0.277 C 
ENDBRANCH  23   2
BRANCH  24   3
ATOM      3  O   UNL     1      -3.068 -14.690  11.502  0.00  0.00    -0.491 OA
ATOM     30  C   UNL     1      -4.031 -14.823  10.458  0.00  0.00    +0.277 C 
ENDBRANCH  24   3
BRANCH  25   4
ATOM      4  O   UNL     1      -2.077 -14.294  14.058  0.00  0.00    -0.488 OA
ATOM     31  C   UNL     1      -3.192 -14.845  14.755  0.00  0.00    +0.277 C 
ENDBRANCH  25   4
ENDBRANCH  17  19
ENDBRANCH   7  17
TORSDOF 9
ENDMDL
MODEL 4
REMARK VINA RESULT:      -6.1      3.614      8.996
REMARK  Name = 45783618
REMARK  13 active torsions:
REMARK  status: ('A' for Active; 'I' for Inactive)
REMARK    1  A    between atoms: O_2  and  C_23
REMARK    2  A    between atoms: O_2  and  C_29
REMARK    3  A    between atoms: O_3  and  C_24
REMARK    4  A    between atoms: O_3  and  C_30
REMARK    5  A    between atoms: O_4  and  C_25
REMARK    6  A    between atoms: O_4  and  C_31
REMARK    7  A    between atoms: O_6  and  C_34
REMARK    8  A    between atoms: O_6  and  C_35
REMARK    9  A    between atoms: N_7  and  C_17
REMARK   10  A    between atoms: C_13  and  C_18
REMARK   11  A    between atoms: C_17  and  C_19
REMARK   12  A    between atoms: C_22  and  C_26
REMARK   13  A    between atoms: C_33  and  C_34
REMARK                            x       y       z     vdW  Elec       q    Type
REMARK                         _______ _______ _______ _____ _____    ______ ____
ROOT
ATOM      7  N   UNL     1      -3.762 -11.795  13.404  0.00  0.00    -0.287 NA
ATOM     13  C   UNL     1      -2.941 -11.792  12.177  0.00  0.00    +0.146 C 
ATOM     14  C   UNL     1      -2.943 -13.256  11.700  0.00  0.00    +0.030 C 
ATOM     15  C   UNL     1      -3.735 -14.016  12.754  0.00  0.00    +0.017 C 
ATOM     16  C   UNL     1      -3.634 -13.134  13.982  0.00  0.00    +0.085 C 
ENDROOT
BRANCH  13  18
ATOM      1  O   UNL     1      -2.627  -9.842  10.737  0.00  0.00    -0.336 OA
ATOM      8  N   UNL     1      -4.633 -10.818  10.530  0.00  0.00    -0.190 NA
ATOM      9  N   UNL     1      -3.326  -9.098   9.777  0.00  0.00    -0.056 NA
ATOM     18  C   UNL     1      -3.468 -10.835  11.127  0.00  0.00    +0.245 A 
ATOM     22  C   UNL     1      -4.499  -9.735   9.711  0.00  0.00    +0.207 A 
BRANCH  22  26
ATOM      5  O   UNL     1      -5.660 -11.234   4.911  0.00  0.00    -0.273 OA
ATOM     10  N   UNL     1      -4.854 -10.788   7.078  0.00  0.00    -0.268 N 
ATOM     11  N   UNL     1      -6.736  -9.420   6.741  0.00  0.00    -0.220 NA
ATOM     12  N   UNL     1      -7.485  -7.923   8.474  0.00  0.00    -0.243 NA
ATOM     26  C   UNL     1      -5.556  -9.316   8.837  0.00  0.00    +0.081 A 
ATOM     27  C   UNL     1      -5.741  -9.814   7.563  0.00  0.00    +0.139 A 
ATOM     28  C   UNL     1      -6.468  -8.363   9.243  0.00  0.00    +0.127 A 
ATOM     32  C   UNL     1      -7.560  -8.486   7.253  0.00  0.00    +0.223 A 
ATOM     33  C   UNL     1      -4.867 -11.414   5.831  0.00  0.00    +0.244 C 
ATOM     36  H   UNL     1      -4.107 -11.073   7.706  0.00  0.00    +0.156 HD
BRANCH  33  34
ATOM     34  C   UNL     1      -3.744 -12.418   5.690  0.00  0.00    +0.255 C 
BRANCH  34   6
ATOM      6  O   UNL     1      -3.031 -12.142   4.502  0.00  0.00    -0.374 OA
ATOM     35  C   UNL     1      -3.011 -13.262   3.623  0.00  0.00    +0.194 C 
ENDBRANCH  34   6
ENDBRANCH  33  34
ENDBRANCH  22  26
ENDBRANCH  13  18
BRANCH   7  17
ATOM     17  C   UNL     1      -3.385 -10.752  14.350  0.00  0.00    +0.120 C 
BRANCH  17  19
ATOM     19  C   UNL     1      -4.425 -10.567  15.423  0.00  0.00    -0.026 A 
ATOM     20  C   UNL     1      -4.129 -10.898  16.745  0.00  0.00    +0.054 A 
ATOM     21  C   UNL     1      -5.683 -10.064  15.095  0.00  0.00    +0.054 A 
ATOM     23  C   UNL     1      -6.647  -9.892  16.089  0.00  0.00    +0.165 A 
ATOM     24  C   UNL     1      -5.092 -10.726  17.739  0.00  0.00    +0.165 A 
ATOM     25  C   UNL     1      -6.351 -10.224  17.411  0.00  0.00    +0.204 A 
BRANCH  23   2
ATOM      2  O   UNL     1      -7.873  -9.400  15.756  0.00  0.00    -0.491 OA
ATOM     29  C   UNL     1      -8.715 -10.240  14.969  0.00  0.00    +0.277 C 
ENDBRANCH  23   2
BRANCH  24   3
ATOM      3  O   UNL     1      -4.790 -11.055  19.026  0.00  0.00    -0.491 OA
ATOM     30  C   UNL     1      -3.852 -12.112  19.223  0.00  0.00    +0.277 C 
ENDBRANCH  24   3
BRANCH  25   4
ATOM      4  O   UNL     1      -7.293 -10.057  18.383  0.00  0.00    -0.488 OA
ATOM     31  C   UNL     1      -8.142 -11.168  18.660  0.00  0.00    +0.277 C 
ENDBRANCH  25   4
ENDBRANCH  17  19
ENDBRANCH   7  17
TORSDOF 9
ENDMDL
MODEL 5
REMARK VINA RESULT:      -6.1      3.582      8.949
REMARK  Name = 45783618
REMARK  13 active torsions:
REMARK  status: ('A' for Active; 'I' for Inactive)
REMARK    1  A    between atoms: O_2  and  C_23
REMARK    2  A    between atoms: O_2  and  C_29
REMARK    3  A    between atoms: O_3  and  C_24
REMARK    4  A    between atoms: O_3  and  C_30
REMARK    5  A    between atoms: O_4  and  C_25
REMARK    6  A    between atoms: O_4  and  C_31
REMARK    7  A    between atoms: O_6  and  C_34
REMARK    8  A    between atoms: O_6  and  C_35
REMARK    9  A    between atoms: N_7  and  C_17
REMARK   10  A    between atoms: C_13  and  C_18
REMARK   11  A    between atoms: C_17  and  C_19
REMARK   12  A    between atoms: C_22  and  C_26
REMARK   13  A    between atoms: C_33  and  C_34
REMARK                            x       y       z     vdW  Elec       q    Type
REMARK                         _______ _______ _______ _____ _____    ______ ____
ROOT
ATOM      7  N   UNL     1      -3.797 -11.805  13.388  0.00  0.00    -0.287 NA
ATOM     13  C   UNL     1      -2.979 -11.802  12.158  0.00  0.00    +0.146 C 
ATOM     14  C   UNL     1      -2.996 -13.264  11.674  0.00  0.00    +0.030 C 
ATOM     15  C   UNL     1      -3.791 -14.022  12.727  0.00  0.00    +0.017 C 
ATOM     16  C   UNL     1      -3.680 -13.147  13.959  0.00  0.00    +0.085 C 
ENDROOT
BRANCH  13  18
ATOM      1  O   UNL     1      -2.639  -9.874  10.695  0.00  0.00    -0.336 OA
ATOM      8  N   UNL     1      -4.679 -10.785  10.546  0.00  0.00    -0.190 NA
ATOM      9  N   UNL     1      -3.337  -9.114   9.748  0.00  0.00    -0.056 NA
ATOM     18  C   UNL     1      -3.502 -10.836  11.114  0.00  0.00    +0.245 A 
ATOM     22  C   UNL     1      -4.531  -9.713   9.716  0.00  0.00    +0.207 A 
BRANCH  22  26
ATOM      5  O   UNL     1      -5.857 -11.202   4.956  0.00  0.00    -0.273 OA
ATOM     10  N   UNL     1      -4.984 -10.770   7.100  0.00  0.00    -0.268 N 
ATOM     11  N   UNL     1      -6.829  -9.344   6.799  0.00  0.00    -0.220 NA
ATOM     12  N   UNL     1      -7.488  -7.813   8.539  0.00  0.00    -0.243 NA
ATOM     26  C   UNL     1      -5.595  -9.265   8.864  0.00  0.00    +0.081 A 
ATOM     27  C   UNL     1      -5.828  -9.764   7.599  0.00  0.00    +0.139 A 
ATOM     28  C   UNL     1      -6.466  -8.281   9.287  0.00  0.00    +0.127 A 
ATOM     32  C   UNL     1      -7.610  -8.381   7.324  0.00  0.00    +0.223 A 
ATOM     33  C   UNL     1      -5.048 -11.402   5.857  0.00  0.00    +0.244 C 
ATOM     36  H   UNL     1      -4.232 -11.075   7.711  0.00  0.00    +0.156 HD
BRANCH  33  34
ATOM     34  C   UNL     1      -3.961 -12.442   5.696  0.00  0.00    +0.255 C 
BRANCH  34   6
ATOM      6  O   UNL     1      -3.012 -11.970   4.762  0.00  0.00    -0.374 OA
ATOM     35  C   UNL     1      -3.107 -12.653   3.516  0.00  0.00    +0.194 C 
ENDBRANCH  34   6
ENDBRANCH  33  34
ENDBRANCH  22  26
ENDBRANCH  13  18
BRANCH   7  17
ATOM     17  C   UNL     1      -3.408 -10.769  14.337  0.00  0.00    +0.120 C 
BRANCH  17  19
ATOM     19  C   UNL     1      -4.449 -10.572  15.407  0.00  0.00    -0.026 A 
ATOM     20  C   UNL     1      -5.708 -10.076  15.072  0.00  0.00    +0.054 A 
ATOM     21  C   UNL     1      -4.152 -10.884  16.734  0.00  0.00    +0.054 A 
ATOM     23  C   UNL     1      -5.116 -10.702  17.726  0.00  0.00    +0.165 A 
ATOM     24  C   UNL     1      -6.672  -9.893  16.064  0.00  0.00    +0.165 A 
ATOM     25  C   UNL     1      -6.376 -10.205  17.390  0.00  0.00    +0.204 A 
BRANCH  23   2
ATOM      2  O   UNL     1      -4.814 -11.011  19.018  0.00  0.00    -0.491 OA
ATOM     29  C   UNL     1      -3.855 -12.046  19.229  0.00  0.00    +0.277 C 
ENDBRANCH  23   2
BRANCH  24   3
ATOM      3  O   UNL     1      -7.898  -9.407  15.724  0.00  0.00    -0.491 OA
ATOM     30  C   UNL     1      -8.451  -9.852  14.487  0.00  0.00    +0.277 C 
ENDBRANCH  24   3
BRANCH  25   4
ATOM      4  O   UNL     1      -7.318 -10.026  18.360  0.00  0.00    -0.488 OA
ATOM     31  C   UNL     1      -8.164 -11.135  18.653  0.00  0.00    +0.277 C 
ENDBRANCH  25   4
ENDBRANCH  17  19
ENDBRANCH   7  17
TORSDOF 9
ENDMDL
MODEL 6
REMARK VINA RESULT:      -6.1     24.530     27.608
REMARK  Name = 45783618
REMARK  13 active torsions:
REMARK  status: ('A' for Active; 'I' for Inactive)
REMARK    1  A    between atoms: O_2  and  C_23
REMARK    2  A    between atoms: O_2  and  C_29
REMARK    3  A    between atoms: O_3  and  C_24
REMARK    4  A    between atoms: O_3  and  C_30
REMARK    5  A    between atoms: O_4  and  C_25
REMARK    6  A    between atoms: O_4  and  C_31
REMARK    7  A    between atoms: O_6  and  C_34
REMARK    8  A    between atoms: O_6  and  C_35
REMARK    9  A    between atoms: N_7  and  C_17
REMARK   10  A    between atoms: C_13  and  C_18
REMARK   11  A    between atoms: C_17  and  C_19
REMARK   12  A    between atoms: C_22  and  C_26
REMARK   13  A    between atoms: C_33  and  C_34
REMARK                            x       y       z     vdW  Elec       q    Type
REMARK                         _______ _______ _______ _____ _____    ______ ____
ROOT
ATOM      7  N   UNL     1       9.325   7.800   6.472  0.00  0.00    -0.287 NA
ATOM     13  C   UNL     1      10.487   6.894   6.568  0.00  0.00    +0.146 C 
ATOM     14  C   UNL     1      10.273   6.121   7.882  0.00  0.00    +0.030 C 
ATOM     15  C   UNL     1       9.003   6.703   8.484  0.00  0.00    +0.017 C 
ATOM     16  C   UNL     1       8.900   8.074   7.845  0.00  0.00    +0.085 C 
ENDROOT
BRANCH  13  18
ATOM      1  O   UNL     1      10.140   4.715   5.517  0.00  0.00    -0.336 OA
ATOM      8  N   UNL     1      11.117   6.226   4.184  0.00  0.00    -0.190 NA
ATOM      9  N   UNL     1      10.364   4.069   4.294  0.00  0.00    -0.056 NA
ATOM     18  C   UNL     1      10.612   5.979   5.366  0.00  0.00    +0.245 A 
ATOM     22  C   UNL     1      10.943   5.025   3.562  0.00  0.00    +0.207 A 
BRANCH  22  26
ATOM      5  O   UNL     1      15.345   6.270   1.172  0.00  0.00    -0.273 OA
ATOM     10  N   UNL     1      13.487   5.854   2.558  0.00  0.00    -0.268 N 
ATOM     11  N   UNL     1      12.969   5.006   0.428  0.00  0.00    -0.220 NA
ATOM     12  N   UNL     1      10.843   3.950   0.017  0.00  0.00    -0.243 NA
ATOM     26  C   UNL     1      11.356   4.813   2.205  0.00  0.00    +0.081 A 
ATOM     27  C   UNL     1      12.580   5.207   1.704  0.00  0.00    +0.139 A 
ATOM     28  C   UNL     1      10.519   4.182   1.306  0.00  0.00    +0.127 A 
ATOM     32  C   UNL     1      12.064   4.381  -0.350  0.00  0.00    +0.223 A 
ATOM     33  C   UNL     1      14.764   6.328   2.252  0.00  0.00    +0.244 C 
ATOM     36  H   UNL     1      13.180   6.002   3.516  0.00  0.00    +0.156 HD
BRANCH  33  34
ATOM     34  C   UNL     1      15.435   6.961   3.452  0.00  0.00    +0.255 C 
BRANCH  34   6
ATOM      6  O   UNL     1      14.442   7.333   4.385  0.00  0.00    -0.374 OA
ATOM     35  C   UNL     1      14.959   7.404   5.711  0.00  0.00    +0.194 C 
ENDBRANCH  34   6
ENDBRANCH  33  34
ENDBRANCH  22  26
ENDBRANCH  13  18
BRANCH   7  17
ATOM     17  C   UNL     1       9.609   9.022   5.732  0.00  0.00    +0.120 C 
BRANCH  17  19
ATOM     19  C   UNL     1       8.672   9.204   4.567  0.00  0.00    -0.026 A 
ATOM     20  C   UNL     1       9.089   8.871   3.279  0.00  0.00    +0.054 A 
ATOM     21  C   UNL     1       7.388   9.705   4.778  0.00  0.00    +0.054 A 
ATOM     23  C   UNL     1       6.519   9.872   3.699  0.00  0.00    +0.165 A 
ATOM     24  C   UNL     1       8.221   9.039   2.200  0.00  0.00    +0.165 A 
ATOM     25  C   UNL     1       6.937   9.540   2.410  0.00  0.00    +0.204 A 
BRANCH  23   2
ATOM      2  O   UNL     1       5.267  10.362   3.917  0.00  0.00    -0.491 OA
ATOM     29  C   UNL     1       5.172  11.666   4.488  0.00  0.00    +0.277 C 
ENDBRANCH  23   2
BRANCH  24   3
ATOM      3  O   UNL     1       8.641   8.711   0.946  0.00  0.00    -0.491 OA
ATOM     30  C   UNL     1       9.776   7.854   0.846  0.00  0.00    +0.277 C 
ENDBRANCH  24   3
BRANCH  25   4
ATOM      4  O   UNL     1       6.088   9.704   1.355  0.00  0.00    -0.488 OA
ATOM     31  C   UNL     1       6.109  10.970   0.699  0.00  0.00    +0.277 C 
ENDBRANCH  25   4
ENDBRANCH  17  19
ENDBRANCH   7  17
TORSDOF 9
ENDMDL
MODEL 7
REMARK VINA RESULT:      -6.1     24.916     28.421
REMARK  Name = 45783618
REMARK  13 active torsions:
REMARK  status: ('A' for Active; 'I' for Inactive)
REMARK    1  A    between atoms: O_2  and  C_23
REMARK    2  A    between atoms: O_2  and  C_29
REMARK    3  A    between atoms: O_3  and  C_24
REMARK    4  A    between atoms: O_3  and  C_30
REMARK    5  A    between atoms: O_4  and  C_25
REMARK    6  A    between atoms: O_4  and  C_31
REMARK    7  A    between atoms: O_6  and  C_34
REMARK    8  A    between atoms: O_6  and  C_35
REMARK    9  A    between atoms: N_7  and  C_17
REMARK   10  A    between atoms: C_13  and  C_18
REMARK   11  A    between atoms: C_17  and  C_19
REMARK   12  A    between atoms: C_22  and  C_26
REMARK   13  A    between atoms: C_33  and  C_34
REMARK                            x       y       z     vdW  Elec       q    Type
REMARK                         _______ _______ _______ _____ _____    ______ ____
ROOT
ATOM      7  N   UNL     1      14.055   5.476   1.994  0.00  0.00    -0.287 NA
ATOM     13  C   UNL     1      12.731   5.142   1.430  0.00  0.00    +0.146 C 
ATOM     14  C   UNL     1      12.789   3.627   1.167  0.00  0.00    +0.030 C 
ATOM     15  C   UNL     1      14.200   3.209   1.554  0.00  0.00    +0.017 C 
ATOM     16  C   UNL     1      14.995   4.495   1.450  0.00  0.00    +0.085 C 
ENDROOT
BRANCH  13  18
ATOM      1  O   UNL     1      11.126   4.564   3.179  0.00  0.00    -0.336 OA
ATOM      8  N   UNL     1      10.976   6.682   2.466  0.00  0.00    -0.190 NA
ATOM      9  N   UNL     1      10.091   5.153   3.918  0.00  0.00    -0.056 NA
ATOM     18  C   UNL     1      11.592   5.533   2.349  0.00  0.00    +0.245 A 
ATOM     22  C   UNL     1      10.064   6.400   3.439  0.00  0.00    +0.207 A 
BRANCH  22  26
ATOM      5  O   UNL     1       8.607   7.578   8.248  0.00  0.00    -0.273 OA
ATOM     10  N   UNL     1       9.485   6.789   6.211  0.00  0.00    -0.268 N 
ATOM     11  N   UNL     1       7.978   8.519   5.695  0.00  0.00    -0.220 NA
ATOM     12  N   UNL     1       7.593   9.162   3.405  0.00  0.00    -0.243 NA
ATOM     26  C   UNL     1       9.139   7.388   3.915  0.00  0.00    +0.081 A 
ATOM     27  C   UNL     1       8.847   7.588   5.249  0.00  0.00    +0.139 A 
ATOM     28  C   UNL     1       8.475   8.213   3.029  0.00  0.00    +0.127 A 
ATOM     32  C   UNL     1       7.396   9.260   4.734  0.00  0.00    +0.223 A 
ATOM     33  C   UNL     1       9.331   6.830   7.597  0.00  0.00    +0.244 C 
ATOM     36  H   UNL     1      10.134   6.090   5.860  0.00  0.00    +0.156 HD
BRANCH  33  34
ATOM     34  C   UNL     1      10.202   5.808   8.294  0.00  0.00    +0.255 C 
BRANCH  34   6
ATOM      6  O   UNL     1       9.411   4.683   8.621  0.00  0.00    -0.374 OA
ATOM     35  C   UNL     1       9.163   4.598  10.021  0.00  0.00    +0.194 C 
ENDBRANCH  34   6
ENDBRANCH  33  34
ENDBRANCH  22  26
ENDBRANCH  13  18
BRANCH   7  17
ATOM     17  C   UNL     1      14.469   6.845   1.715  0.00  0.00    +0.120 C 
BRANCH  17  19
ATOM     19  C   UNL     1      15.241   7.442   2.862  0.00  0.00    -0.026 A 
ATOM     20  C   UNL     1      16.464   8.069   2.628  0.00  0.00    +0.054 A 
ATOM     21  C   UNL     1      14.732   7.366   4.159  0.00  0.00    +0.054 A 
ATOM     23  C   UNL     1      15.447   7.919   5.222  0.00  0.00    +0.165 A 
ATOM     24  C   UNL     1      17.179   8.622   3.691  0.00  0.00    +0.165 A 
ATOM     25  C   UNL     1      16.671   8.546   4.987  0.00  0.00    +0.204 A 
BRANCH  23   2
ATOM      2  O   UNL     1      14.939   7.838   6.484  0.00  0.00    -0.491 OA
ATOM     29  C   UNL     1      13.747   8.574   6.750  0.00  0.00    +0.277 C 
ENDBRANCH  23   2
BRANCH  24   3
ATOM      3  O   UNL     1      18.373   9.230   3.449  0.00  0.00    -0.491 OA
ATOM     30  C   UNL     1      18.719   9.459   2.084  0.00  0.00    +0.277 C 
ENDBRANCH  24   3
BRANCH  25   4
ATOM      4  O   UNL     1      17.370   9.085   6.027  0.00  0.00    -0.488 OA
ATOM     31  C   UNL     1      17.169  10.472   6.291  0.00  0.00    +0.277 C 
ENDBRANCH  25   4
ENDBRANCH  17  19
ENDBRANCH   7  17
TORSDOF 9
ENDMDL
MODEL 8
REMARK VINA RESULT:      -6.0     25.031     28.489
REMARK  Name = 45783618
REMARK  13 active torsions:
REMARK  status: ('A' for Active; 'I' for Inactive)
REMARK    1  A    between atoms: O_2  and  C_23
REMARK    2  A    between atoms: O_2  and  C_29
REMARK    3  A    between atoms: O_3  and  C_24
REMARK    4  A    between atoms: O_3  and  C_30
REMARK    5  A    between atoms: O_4  and  C_25
REMARK    6  A    between atoms: O_4  and  C_31
REMARK    7  A    between atoms: O_6  and  C_34
REMARK    8  A    between atoms: O_6  and  C_35
REMARK    9  A    between atoms: N_7  and  C_17
REMARK   10  A    between atoms: C_13  and  C_18
REMARK   11  A    between atoms: C_17  and  C_19
REMARK   12  A    between atoms: C_22  and  C_26
REMARK   13  A    between atoms: C_33  and  C_34
REMARK                            x       y       z     vdW  Elec       q    Type
REMARK                         _______ _______ _______ _____ _____    ______ ____
ROOT
ATOM      7  N   UNL     1      10.621   5.594   4.773  0.00  0.00    -0.287 NA
ATOM     13  C   UNL     1      10.673   6.515   5.925  0.00  0.00    +0.146 C 
ATOM     14  C   UNL     1      10.044   5.724   7.087  0.00  0.00    +0.030 C 
ATOM     15  C   UNL     1       9.612   4.398   6.478  0.00  0.00    +0.017 C 
ATOM     16  C   UNL     1       9.476   4.710   5.002  0.00  0.00    +0.085 C 
ENDROOT
BRANCH  13  18
ATOM      1  O   UNL     1      12.789   6.231   7.114  0.00  0.00    -0.336 OA
ATOM      8  N   UNL     1      12.729   8.023   5.772  0.00  0.00    -0.190 NA
ATOM      9  N   UNL     1      14.039   6.853   7.236  0.00  0.00    -0.056 NA
ATOM     18  C   UNL     1      12.081   6.984   6.233  0.00  0.00    +0.245 A 
ATOM     22  C   UNL     1      13.925   7.901   6.416  0.00  0.00    +0.207 A 
BRANCH  22  26
ATOM      5  O   UNL     1      14.221  12.913   7.611  0.00  0.00    -0.273 OA
ATOM     10  N   UNL     1      13.751  10.640   7.211  0.00  0.00    -0.268 N 
ATOM     11  N   UNL     1      15.921  11.053   6.406  0.00  0.00    -0.220 NA
ATOM     12  N   UNL     1      17.208   9.284   5.398  0.00  0.00    -0.243 NA
ATOM     26  C   UNL     1      14.988   8.843   6.216  0.00  0.00    +0.081 A 
ATOM     27  C   UNL     1      14.920  10.168   6.593  0.00  0.00    +0.139 A 
ATOM     28  C   UNL     1      16.169   8.452   5.616  0.00  0.00    +0.127 A 
ATOM     32  C   UNL     1      17.020  10.551   5.811  0.00  0.00    +0.223 A 
ATOM     33  C   UNL     1      13.484  11.933   7.664  0.00  0.00    +0.244 C 
ATOM     36  H   UNL     1      13.004   9.964   7.343  0.00  0.00    +0.156 HD
BRANCH  33  34
ATOM     34  C   UNL     1      12.107  12.042   8.283  0.00  0.00    +0.255 C 
BRANCH  34   6
ATOM      6  O   UNL     1      12.099  11.332   9.504  0.00  0.00    -0.374 OA
ATOM     35  C   UNL     1      12.443  12.167  10.606  0.00  0.00    +0.194 C 
ENDBRANCH  34   6
ENDBRANCH  33  34
ENDBRANCH  22  26
ENDBRANCH  13  18
BRANCH   7  17
ATOM     17  C   UNL     1      10.534   6.282   3.491  0.00  0.00    +0.120 C 
BRANCH  17  19
ATOM     19  C   UNL     1      10.991   5.408   2.353  0.00  0.00    -0.026 A 
ATOM     20  C   UNL     1      10.285   5.402   1.151  0.00  0.00    +0.054 A 
ATOM     21  C   UNL     1      12.121   4.603   2.503  0.00  0.00    +0.054 A 
ATOM     23  C   UNL     1      12.545   3.793   1.449  0.00  0.00    +0.165 A 
ATOM     24  C   UNL     1      10.710   4.592   0.097  0.00  0.00    +0.165 A 
ATOM     25  C   UNL     1      11.838   3.788   0.247  0.00  0.00    +0.204 A 
BRANCH  23   2
ATOM      2  O   UNL     1      13.650   3.012   1.608  0.00  0.00    -0.491 OA
ATOM     29  C   UNL     1      14.915   3.671   1.600  0.00  0.00    +0.277 C 
ENDBRANCH  23   2
BRANCH  24   3
ATOM      3  O   UNL     1      10.010   4.595  -1.072  0.00  0.00    -0.491 OA
ATOM     30  C   UNL     1       9.908   5.839  -1.763  0.00  0.00    +0.277 C 
ENDBRANCH  24   3
BRANCH  25   4
ATOM      4  O   UNL     1      12.252   2.996  -0.783  0.00  0.00    -0.488 OA
ATOM     31  C   UNL     1      13.137   3.582  -1.735  0.00  0.00    +0.277 C 
ENDBRANCH  25   4
ENDBRANCH  17  19
ENDBRANCH   7  17
TORSDOF 9
ENDMDL
MODEL 9
REMARK VINA RESULT:      -5.9      2.003      6.591
REMARK  Name = 45783618
REMARK  13 active torsions:
REMARK  status: ('A' for Active; 'I' for Inactive)
REMARK    1  A    between atoms: O_2  and  C_23
REMARK    2  A    between atoms: O_2  and  C_29
REMARK    3  A    between atoms: O_3  and  C_24
REMARK    4  A    between atoms: O_3  and  C_30
REMARK    5  A    between atoms: O_4  and  C_25
REMARK    6  A    between atoms: O_4  and  C_31
REMARK    7  A    between atoms: O_6  and  C_34
REMARK    8  A    between atoms: O_6  and  C_35
REMARK    9  A    between atoms: N_7  and  C_17
REMARK   10  A    between atoms: C_13  and  C_18
REMARK   11  A    between atoms: C_17  and  C_19
REMARK   12  A    between atoms: C_22  and  C_26
REMARK   13  A    between atoms: C_33  and  C_34
REMARK                            x       y       z     vdW  Elec       q    Type
REMARK                         _______ _______ _______ _____ _____    ______ ____
ROOT
ATOM      7  N   UNL     1      -7.015 -10.550  17.937  0.00  0.00    -0.287 NA
ATOM     13  C   UNL     1      -5.548 -10.675  18.050  0.00  0.00    +0.146 C 
ATOM     14  C   UNL     1      -5.329 -11.754  19.126  0.00  0.00    +0.030 C 
ATOM     15  C   UNL     1      -6.724 -12.129  19.603  0.00  0.00    +0.017 C 
ATOM     16  C   UNL     1      -7.563 -10.919  19.243  0.00  0.00    +0.085 C 
ENDROOT
BRANCH  13  18
ATOM      1  O   UNL     1      -4.507 -12.318  16.570  0.00  0.00    -0.336 OA
ATOM      8  N   UNL     1      -4.629 -10.256  15.704  0.00  0.00    -0.190 NA
ATOM      9  N   UNL     1      -3.933 -12.396  15.294  0.00  0.00    -0.056 NA
ATOM     18  C   UNL     1      -4.890 -11.025  16.730  0.00  0.00    +0.245 A 
ATOM     22  C   UNL     1      -4.042 -11.141  14.848  0.00  0.00    +0.207 A 
BRANCH  22  26
ATOM      5  O   UNL     1      -6.624  -9.229  10.810  0.00  0.00    -0.273 OA
ATOM     10  N   UNL     1      -5.771 -10.109  12.820  0.00  0.00    -0.268 N 
ATOM     11  N   UNL     1      -3.958  -9.864  11.343  0.00  0.00    -0.220 NA
ATOM     12  N   UNL     1      -1.732 -10.483  12.026  0.00  0.00    -0.243 NA
ATOM     26  C   UNL     1      -3.576 -10.741  13.552  0.00  0.00    +0.081 A 
ATOM     27  C   UNL     1      -4.397 -10.241  12.561  0.00  0.00    +0.139 A 
ATOM     28  C   UNL     1      -2.238 -10.840  13.224  0.00  0.00    +0.127 A 
ATOM     32  C   UNL     1      -2.634 -10.009  11.146  0.00  0.00    +0.223 A 
ATOM     33  C   UNL     1      -6.762  -9.630  11.962  0.00  0.00    +0.244 C 
ATOM     36  H   UNL     1      -6.088 -10.400  13.741  0.00  0.00    +0.156 HD
BRANCH  33  34
ATOM     34  C   UNL     1      -8.126  -9.635  12.615  0.00  0.00    +0.255 C 
BRANCH  34   6
ATOM      6  O   UNL     1      -9.049 -10.249  11.739  0.00  0.00    -0.374 OA
ATOM     35  C   UNL     1     -10.328  -9.625  11.793  0.00  0.00    +0.194 C 
ENDBRANCH  34   6
ENDBRANCH  33  34
ENDBRANCH  22  26
ENDBRANCH  13  18
BRANCH   7  17
ATOM     17  C   UNL     1      -7.447  -9.223  17.516  0.00  0.00    +0.120 C 
BRANCH  17  19
ATOM     19  C   UNL     1      -8.793  -9.260  16.843  0.00  0.00    -0.026 A 
ATOM     20  C   UNL     1      -9.666  -8.180  16.970  0.00  0.00    +0.054 A 
ATOM     21  C   UNL     1      -9.167 -10.375  16.092  0.00  0.00    +0.054 A 
ATOM     23  C   UNL     1     -10.414 -10.409  15.467  0.00  0.00    +0.165 A 
ATOM     24  C   UNL     1     -10.913  -8.214  16.345  0.00  0.00    +0.165 A 
ATOM     25  C   UNL     1     -11.287  -9.328  15.595  0.00  0.00    +0.204 A 
BRANCH  23   2
ATOM      2  O   UNL     1     -10.767 -11.503  14.737  0.00  0.00    -0.491 OA
ATOM     29  C   UNL     1      -9.772 -12.509  14.556  0.00  0.00    +0.277 C 
ENDBRANCH  23   2
BRANCH  24   3
ATOM      3  O   UNL     1     -11.756  -7.153  16.478  0.00  0.00    -0.491 OA
ATOM     30  C   UNL     1     -11.365  -5.931  15.855  0.00  0.00    +0.277 C 
ENDBRANCH  24   3
BRANCH  25   4
ATOM      4  O   UNL     1     -12.506  -9.362  14.985  0.00  0.00    -0.488 OA
ATOM     31  C   UNL     1     -13.588  -9.914  15.731  0.00  0.00    +0.277 C 
ENDBRANCH  25   4
ENDBRANCH  17  19
ENDBRANCH   7  17
TORSDOF 9
ENDMDL
MODEL 10
REMARK VINA RESULT:      -5.9     23.218     26.984
REMARK  Name = 45783618
REMARK  13 active torsions:
REMARK  status: ('A' for Active; 'I' for Inactive)
REMARK    1  A    between atoms: O_2  and  C_23
REMARK    2  A    between atoms: O_2  and  C_29
REMARK    3  A    between atoms: O_3  and  C_24
REMARK    4  A    between atoms: O_3  and  C_30
REMARK    5  A    between atoms: O_4  and  C_25
REMARK    6  A    between atoms: O_4  and  C_31
REMARK    7  A    between atoms: O_6  and  C_34
REMARK    8  A    between atoms: O_6  and  C_35
REMARK    9  A    between atoms: N_7  and  C_17
REMARK   10  A    between atoms: C_13  and  C_18
REMARK   11  A    between atoms: C_17  and  C_19
REMARK   12  A    between atoms: C_22  and  C_26
REMARK   13  A    between atoms: C_33  and  C_34
REMARK                            x       y       z     vdW  Elec       q    Type
REMARK                         _______ _______ _______ _____ _____    ______ ____
ROOT
ATOM      7  N   UNL     1      12.651   4.636  -0.004  0.00  0.00    -0.287 NA
ATOM     13  C   UNL     1      12.874   4.316   1.420  0.00  0.00    +0.146 C 
ATOM     14  C   UNL     1      14.232   4.957   1.757  0.00  0.00    +0.030 C 
ATOM     15  C   UNL     1      14.724   5.558   0.448  0.00  0.00    +0.017 C 
ATOM     16  C   UNL     1      13.976   4.771  -0.609  0.00  0.00    +0.085 C 
ENDROOT
BRANCH  13  18
ATOM      1  O   UNL     1      11.241   3.922   3.196  0.00  0.00    -0.336 OA
ATOM      8  N   UNL     1      11.197   5.999   2.358  0.00  0.00    -0.190 NA
ATOM      9  N   UNL     1      10.236   4.604   3.895  0.00  0.00    -0.056 NA
ATOM     18  C   UNL     1      11.755   4.816   2.311  0.00  0.00    +0.245 A 
ATOM     22  C   UNL     1      10.271   5.821   3.344  0.00  0.00    +0.207 A 
BRANCH  22  26
ATOM      5  O   UNL     1       8.791   7.284   8.066  0.00  0.00    -0.273 OA
ATOM     10  N   UNL     1       9.661   6.360   6.084  0.00  0.00    -0.268 N 
ATOM     11  N   UNL     1       8.270   8.150   5.463  0.00  0.00    -0.220 NA
ATOM     12  N   UNL     1       7.969   8.717   3.141  0.00  0.00    -0.243 NA
ATOM     26  C   UNL     1       9.397   6.880   3.757  0.00  0.00    +0.081 A 
ATOM     27  C   UNL     1       9.091   7.153   5.075  0.00  0.00    +0.139 A 
ATOM     28  C   UNL     1       8.800   7.703   2.823  0.00  0.00    +0.127 A 
ATOM     32  C   UNL     1       7.751   8.882   4.459  0.00  0.00    +0.223 A 
ATOM     33  C   UNL     1       9.483   6.469   7.463  0.00  0.00    +0.244 C 
ATOM     36  H   UNL     1      10.276   5.610   5.777  0.00  0.00    +0.156 HD
BRANCH  33  34
ATOM     34  C   UNL     1      10.278   5.428   8.221  0.00  0.00    +0.255 C 
BRANCH  34   6
ATOM      6  O   UNL     1       9.391   4.444   8.710  0.00  0.00    -0.374 OA
ATOM     35  C   UNL     1       9.114   4.620  10.096  0.00  0.00    +0.194 C 
ENDBRANCH  34   6
ENDBRANCH  33  34
ENDBRANCH  22  26
ENDBRANCH  13  18
BRANCH   7  17
ATOM     17  C   UNL     1      11.832   3.646  -0.693  0.00  0.00    +0.120 C 
BRANCH  17  19
ATOM     19  C   UNL     1      10.781   4.291  -1.557  0.00  0.00    -0.026 A 
ATOM     20  C   UNL     1      10.395   3.688  -2.753  0.00  0.00    +0.054 A 
ATOM     21  C   UNL     1      10.195   5.493  -1.160  0.00  0.00    +0.054 A 
ATOM     23  C   UNL     1       9.221   6.091  -1.960  0.00  0.00    +0.165 A 
ATOM     24  C   UNL     1       9.420   4.286  -3.553  0.00  0.00    +0.165 A 
ATOM     25  C   UNL     1       8.835   5.487  -3.157  0.00  0.00    +0.204 A 
BRANCH  23   2
ATOM      2  O   UNL     1       8.655   7.265  -1.562  0.00  0.00    -0.491 OA
ATOM     29  C   UNL     1       9.543   8.328  -1.221  0.00  0.00    +0.277 C 
ENDBRANCH  23   2
BRANCH  24   3
ATOM      3  O   UNL     1       9.053   3.686  -4.719  0.00  0.00    -0.491 OA
ATOM     30  C   UNL     1      10.068   2.984  -5.435  0.00  0.00    +0.277 C 
ENDBRANCH  24   3
BRANCH  25   4
ATOM      4  O   UNL     1       7.883   6.072  -3.939  0.00  0.00    -0.488 OA
ATOM     31  C   UNL     1       8.334   7.006  -4.918  0.00  0.00    +0.277 C 
ENDBRANCH  25   4
ENDBRANCH  17  19
ENDBRANCH   7  17
TORSDOF 9
ENDMDL
