REMARK  Name = 75368469
REMARK  7 active torsions:
REMARK  status: ('A' for Active; 'I' for Inactive)
REMARK    1  A    between atoms: O_3  and  C_24
REMARK    2  A    between atoms: O_3  and  C_25
REMARK    3  A    between atoms: N_5  and  C_14
REMARK    4  A    between atoms: N_7  and  C_17
REMARK    5  A    between atoms: C_14  and  C_16
REMARK    6  A    between atoms: C_17  and  C_20
REMARK    7  A    between atoms: C_17  and  C_21
REMARK                            x       y       z     vdW  Elec       q    Type
REMARK                         _______ _______ _______ _____ _____    ______ ____
ROOT
ATOM      1  O   UNL     1      -1.096   3.153  -0.211  0.00  0.00    -0.252 OA
ATOM      2  O   UNL     1       5.095   0.369  -1.526  0.00  0.00    -0.253 OA
ATOM      4  N   UNL     1       0.755   1.719  -0.015  0.00  0.00    -0.278 N 
ATOM      5  N   UNL     1      -1.087   1.252   1.185  0.00  0.00    -0.279 N 
ATOM      6  N   UNL     1       2.893   0.143  -0.838  0.00  0.00    -0.282 N 
ATOM      7  N   UNL     1       4.605  -1.228   0.045  0.00  0.00    -0.297 N 
ATOM      8  C   UNL     1       1.132   0.582   0.809  0.00  0.00    +0.112 C 
ATOM      9  C   UNL     1      -0.184   0.145   1.446  0.00  0.00    +0.133 C 
ATOM     10  C   UNL     1       1.816  -0.482  -0.044  0.00  0.00    +0.133 C 
ATOM     11  C   UNL     1       1.726   2.315  -0.916  0.00  0.00    +0.128 C 
ATOM     12  C   UNL     1       2.430   1.224  -1.723  0.00  0.00    +0.128 C 
ATOM     13  C   UNL     1      -0.544   2.168   0.263  0.00  0.00    +0.306 C 
ATOM     15  C   UNL     1       4.254  -0.201  -0.822  0.00  0.00    +0.303 C 
ATOM     26  H   UNL     1       3.942  -1.592   0.716  0.00  0.00    +0.150 HD
ENDROOT
BRANCH   7  17
ATOM     17  C   UNL     1       5.968  -1.690   0.178  0.00  0.00    +0.068 C 
ATOM     20  C   UNL     1       6.708  -0.879   1.235  0.00  0.00    +0.027 C 
ATOM     21  C   UNL     1       5.993  -3.178   0.507  0.00  0.00    +0.027 C 
ENDBRANCH   7  17
BRANCH   5  14
ATOM     14  C   UNL     1      -2.430   1.288   1.721  0.00  0.00    +0.144 C 
BRANCH  14  16
ATOM     16  C   UNL     1      -3.382   0.464   0.904  0.00  0.00    -0.030 A 
ATOM     18  C   UNL     1      -3.812  -0.776   1.375  0.00  0.00    +0.009 A 
ATOM     19  C   UNL     1      -3.838   0.939  -0.326  0.00  0.00    +0.009 A 
ATOM     22  C   UNL     1      -4.697  -1.543   0.617  0.00  0.00    +0.046 A 
ATOM     23  C   UNL     1      -4.723   0.173  -1.085  0.00  0.00    +0.046 A 
ATOM     24  C   UNL     1      -5.153  -1.068  -0.613  0.00  0.00    +0.120 A 
BRANCH  24   3
ATOM      3  O   UNL     1      -6.015  -1.815  -1.354  0.00  0.00    -0.495 OA
ATOM     25  C   UNL     1      -6.413  -3.074  -0.812  0.00  0.00    +0.277 C 
ENDBRANCH  24   3
ENDBRANCH  14  16
ENDBRANCH   5  14
TORSDOF 4
