REMARK  Name = 71693227
REMARK  5 active torsions:
REMARK  status: ('A' for Active; 'I' for Inactive)
REMARK    1  A    between atoms: O_2  and  C_10
REMARK    2  A    between atoms: N_6  and  C_17
REMARK    3  A    between atoms: CA_7  and  C_10
REMARK    4  A    between atoms: C_8  and  C_9
REMARK    5  A    between atoms: C_18  and  C_19
REMARK                            x       y       z     vdW  Elec       q    Type
REMARK                         _______ _______ _______ _____ _____    ______ ____
ROOT
ATOM      1  O   UNL     1      -2.114   1.449   0.444  0.00  0.00    -0.361 OA
ATOM      3  O   UNL     1      -5.628   0.777   0.176  0.00  0.00    -0.273 OA
ATOM      5  N   UNL     1      -3.836  -0.471  -0.531  0.00  0.00    -0.306 N 
ATOM      7  CA  UNL     1      -2.399  -0.612  -0.748  0.00  0.00    +0.131 C 
ATOM      8  C   UNL     1      -1.617   0.107   0.362  0.00  0.00    +0.171 C 
ATOM     11  C   UNL     1      -3.451   1.478   0.899  0.00  0.00    +0.256 C 
ATOM     12  C   UNL     1      -4.412   0.588   0.135  0.00  0.00    +0.239 C 
ATOM     20  H   UNL     1      -4.457  -1.085  -1.050  0.00  0.00    +0.149 HD
ENDROOT
BRANCH   8   9
ATOM      9  C   UNL     1      -0.128   0.184   0.105  0.00  0.00    -0.017 A 
ATOM     13  C   UNL     1       0.768  -0.324   1.045  0.00  0.00    +0.008 A 
ATOM     14  C   UNL     1       0.348   0.765  -1.070  0.00  0.00    +0.008 A 
ATOM     15  C   UNL     1       2.141  -0.253   0.809  0.00  0.00    +0.023 A 
ATOM     16  C   UNL     1       1.721   0.836  -1.306  0.00  0.00    +0.023 A 
ATOM     17  C   UNL     1       2.618   0.328  -0.366  0.00  0.00    +0.033 A 
BRANCH  17   6
ATOM      4  O   UNL     1       4.941  -0.607   1.307  0.00  0.00    -0.276 OA
ATOM      6  N   UNL     1       3.991   0.400  -0.602  0.00  0.00    -0.286 N 
ATOM     18  C   UNL     1       5.035  -0.052   0.216  0.00  0.00    +0.214 C 
ATOM     19  C   UNL     1       6.385   0.214  -0.401  0.00  0.00    +0.109 C 
ATOM     22  H   UNL     1       4.258   0.838  -1.482  0.00  0.00    +0.155 HD
ENDBRANCH  17   6
ENDBRANCH   8   9
BRANCH   7  10
ATOM     10  C   UNL     1      -2.037  -2.092  -0.855  0.00  0.00    +0.181 C 
BRANCH  10   2
ATOM      2  O   UNL     1      -2.325  -2.716   0.383  0.00  0.00    -0.393 OA
ATOM     21  H   UNL     1      -2.088  -3.654   0.293  0.00  0.00    +0.209 HD
ENDBRANCH  10   2
ENDBRANCH   7  10
TORSDOF 4
