MODEL 1
REMARK VINA RESULT:      -7.3      0.000      0.000
REMARK  Name = 11913031
REMARK  6 active torsions:
REMARK  status: ('A' for Active; 'I' for Inactive)
REMARK    1  A    between atoms: O_4  and  C_24
REMARK    2  A    between atoms: O_4  and  C_26
REMARK    3  A    between atoms: N_5  and  C_11
REMARK    4  A    between atoms: N_6  and  C_12
REMARK    5  A    between atoms: C_15  and  C_21
REMARK    6  A    between atoms: C_22  and  C_24
REMARK                            x       y       z     vdW  Elec       q    Type
REMARK                         _______ _______ _______ _____ _____    ______ ____
ROOT
ATOM      1  O   UNL     1     -18.385   4.738  26.096  0.00  0.00    -0.370 OA
ATOM      2  O   UNL     1     -16.251   2.461  26.122  0.00  0.00    -0.370 OA
ATOM      9  C   UNL     1     -16.321   3.751  26.752  0.00  0.00    +0.171 C 
ATOM     10  C   UNL     1     -16.986   4.696  25.770  0.00  0.00    +0.171 C 
ATOM     11  C   UNL     1     -17.271   3.711  27.925  0.00  0.00    +0.130 C 
ATOM     12  C   UNL     1     -16.779   4.035  24.425  0.00  0.00    +0.130 C 
ATOM     13  C   UNL     1     -18.619   3.948  27.271  0.00  0.00    +0.185 C 
ATOM     14  C   UNL     1     -16.770   2.561  24.787  0.00  0.00    +0.185 C 
ENDROOT
BRANCH  11   5
ATOM      5  N   UNL     1     -16.966   4.785  28.846  0.00  0.00    -0.306 N 
ATOM      7  N   UNL     1     -15.553   3.434  30.100  0.00  0.00    -0.219 NA
ATOM      8  N   UNL     1     -15.928   5.740  30.690  0.00  0.00    -0.223 NA
ATOM     20  C   UNL     1     -16.112   4.647  29.925  0.00  0.00    +0.216 A 
ATOM     21  C   UNL     1     -14.725   3.336  31.162  0.00  0.00    +0.049 A 
ATOM     23  C   UNL     1     -14.454   4.380  32.021  0.00  0.00    +0.043 A 
ATOM     25  C   UNL     1     -15.090   5.570  31.734  0.00  0.00    +0.116 A 
ATOM     32  H   UNL     1     -17.349   5.708  28.679  0.00  0.00    +0.149 HD
BRANCH  21  15
ATOM     15  C   UNL     1     -14.076   1.990  31.395  0.00  0.00    +0.038 C 
ATOM     16  C   UNL     1     -15.005   1.004  32.124  0.00  0.00    +0.010 C 
ATOM     17  C   UNL     1     -13.625   1.266  30.109  0.00  0.00    +0.010 C 
ATOM     18  C   UNL     1     -14.675  -0.354  31.524  0.00  0.00    +0.001 C 
ATOM     19  C   UNL     1     -14.426  -0.031  30.062  0.00  0.00    +0.001 C 
ENDBRANCH  21  15
ENDBRANCH  11   5
BRANCH  12   6
ATOM      3  O   UNL     1     -16.262   4.621  21.635  0.00  0.00    -0.272 OA
ATOM      6  N   UNL     1     -15.525   4.436  23.833  0.00  0.00    -0.305 N 
ATOM     22  C   UNL     1     -15.374   4.696  22.479  0.00  0.00    +0.251 C 
ATOM     33  H   UNL     1     -14.732   4.582  24.452  0.00  0.00    +0.149 HD
BRANCH  22  24
ATOM     24  C   UNL     1     -13.955   5.096  22.140  0.00  0.00    +0.324 C 
BRANCH  24   4
ATOM      4  O   UNL     1     -13.844   6.499  22.032  0.00  0.00    -0.483 OA
BRANCH   4  26
ATOM     26  C   UNL     1     -13.243   6.997  20.900  0.00  0.00    +0.121 A 
ATOM     27  C   UNL     1     -14.024   7.489  19.855  0.00  0.00    +0.045 A 
ATOM     28  C   UNL     1     -11.852   7.010  20.797  0.00  0.00    +0.045 A 
ATOM     29  C   UNL     1     -13.416   7.995  18.706  0.00  0.00    +0.004 A 
ATOM     30  C   UNL     1     -11.242   7.516  19.648  0.00  0.00    +0.004 A 
ATOM     31  C   UNL     1     -12.024   8.008  18.603  0.00  0.00    +0.000 A 
ENDBRANCH   4  26
ENDBRANCH  24   4
ENDBRANCH  22  24
ENDBRANCH  12   6
TORSDOF 6
ENDMDL
MODEL 2
REMARK VINA RESULT:      -7.1      2.390      9.544
REMARK  Name = 11913031
REMARK  6 active torsions:
REMARK  status: ('A' for Active; 'I' for Inactive)
REMARK    1  A    between atoms: O_4  and  C_24
REMARK    2  A    between atoms: O_4  and  C_26
REMARK    3  A    between atoms: N_5  and  C_11
REMARK    4  A    between atoms: N_6  and  C_12
REMARK    5  A    between atoms: C_15  and  C_21
REMARK    6  A    between atoms: C_22  and  C_24
REMARK                            x       y       z     vdW  Elec       q    Type
REMARK                         _______ _______ _______ _____ _____    ______ ____
ROOT
ATOM      1  O   UNL     1     -14.305   4.703  23.303  0.00  0.00    -0.370 OA
ATOM      2  O   UNL     1     -17.418   4.578  23.117  0.00  0.00    -0.370 OA
ATOM      9  C   UNL     1     -16.509   5.422  23.842  0.00  0.00    +0.171 C 
ATOM     10  C   UNL     1     -15.345   4.556  24.284  0.00  0.00    +0.171 C 
ATOM     11  C   UNL     1     -15.883   6.436  22.915  0.00  0.00    +0.130 C 
ATOM     12  C   UNL     1     -15.902   3.150  24.255  0.00  0.00    +0.130 C 
ATOM     13  C   UNL     1     -14.713   5.670  22.325  0.00  0.00    +0.185 C 
ATOM     14  C   UNL     1     -16.926   3.229  23.137  0.00  0.00    +0.185 C 
ENDROOT
BRANCH  11   5
ATOM      5  N   UNL     1     -15.405   7.572  23.673  0.00  0.00    -0.306 N 
ATOM      7  N   UNL     1     -14.149   8.356  21.885  0.00  0.00    -0.219 NA
ATOM      8  N   UNL     1     -14.192   9.526  23.992  0.00  0.00    -0.223 NA
ATOM     20  C   UNL     1     -14.545   8.526  23.161  0.00  0.00    +0.216 A 
ATOM     21  C   UNL     1     -13.310   9.306  21.418  0.00  0.00    +0.049 A 
ATOM     23  C   UNL     1     -12.874  10.379  22.167  0.00  0.00    +0.043 A 
ATOM     25  C   UNL     1     -13.352  10.438  23.460  0.00  0.00    +0.116 A 
ATOM     32  H   UNL     1     -15.748   7.722  24.615  0.00  0.00    +0.149 HD
BRANCH  21  15
ATOM     15  C   UNL     1     -12.840   9.153  19.989  0.00  0.00    +0.038 C 
ATOM     16  C   UNL     1     -11.377   9.592  19.798  0.00  0.00    +0.010 C 
ATOM     17  C   UNL     1     -12.918   7.713  19.439  0.00  0.00    +0.010 C 
ATOM     18  C   UNL     1     -10.821   8.639  18.752  0.00  0.00    +0.001 C 
ATOM     19  C   UNL     1     -11.484   7.319  19.104  0.00  0.00    +0.001 C 
ENDBRANCH  21  15
ENDBRANCH  11   5
BRANCH  12   6
ATOM      3  O   UNL     1     -16.401   0.494  25.303  0.00  0.00    -0.272 OA
ATOM      6  N   UNL     1     -16.524   2.808  25.511  0.00  0.00    -0.305 N 
ATOM     22  C   UNL     1     -16.722   1.500  25.930  0.00  0.00    +0.251 C 
ATOM     33  H   UNL     1     -16.781   3.566  26.136  0.00  0.00    +0.149 HD
BRANCH  22  24
ATOM     24  C   UNL     1     -17.395   1.440  27.283  0.00  0.00    +0.324 C 
BRANCH  24   4
ATOM      4  O   UNL     1     -16.689   0.582  28.154  0.00  0.00    -0.483 OA
BRANCH   4  26
ATOM     26  C   UNL     1     -15.711   1.148  28.938  0.00  0.00    +0.121 A 
ATOM     27  C   UNL     1     -14.763   0.339  29.563  0.00  0.00    +0.045 A 
ATOM     28  C   UNL     1     -15.667   2.532  29.107  0.00  0.00    +0.045 A 
ATOM     29  C   UNL     1     -13.770   0.912  30.357  0.00  0.00    +0.004 A 
ATOM     30  C   UNL     1     -14.674   3.106  29.901  0.00  0.00    +0.004 A 
ATOM     31  C   UNL     1     -13.726   2.296  30.526  0.00  0.00    +0.000 A 
ENDBRANCH   4  26
ENDBRANCH  24   4
ENDBRANCH  22  24
ENDBRANCH  12   6
TORSDOF 6
ENDMDL
MODEL 3
REMARK VINA RESULT:      -6.9     19.229     20.916
REMARK  Name = 11913031
REMARK  6 active torsions:
REMARK  status: ('A' for Active; 'I' for Inactive)
REMARK    1  A    between atoms: O_4  and  C_24
REMARK    2  A    between atoms: O_4  and  C_26
REMARK    3  A    between atoms: N_5  and  C_11
REMARK    4  A    between atoms: N_6  and  C_12
REMARK    5  A    between atoms: C_15  and  C_21
REMARK    6  A    between atoms: C_22  and  C_24
REMARK                            x       y       z     vdW  Elec       q    Type
REMARK                         _______ _______ _______ _____ _____    ______ ____
ROOT
ATOM      1  O   UNL     1      -4.499 -11.813  19.447  0.00  0.00    -0.370 OA
ATOM      2  O   UNL     1      -5.869 -10.299  17.087  0.00  0.00    -0.370 OA
ATOM      9  C   UNL     1      -6.121 -11.563  17.724  0.00  0.00    +0.171 C 
ATOM     10  C   UNL     1      -4.775 -12.164  18.081  0.00  0.00    +0.171 C 
ATOM     11  C   UNL     1      -6.796 -11.352  19.058  0.00  0.00    +0.130 C 
ATOM     12  C   UNL     1      -3.804 -11.468  17.152  0.00  0.00    +0.130 C 
ATOM     13  C   UNL     1      -5.624 -11.108  19.990  0.00  0.00    +0.185 C 
ATOM     14  C   UNL     1      -4.451 -10.107  16.967  0.00  0.00    +0.185 C 
ENDROOT
BRANCH  11   5
ATOM      5  N   UNL     1      -7.504 -12.552  19.449  0.00  0.00    -0.306 N 
ATOM      7  N   UNL     1      -9.551 -11.456  19.453  0.00  0.00    -0.219 NA
ATOM      8  N   UNL     1      -9.384 -13.795  20.006  0.00  0.00    -0.223 NA
ATOM     20  C   UNL     1      -8.872 -12.603  19.644  0.00  0.00    +0.216 A 
ATOM     21  C   UNL     1     -10.883 -11.542  19.651  0.00  0.00    +0.049 A 
ATOM     23  C   UNL     1     -11.529 -12.702  20.023  0.00  0.00    +0.043 A 
ATOM     25  C   UNL     1     -10.721 -13.809  20.187  0.00  0.00    +0.116 A 
ATOM     32  H   UNL     1      -6.995 -13.424  19.540  0.00  0.00    +0.149 HD
BRANCH  21  15
ATOM     15  C   UNL     1     -11.684 -10.275  19.447  0.00  0.00    +0.038 C 
ATOM     16  C   UNL     1     -12.715 -10.404  18.311  0.00  0.00    +0.010 C 
ATOM     17  C   UNL     1     -12.484  -9.817  20.685  0.00  0.00    +0.010 C 
ATOM     18  C   UNL     1     -13.906  -9.581  18.775  0.00  0.00    +0.001 C 
ATOM     19  C   UNL     1     -13.950  -9.853  20.268  0.00  0.00    +0.001 C 
ENDBRANCH  21  15
ENDBRANCH  11   5
BRANCH  12   6
ATOM      3  O   UNL     1      -1.662 -11.255  15.212  0.00  0.00    -0.272 OA
ATOM      6  N   UNL     1      -3.689 -12.169  15.896  0.00  0.00    -0.305 N 
ATOM     22  C   UNL     1      -2.620 -12.000  15.027  0.00  0.00    +0.251 C 
ATOM     33  H   UNL     1      -4.403 -12.855  15.667  0.00  0.00    +0.149 HD
BRANCH  22  24
ATOM     24  C   UNL     1      -2.762 -12.859  13.790  0.00  0.00    +0.324 C 
BRANCH  24   4
ATOM      4  O   UNL     1      -1.952 -12.366  12.745  0.00  0.00    -0.483 OA
BRANCH   4  26
ATOM     26  C   UNL     1      -2.564 -11.598  11.783  0.00  0.00    +0.121 A 
ATOM     27  C   UNL     1      -3.568 -12.148  10.986  0.00  0.00    +0.045 A 
ATOM     28  C   UNL     1      -2.182 -10.269  11.604  0.00  0.00    +0.045 A 
ATOM     29  C   UNL     1      -4.191 -11.370  10.011  0.00  0.00    +0.004 A 
ATOM     30  C   UNL     1      -2.804  -9.489  10.628  0.00  0.00    +0.004 A 
ATOM     31  C   UNL     1      -3.808 -10.040   9.832  0.00  0.00    +0.000 A 
ENDBRANCH   4  26
ENDBRANCH  24   4
ENDBRANCH  22  24
ENDBRANCH  12   6
TORSDOF 6
ENDMDL
MODEL 4
REMARK VINA RESULT:      -6.9      2.749      9.681
REMARK  Name = 11913031
REMARK  6 active torsions:
REMARK  status: ('A' for Active; 'I' for Inactive)
REMARK    1  A    between atoms: O_4  and  C_24
REMARK    2  A    between atoms: O_4  and  C_26
REMARK    3  A    between atoms: N_5  and  C_11
REMARK    4  A    between atoms: N_6  and  C_12
REMARK    5  A    between atoms: C_15  and  C_21
REMARK    6  A    between atoms: C_22  and  C_24
REMARK                            x       y       z     vdW  Elec       q    Type
REMARK                         _______ _______ _______ _____ _____    ______ ____
ROOT
ATOM      1  O   UNL     1     -16.480   1.074  25.906  0.00  0.00    -0.370 OA
ATOM      2  O   UNL     1     -17.891   3.300  27.577  0.00  0.00    -0.370 OA
ATOM      9  C   UNL     1     -16.572   3.175  27.019  0.00  0.00    +0.171 C 
ATOM     10  C   UNL     1     -16.163   1.720  27.150  0.00  0.00    +0.171 C 
ATOM     11  C   UNL     1     -16.608   3.416  25.529  0.00  0.00    +0.130 C 
ATOM     12  C   UNL     1     -17.045   1.189  28.259  0.00  0.00    +0.130 C 
ATOM     13  C   UNL     1     -16.978   2.050  24.981  0.00  0.00    +0.185 C 
ATOM     14  C   UNL     1     -18.300   2.030  28.105  0.00  0.00    +0.185 C 
ENDROOT
BRANCH  11   5
ATOM      5  N   UNL     1     -15.297   3.805  25.058  0.00  0.00    -0.306 N 
ATOM      7  N   UNL     1     -16.162   4.689  23.094  0.00  0.00    -0.219 NA
ATOM      8  N   UNL     1     -13.797   4.739  23.552  0.00  0.00    -0.223 NA
ATOM     20  C   UNL     1     -15.076   4.439  23.849  0.00  0.00    +0.216 A 
ATOM     21  C   UNL     1     -15.910   5.309  21.921  0.00  0.00    +0.049 A 
ATOM     23  C   UNL     1     -14.647   5.669  21.501  0.00  0.00    +0.043 A 
ATOM     25  C   UNL     1     -13.618   5.356  22.365  0.00  0.00    +0.116 A 
ATOM     32  H   UNL     1     -14.490   3.661  25.655  0.00  0.00    +0.149 HD
BRANCH  21  15
ATOM     15  C   UNL     1     -17.102   5.609  21.041  0.00  0.00    +0.038 C 
ATOM     16  C   UNL     1     -16.701   6.250  19.700  0.00  0.00    +0.010 C 
ATOM     17  C   UNL     1     -17.955   4.376  20.674  0.00  0.00    +0.010 C 
ATOM     18  C   UNL     1     -17.693   5.692  18.692  0.00  0.00    +0.001 C 
ATOM     19  C   UNL     1     -17.882   4.258  19.156  0.00  0.00    +0.001 C 
ENDBRANCH  21  15
ENDBRANCH  11   5
BRANCH  12   6
ATOM      3  O   UNL     1     -15.015  -0.451  29.515  0.00  0.00    -0.272 OA
ATOM      6  N   UNL     1     -16.436   1.389  29.551  0.00  0.00    -0.305 N 
ATOM     22  C   UNL     1     -15.466   0.545  30.073  0.00  0.00    +0.251 C 
ATOM     33  H   UNL     1     -16.698   2.218  30.078  0.00  0.00    +0.149 HD
BRANCH  22  24
ATOM     24  C   UNL     1     -15.008   0.995  31.442  0.00  0.00    +0.324 C 
BRANCH  24   4
ATOM      4  O   UNL     1     -14.170   2.127  31.341  0.00  0.00    -0.483 OA
BRANCH   4  26
ATOM     26  C   UNL     1     -14.510   3.230  32.088  0.00  0.00    +0.121 A 
ATOM     27  C   UNL     1     -13.641   4.317  32.162  0.00  0.00    +0.045 A 
ATOM     28  C   UNL     1     -15.726   3.261  32.772  0.00  0.00    +0.045 A 
ATOM     29  C   UNL     1     -13.986   5.437  32.920  0.00  0.00    +0.004 A 
ATOM     30  C   UNL     1     -16.072   4.380  33.529  0.00  0.00    +0.004 A 
ATOM     31  C   UNL     1     -15.202   5.468  33.603  0.00  0.00    +0.000 A 
ENDBRANCH   4  26
ENDBRANCH  24   4
ENDBRANCH  22  24
ENDBRANCH  12   6
TORSDOF 6
ENDMDL
MODEL 5
REMARK VINA RESULT:      -6.8     31.825     35.529
REMARK  Name = 11913031
REMARK  6 active torsions:
REMARK  status: ('A' for Active; 'I' for Inactive)
REMARK    1  A    between atoms: O_4  and  C_24
REMARK    2  A    between atoms: O_4  and  C_26
REMARK    3  A    between atoms: N_5  and  C_11
REMARK    4  A    between atoms: N_6  and  C_12
REMARK    5  A    between atoms: C_15  and  C_21
REMARK    6  A    between atoms: C_22  and  C_24
REMARK                            x       y       z     vdW  Elec       q    Type
REMARK                         _______ _______ _______ _____ _____    ______ ____
ROOT
ATOM      1  O   UNL     1      15.568   7.868   5.586  0.00  0.00    -0.370 OA
ATOM      2  O   UNL     1      13.193   8.172   3.584  0.00  0.00    -0.370 OA
ATOM      9  C   UNL     1      13.425   7.313   4.714  0.00  0.00    +0.171 C 
ATOM     10  C   UNL     1      14.897   6.949   4.708  0.00  0.00    +0.171 C 
ATOM     11  C   UNL     1      13.239   8.079   6.002  0.00  0.00    +0.130 C 
ATOM     12  C   UNL     1      15.327   7.180   3.276  0.00  0.00    +0.130 C 
ATOM     13  C   UNL     1      14.598   8.725   6.204  0.00  0.00    +0.185 C 
ATOM     14  C   UNL     1      14.414   8.311   2.841  0.00  0.00    +0.185 C 
ENDROOT
BRANCH  11   5
ATOM      5  N   UNL     1      12.954   7.164   7.086  0.00  0.00    -0.306 N 
ATOM      7  N   UNL     1      10.674   7.211   6.650  0.00  0.00    -0.219 NA
ATOM      8  N   UNL     1      11.577   5.878   8.442  0.00  0.00    -0.223 NA
ATOM     20  C   UNL     1      11.680   6.733   7.406  0.00  0.00    +0.216 A 
ATOM     21  C   UNL     1       9.445   6.769   6.990  0.00  0.00    +0.049 A 
ATOM     23  C   UNL     1       9.206   5.894   8.029  0.00  0.00    +0.043 A 
ATOM     25  C   UNL     1      10.321   5.478   8.728  0.00  0.00    +0.116 A 
ATOM     32  H   UNL     1      13.721   6.767   7.617  0.00  0.00    +0.149 HD
BRANCH  21  15
ATOM     15  C   UNL     1       8.285   7.282   6.167  0.00  0.00    +0.038 C 
ATOM     16  C   UNL     1       8.347   8.804   5.942  0.00  0.00    +0.010 C 
ATOM     17  C   UNL     1       8.174   6.658   4.759  0.00  0.00    +0.010 C 
ATOM     18  C   UNL     1       7.795   9.011   4.541  0.00  0.00    +0.001 C 
ATOM     19  C   UNL     1       8.336   7.814   3.779  0.00  0.00    +0.001 C 
ENDBRANCH  21  15
ENDBRANCH  11   5
BRANCH  12   6
ATOM      3  O   UNL     1      15.942   6.840   0.465  0.00  0.00    -0.272 OA
ATOM      6  N   UNL     1      15.119   6.000   2.472  0.00  0.00    -0.305 N 
ATOM     22  C   UNL     1      15.446   5.931   1.125  0.00  0.00    +0.251 C 
ATOM     33  H   UNL     1      14.762   5.167   2.932  0.00  0.00    +0.149 HD
BRANCH  22  24
ATOM     24  C   UNL     1      15.119   4.576   0.537  0.00  0.00    +0.324 C 
BRANCH  24   4
ATOM      4  O   UNL     1      13.859   4.600  -0.100  0.00  0.00    -0.483 OA
BRANCH   4  26
ATOM     26  C   UNL     1      12.746   4.578   0.707  0.00  0.00    +0.121 A 
ATOM     27  C   UNL     1      11.778   5.574   0.585  0.00  0.00    +0.045 A 
ATOM     28  C   UNL     1      12.586   3.560   1.647  0.00  0.00    +0.045 A 
ATOM     29  C   UNL     1      10.648   5.552   1.403  0.00  0.00    +0.004 A 
ATOM     30  C   UNL     1      11.456   3.538   2.465  0.00  0.00    +0.004 A 
ATOM     31  C   UNL     1      10.488   4.534   2.343  0.00  0.00    +0.000 A 
ENDBRANCH   4  26
ENDBRANCH  24   4
ENDBRANCH  22  24
ENDBRANCH  12   6
TORSDOF 6
ENDMDL
MODEL 6
REMARK VINA RESULT:      -6.8     32.301     35.549
REMARK  Name = 11913031
REMARK  6 active torsions:
REMARK  status: ('A' for Active; 'I' for Inactive)
REMARK    1  A    between atoms: O_4  and  C_24
REMARK    2  A    between atoms: O_4  and  C_26
REMARK    3  A    between atoms: N_5  and  C_11
REMARK    4  A    between atoms: N_6  and  C_12
REMARK    5  A    between atoms: C_15  and  C_21
REMARK    6  A    between atoms: C_22  and  C_24
REMARK                            x       y       z     vdW  Elec       q    Type
REMARK                         _______ _______ _______ _____ _____    ______ ____
ROOT
ATOM      1  O   UNL     1      21.560   7.470  20.575  0.00  0.00    -0.370 OA
ATOM      2  O   UNL     1      20.140   6.138  23.015  0.00  0.00    -0.370 OA
ATOM      9  C   UNL     1      20.729   5.615  21.812  0.00  0.00    +0.171 C 
ATOM     10  C   UNL     1      20.425   6.597  20.697  0.00  0.00    +0.171 C 
ATOM     11  C   UNL     1      22.235   5.630  21.916  0.00  0.00    +0.130 C 
ATOM     12  C   UNL     1      19.222   7.364  21.201  0.00  0.00    +0.130 C 
ATOM     13  C   UNL     1      22.585   7.042  21.482  0.00  0.00    +0.185 C 
ATOM     14  C   UNL     1      19.434   7.349  22.704  0.00  0.00    +0.185 C 
ENDROOT
BRANCH  11   5
ATOM      5  N   UNL     1      22.805   4.668  20.997  0.00  0.00    -0.306 N 
ATOM      7  N   UNL     1      23.309   3.187  22.712  0.00  0.00    -0.219 NA
ATOM      8  N   UNL     1      23.829   2.667  20.417  0.00  0.00    -0.223 NA
ATOM     20  C   UNL     1      23.337   3.455  21.393  0.00  0.00    +0.216 A 
ATOM     21  C   UNL     1      23.836   1.994  23.063  0.00  0.00    +0.049 A 
ATOM     23  C   UNL     1      24.370   1.098  22.161  0.00  0.00    +0.043 A 
ATOM     25  C   UNL     1      24.340   1.491  20.839  0.00  0.00    +0.116 A 
ATOM     32  H   UNL     1      22.775   4.854  20.001  0.00  0.00    +0.149 HD
BRANCH  21  15
ATOM     15  C   UNL     1      23.825   1.653  24.536  0.00  0.00    +0.038 C 
ATOM     16  C   UNL     1      22.412   1.699  25.143  0.00  0.00    +0.010 C 
ATOM     17  C   UNL     1      24.378   0.252  24.872  0.00  0.00    +0.010 C 
ATOM     18  C   UNL     1      22.398   0.583  26.175  0.00  0.00    +0.001 C 
ATOM     19  C   UNL     1      23.221  -0.507  25.512  0.00  0.00    +0.001 C 
ENDBRANCH  21  15
ENDBRANCH  11   5
BRANCH  12   6
ATOM      3  O   UNL     1      16.546   8.473  21.270  0.00  0.00    -0.272 OA
ATOM      6  N   UNL     1      17.992   6.702  20.840  0.00  0.00    -0.305 N 
ATOM     22  C   UNL     1      16.750   7.318  20.906  0.00  0.00    +0.251 C 
ATOM     33  H   UNL     1      18.050   5.757  20.472  0.00  0.00    +0.149 HD
BRANCH  22  24
ATOM     24  C   UNL     1      15.639   6.389  20.469  0.00  0.00    +0.324 C 
BRANCH  24   4
ATOM      4  O   UNL     1      14.841   6.998  19.477  0.00  0.00    -0.483 OA
BRANCH   4  26
ATOM     26  C   UNL     1      13.565   7.366  19.835  0.00  0.00    +0.121 A 
ATOM     27  C   UNL     1      12.850   8.264  19.044  0.00  0.00    +0.045 A 
ATOM     28  C   UNL     1      12.987   6.840  20.990  0.00  0.00    +0.045 A 
ATOM     29  C   UNL     1      11.555   8.637  19.406  0.00  0.00    +0.004 A 
ATOM     30  C   UNL     1      11.692   7.213  21.354  0.00  0.00    +0.004 A 
ATOM     31  C   UNL     1      10.977   8.111  20.562  0.00  0.00    +0.000 A 
ENDBRANCH   4  26
ENDBRANCH  24   4
ENDBRANCH  22  24
ENDBRANCH  12   6
TORSDOF 6
ENDMDL
MODEL 7
REMARK VINA RESULT:      -6.8     23.015     25.168
REMARK  Name = 11913031
REMARK  6 active torsions:
REMARK  status: ('A' for Active; 'I' for Inactive)
REMARK    1  A    between atoms: O_4  and  C_24
REMARK    2  A    between atoms: O_4  and  C_26
REMARK    3  A    between atoms: N_5  and  C_11
REMARK    4  A    between atoms: N_6  and  C_12
REMARK    5  A    between atoms: C_15  and  C_21
REMARK    6  A    between atoms: C_22  and  C_24
REMARK                            x       y       z     vdW  Elec       q    Type
REMARK                         _______ _______ _______ _____ _____    ______ ____
ROOT
ATOM      1  O   UNL     1      -5.063  -8.479   9.870  0.00  0.00    -0.370 OA
ATOM      2  O   UNL     1      -6.291 -11.348   9.807  0.00  0.00    -0.370 OA
ATOM      9  C   UNL     1      -4.974 -10.846  10.093  0.00  0.00    +0.171 C 
ATOM     10  C   UNL     1      -4.723  -9.680   9.157  0.00  0.00    +0.171 C 
ATOM     11  C   UNL     1      -4.935 -10.229  11.471  0.00  0.00    +0.130 C 
ATOM     12  C   UNL     1      -5.692  -9.908   8.018  0.00  0.00    +0.130 C 
ATOM     13  C   UNL     1      -5.426  -8.816  11.216  0.00  0.00    +0.185 C 
ATOM     14  C   UNL     1      -6.847 -10.609   8.710  0.00  0.00    +0.185 C 
ENDROOT
BRANCH  11   5
ATOM      5  N   UNL     1      -3.575 -10.205  11.965  0.00  0.00    -0.306 N 
ATOM      7  N   UNL     1      -4.257 -10.665  14.136  0.00  0.00    -0.219 NA
ATOM      8  N   UNL     1      -1.928 -10.369  13.592  0.00  0.00    -0.223 NA
ATOM     20  C   UNL     1      -3.239 -10.422  13.288  0.00  0.00    +0.216 A 
ATOM     21  C   UNL     1      -3.892 -10.873  15.419  0.00  0.00    +0.049 A 
ATOM     23  C   UNL     1      -2.585 -10.845  15.858  0.00  0.00    +0.043 A 
ATOM     25  C   UNL     1      -1.636 -10.585  14.891  0.00  0.00    +0.116 A 
ATOM     32  H   UNL     1      -2.811 -10.074  11.312  0.00  0.00    +0.149 HD
BRANCH  21  15
ATOM     15  C   UNL     1      -5.005 -11.149  16.405  0.00  0.00    +0.038 C 
ATOM     16  C   UNL     1      -5.366 -12.643  16.486  0.00  0.00    +0.010 C 
ATOM     17  C   UNL     1      -4.697 -10.716  17.855  0.00  0.00    +0.010 C 
ATOM     18  C   UNL     1      -5.724 -12.876  17.945  0.00  0.00    +0.001 C 
ATOM     19  C   UNL     1      -4.734 -11.994  18.686  0.00  0.00    +0.001 C 
ENDBRANCH  21  15
ENDBRANCH  11   5
BRANCH  12   6
ATOM      3  O   UNL     1      -6.563 -10.187   5.269  0.00  0.00    -0.272 OA
ATOM      6  N   UNL     1      -5.109 -10.744   6.996  0.00  0.00    -0.305 N 
ATOM     22  C   UNL     1      -5.599 -10.812   5.700  0.00  0.00    +0.251 C 
ATOM     33  H   UNL     1      -4.269 -11.266   7.230  0.00  0.00    +0.149 HD
BRANCH  22  24
ATOM     24  C   UNL     1      -4.794 -11.767   4.846  0.00  0.00    +0.324 C 
BRANCH  24   4
ATOM      4  O   UNL     1      -3.661 -12.232   5.549  0.00  0.00    -0.483 OA
BRANCH   4  26
ATOM     26  C   UNL     1      -2.728 -12.946   4.835  0.00  0.00    +0.121 A 
ATOM     27  C   UNL     1      -1.824 -13.772   5.501  0.00  0.00    +0.045 A 
ATOM     28  C   UNL     1      -2.687 -12.844   3.445  0.00  0.00    +0.045 A 
ATOM     29  C   UNL     1      -0.877 -14.498   4.777  0.00  0.00    +0.004 A 
ATOM     30  C   UNL     1      -1.740 -13.569   2.720  0.00  0.00    +0.004 A 
ATOM     31  C   UNL     1      -0.836 -14.396   3.387  0.00  0.00    +0.000 A 
ENDBRANCH   4  26
ENDBRANCH  24   4
ENDBRANCH  22  24
ENDBRANCH  12   6
TORSDOF 6
ENDMDL
MODEL 8
REMARK VINA RESULT:      -6.7      2.533      9.473
REMARK  Name = 11913031
REMARK  6 active torsions:
REMARK  status: ('A' for Active; 'I' for Inactive)
REMARK    1  A    between atoms: O_4  and  C_24
REMARK    2  A    between atoms: O_4  and  C_26
REMARK    3  A    between atoms: N_5  and  C_11
REMARK    4  A    between atoms: N_6  and  C_12
REMARK    5  A    between atoms: C_15  and  C_21
REMARK    6  A    between atoms: C_22  and  C_24
REMARK                            x       y       z     vdW  Elec       q    Type
REMARK                         _______ _______ _______ _____ _____    ______ ____
ROOT
ATOM      1  O   UNL     1     -17.206   3.529  22.120  0.00  0.00    -0.370 OA
ATOM      2  O   UNL     1     -17.157   5.522  24.521  0.00  0.00    -0.370 OA
ATOM      9  C   UNL     1     -16.125   4.871  23.761  0.00  0.00    +0.171 C 
ATOM     10  C   UNL     1     -16.621   3.476  23.431  0.00  0.00    +0.171 C 
ATOM     11  C   UNL     1     -15.968   5.534  22.414  0.00  0.00    +0.130 C 
ATOM     12  C   UNL     1     -17.685   3.208  24.473  0.00  0.00    +0.130 C 
ATOM     13  C   UNL     1     -17.030   4.845  21.577  0.00  0.00    +0.185 C 
ATOM     14  C   UNL     1     -18.234   4.598  24.740  0.00  0.00    +0.185 C 
ENDROOT
BRANCH  11   5
ATOM      5  N   UNL     1     -14.652   5.260  21.877  0.00  0.00    -0.306 N 
ATOM      7  N   UNL     1     -14.093   7.513  21.845  0.00  0.00    -0.219 NA
ATOM      8  N   UNL     1     -12.539   5.829  21.101  0.00  0.00    -0.223 NA
ATOM     20  C   UNL     1     -13.722   6.243  21.596  0.00  0.00    +0.216 A 
ATOM     21  C   UNL     1     -13.161   8.447  21.560  0.00  0.00    +0.049 A 
ATOM     23  C   UNL     1     -11.913   8.152  21.050  0.00  0.00    +0.043 A 
ATOM     25  C   UNL     1     -11.655   6.813  20.839  0.00  0.00    +0.116 A 
ATOM     32  H   UNL     1     -14.360   4.299  21.741  0.00  0.00    +0.149 HD
BRANCH  21  15
ATOM     15  C   UNL     1     -13.537   9.887  21.824  0.00  0.00    +0.038 C 
ATOM     16  C   UNL     1     -14.257  10.072  23.172  0.00  0.00    +0.010 C 
ATOM     17  C   UNL     1     -12.344  10.866  21.852  0.00  0.00    +0.010 C 
ATOM     18  C   UNL     1     -13.781  11.422  23.683  0.00  0.00    +0.001 C 
ATOM     19  C   UNL     1     -12.324  11.455  23.258  0.00  0.00    +0.001 C 
ENDBRANCH  21  15
ENDBRANCH  11   5
BRANCH  12   6
ATOM      3  O   UNL     1     -17.156   0.407  24.991  0.00  0.00    -0.272 OA
ATOM      6  N   UNL     1     -17.115   2.632  25.666  0.00  0.00    -0.305 N 
ATOM     22  C   UNL     1     -16.898   1.271  25.824  0.00  0.00    +0.251 C 
ATOM     33  H   UNL     1     -16.812   3.264  26.402  0.00  0.00    +0.149 HD
BRANCH  22  24
ATOM     24  C   UNL     1     -16.290   0.952  27.172  0.00  0.00    +0.324 C 
BRANCH  24   4
ATOM      4  O   UNL     1     -16.287   2.095  28.001  0.00  0.00    -0.483 OA
BRANCH   4  26
ATOM     26  C   UNL     1     -15.509   2.048  29.133  0.00  0.00    +0.121 A 
ATOM     27  C   UNL     1     -15.368   0.851  29.834  0.00  0.00    +0.045 A 
ATOM     28  C   UNL     1     -14.860   3.198  29.582  0.00  0.00    +0.045 A 
ATOM     29  C   UNL     1     -14.578   0.802  30.982  0.00  0.00    +0.004 A 
ATOM     30  C   UNL     1     -14.069   3.151  30.730  0.00  0.00    +0.004 A 
ATOM     31  C   UNL     1     -13.929   1.952  31.431  0.00  0.00    +0.000 A 
ENDBRANCH   4  26
ENDBRANCH  24   4
ENDBRANCH  22  24
ENDBRANCH  12   6
TORSDOF 6
ENDMDL
MODEL 9
REMARK VINA RESULT:      -6.6      2.505      9.661
REMARK  Name = 11913031
REMARK  6 active torsions:
REMARK  status: ('A' for Active; 'I' for Inactive)
REMARK    1  A    between atoms: O_4  and  C_24
REMARK    2  A    between atoms: O_4  and  C_26
REMARK    3  A    between atoms: N_5  and  C_11
REMARK    4  A    between atoms: N_6  and  C_12
REMARK    5  A    between atoms: C_15  and  C_21
REMARK    6  A    between atoms: C_22  and  C_24
REMARK                            x       y       z     vdW  Elec       q    Type
REMARK                         _______ _______ _______ _____ _____    ______ ____
ROOT
ATOM      1  O   UNL     1     -16.379   2.473  23.775  0.00  0.00    -0.370 OA
ATOM      2  O   UNL     1     -16.856   5.207  25.204  0.00  0.00    -0.370 OA
ATOM      9  C   UNL     1     -15.726   4.636  24.523  0.00  0.00    +0.171 C 
ATOM     10  C   UNL     1     -15.706   3.154  24.847  0.00  0.00    +0.171 C 
ATOM     11  C   UNL     1     -15.935   4.684  23.029  0.00  0.00    +0.130 C 
ATOM     12  C   UNL     1     -16.509   3.046  26.125  0.00  0.00    +0.130 C 
ATOM     13  C   UNL     1     -16.740   3.425  22.764  0.00  0.00    +0.185 C 
ATOM     14  C   UNL     1     -17.501   4.187  25.982  0.00  0.00    +0.185 C 
ENDROOT
BRANCH  11   5
ATOM      5  N   UNL     1     -14.660   4.615  22.348  0.00  0.00    -0.306 N 
ATOM      7  N   UNL     1     -14.480   6.928  22.251  0.00  0.00    -0.219 NA
ATOM      8  N   UNL     1     -12.765   5.501  21.339  0.00  0.00    -0.223 NA
ATOM     20  C   UNL     1     -13.937   5.729  21.963  0.00  0.00    +0.216 A 
ATOM     21  C   UNL     1     -13.748   7.993  21.861  0.00  0.00    +0.049 A 
ATOM     23  C   UNL     1     -12.534   7.893  21.215  0.00  0.00    +0.043 A 
ATOM     25  C   UNL     1     -12.087   6.609  20.978  0.00  0.00    +0.116 A 
ATOM     32  H   UNL     1     -14.233   3.711  22.182  0.00  0.00    +0.149 HD
BRANCH  21  15
ATOM     15  C   UNL     1     -14.321   9.359  22.164  0.00  0.00    +0.038 C 
ATOM     16  C   UNL     1     -15.476   9.303  23.180  0.00  0.00    +0.010 C 
ATOM     17  C   UNL     1     -13.305  10.366  22.743  0.00  0.00    +0.010 C 
ATOM     18  C   UNL     1     -15.330  10.574  24.002  0.00  0.00    +0.001 C 
ATOM     19  C   UNL     1     -13.824  10.728  24.129  0.00  0.00    +0.001 C 
ENDBRANCH  21  15
ENDBRANCH  11   5
BRANCH  12   6
ATOM      3  O   UNL     1     -17.060   2.193  28.838  0.00  0.00    -0.272 OA
ATOM      6  N   UNL     1     -15.670   3.225  27.285  0.00  0.00    -0.305 N 
ATOM     22  C   UNL     1     -16.021   2.780  28.552  0.00  0.00    +0.251 C 
ATOM     33  H   UNL     1     -14.758   3.652  27.151  0.00  0.00    +0.149 HD
BRANCH  22  24
ATOM     24  C   UNL     1     -14.954   3.102  29.575  0.00  0.00    +0.324 C 
BRANCH  24   4
ATOM      4  O   UNL     1     -15.202   4.355  30.176  0.00  0.00    -0.483 OA
BRANCH   4  26
ATOM     26  C   UNL     1     -14.927   4.474  31.518  0.00  0.00    +0.121 A 
ATOM     27  C   UNL     1     -14.818   3.332  32.311  0.00  0.00    +0.045 A 
ATOM     28  C   UNL     1     -14.757   5.736  32.086  0.00  0.00    +0.045 A 
ATOM     29  C   UNL     1     -14.539   3.451  33.673  0.00  0.00    +0.004 A 
ATOM     30  C   UNL     1     -14.478   5.857  33.448  0.00  0.00    +0.004 A 
ATOM     31  C   UNL     1     -14.369   4.714  34.241  0.00  0.00    +0.000 A 
ENDBRANCH   4  26
ENDBRANCH  24   4
ENDBRANCH  22  24
ENDBRANCH  12   6
TORSDOF 6
ENDMDL
MODEL 10
REMARK VINA RESULT:      -6.6     31.329     34.908
REMARK  Name = 11913031
REMARK  6 active torsions:
REMARK  status: ('A' for Active; 'I' for Inactive)
REMARK    1  A    between atoms: O_4  and  C_24
REMARK    2  A    between atoms: O_4  and  C_26
REMARK    3  A    between atoms: N_5  and  C_11
REMARK    4  A    between atoms: N_6  and  C_12
REMARK    5  A    between atoms: C_15  and  C_21
REMARK    6  A    between atoms: C_22  and  C_24
REMARK                            x       y       z     vdW  Elec       q    Type
REMARK                         _______ _______ _______ _____ _____    ______ ____
ROOT
ATOM      1  O   UNL     1      18.902   7.837  22.499  0.00  0.00    -0.370 OA
ATOM      2  O   UNL     1      17.497   5.875  20.520  0.00  0.00    -0.370 OA
ATOM      9  C   UNL     1      18.654   6.721  20.412  0.00  0.00    +0.171 C 
ATOM     10  C   UNL     1      18.354   7.995  21.179  0.00  0.00    +0.171 C 
ATOM     11  C   UNL     1      19.821   6.111  21.150  0.00  0.00    +0.130 C 
ATOM     12  C   UNL     1      16.843   8.041  21.239  0.00  0.00    +0.130 C 
ATOM     13  C   UNL     1      19.597   6.585  22.574  0.00  0.00    +0.185 C 
ATOM     14  C   UNL     1      16.474   6.569  21.250  0.00  0.00    +0.185 C 
ENDROOT
BRANCH  11   5
ATOM      5  N   UNL     1      21.065   6.641  20.636  0.00  0.00    -0.306 N 
ATOM      7  N   UNL     1      22.194   4.657  21.059  0.00  0.00    -0.219 NA
ATOM      8  N   UNL     1      23.317   6.551  20.080  0.00  0.00    -0.223 NA
ATOM     20  C   UNL     1      22.243   5.918  20.589  0.00  0.00    +0.216 A 
ATOM     21  C   UNL     1      23.361   3.981  20.998  0.00  0.00    +0.049 A 
ATOM     23  C   UNL     1      24.531   4.515  20.499  0.00  0.00    +0.043 A 
ATOM     25  C   UNL     1      24.449   5.817  20.050  0.00  0.00    +0.116 A 
ATOM     32  H   UNL     1      21.081   7.572  20.236  0.00  0.00    +0.149 HD
BRANCH  21  15
ATOM     15  C   UNL     1      23.351   2.560  21.515  0.00  0.00    +0.038 C 
ATOM     16  C   UNL     1      24.421   1.680  20.846  0.00  0.00    +0.010 C 
ATOM     17  C   UNL     1      23.594   2.430  23.034  0.00  0.00    +0.010 C 
ATOM     18  C   UNL     1      24.889   0.738  21.945  0.00  0.00    +0.001 C 
ATOM     19  C   UNL     1      24.877   1.621  23.181  0.00  0.00    +0.001 C 
ENDBRANCH  21  15
ENDBRANCH  11   5
BRANCH  12   6
ATOM      3  O   UNL     1      14.382   9.563  21.093  0.00  0.00    -0.272 OA
ATOM      6  N   UNL     1      16.295   8.709  20.083  0.00  0.00    -0.305 N 
ATOM     22  C   UNL     1      15.103   9.418  20.110  0.00  0.00    +0.251 C 
ATOM     33  H   UNL     1      16.840   8.699  19.225  0.00  0.00    +0.149 HD
BRANCH  22  24
ATOM     24  C   UNL     1      14.773  10.012  18.758  0.00  0.00    +0.324 C 
BRANCH  24   4
ATOM      4  O   UNL     1      14.514   8.994  17.815  0.00  0.00    -0.483 OA
BRANCH   4  26
ATOM     26  C   UNL     1      13.284   9.004  17.201  0.00  0.00    +0.121 A 
ATOM     27  C   UNL     1      12.180   8.444  17.842  0.00  0.00    +0.045 A 
ATOM     28  C   UNL     1      13.141   9.575  15.936  0.00  0.00    +0.045 A 
ATOM     29  C   UNL     1      10.931   8.455  17.221  0.00  0.00    +0.004 A 
ATOM     30  C   UNL     1      11.892   9.586  15.313  0.00  0.00    +0.004 A 
ATOM     31  C   UNL     1      10.788   9.025  15.956  0.00  0.00    +0.000 A 
ENDBRANCH   4  26
ENDBRANCH  24   4
ENDBRANCH  22  24
ENDBRANCH  12   6
TORSDOF 6
ENDMDL
