MODEL 1
REMARK VINA RESULT:      -7.1      0.000      0.000
REMARK  Name = 11883404
REMARK  7 active torsions:
REMARK  status: ('A' for Active; 'I' for Inactive)
REMARK    1  A    between atoms: O_6  and  C_15
REMARK    2  A    between atoms: O_6  and  C_19
REMARK    3  A    between atoms: N_9  and  C_14
REMARK    4  A    between atoms: N_10  and  C_20
REMARK    5  A    between atoms: N_11  and  C_21
REMARK    6  A    between atoms: C_20  and  C_22
REMARK    7  A    between atoms: C_25  and  C_28
REMARK                            x       y       z     vdW  Elec       q    Type
REMARK                         _______ _______ _______ _____ _____    ______ ____
ROOT
ATOM      4  O   UNL     1      -6.650 -10.810  15.580  0.00  0.00    -0.368 OA
ATOM      5  O   UNL     1      -6.884 -10.812  18.638  0.00  0.00    -0.368 OA
ATOM     12  C   UNL     1      -7.010  -9.749  17.670  0.00  0.00    +0.173 C 
ATOM     13  C   UNL     1      -5.989 -10.022  16.584  0.00  0.00    +0.192 C 
ATOM     14  C   UNL     1      -8.336  -9.852  16.955  0.00  0.00    +0.131 C 
ATOM     15  C   UNL     1      -4.937 -10.818  17.317  0.00  0.00    +0.235 C 
ATOM     16  C   UNL     1      -8.050 -10.898  15.892  0.00  0.00    +0.185 C 
ATOM     17  C   UNL     1      -5.768 -11.638  18.277  0.00  0.00    +0.207 C 
ENDROOT
BRANCH  14   9
ATOM      7  O   UNL     1     -10.779  -8.378  17.397  0.00  0.00    -0.253 OA
ATOM      9  N   UNL     1      -8.710  -8.591  16.362  0.00  0.00    -0.292 N 
ATOM     10  N   UNL     1     -10.021  -6.749  15.928  0.00  0.00    -0.300 N 
ATOM     18  C   UNL     1      -9.916  -7.947  16.633  0.00  0.00    +0.300 C 
ATOM     29  H   UNL     1      -8.037  -8.118  15.767  0.00  0.00    +0.151 HD
ATOM     30  H   UNL     1      -9.253  -6.468  15.326  0.00  0.00    +0.150 HD
BRANCH  10  20
ATOM     20  C   UNL     1     -11.171  -5.882  16.026  0.00  0.00    +0.102 C 
ATOM     22  C   UNL     1     -12.063  -6.002  14.808  0.00  0.00    +0.024 C 
ENDBRANCH  10  20
ENDBRANCH  14   9
BRANCH  15   6
ATOM      6  O   UNL     1      -4.151 -11.626  16.471  0.00  0.00    -0.442 OA
BRANCH   6  19
ATOM      8  O   UNL     1      -2.298 -10.420  15.889  0.00  0.00    -0.226 OA
ATOM     11  N   UNL     1      -3.890 -11.070  14.300  0.00  0.00    -0.251 N 
ATOM     19  C   UNL     1      -3.339 -10.977  15.564  0.00  0.00    +0.405 C 
ATOM     31  H   UNL     1      -4.768 -11.578  14.230  0.00  0.00    +0.158 HD
BRANCH  11  21
ATOM     21  C   UNL     1      -3.383 -10.546  13.089  0.00  0.00    +0.037 A 
ATOM     23  C   UNL     1      -4.259 -10.056  12.120  0.00  0.00    +0.035 A 
ATOM     24  C   UNL     1      -2.008 -10.518  12.864  0.00  0.00    +0.023 A 
ATOM     25  C   UNL     1      -3.758  -9.538  10.926  0.00  0.00    +0.057 A 
ATOM     26  C   UNL     1      -1.506 -10.001  11.669  0.00  0.00    +0.002 A 
ATOM     27  C   UNL     1      -2.383  -9.511  10.700  0.00  0.00    +0.012 A 
BRANCH  25  28
ATOM      1  F   UNL     1      -4.124  -8.871   8.657  0.00  0.00    -0.166 F 
ATOM      2  F   UNL     1      -5.786  -9.810   9.686  0.00  0.00    -0.166 F 
ATOM      3  F   UNL     1      -5.194  -7.784  10.207  0.00  0.00    -0.166 F 
ATOM     28  C   UNL     1      -4.695  -9.014   9.890  0.00  0.00    +0.417 C 
ENDBRANCH  25  28
ENDBRANCH  11  21
ENDBRANCH   6  19
ENDBRANCH  15   6
TORSDOF 6
ENDMDL
MODEL 2
REMARK VINA RESULT:      -7.0      2.428      2.661
REMARK  Name = 11883404
REMARK  7 active torsions:
REMARK  status: ('A' for Active; 'I' for Inactive)
REMARK    1  A    between atoms: O_6  and  C_15
REMARK    2  A    between atoms: O_6  and  C_19
REMARK    3  A    between atoms: N_9  and  C_14
REMARK    4  A    between atoms: N_10  and  C_20
REMARK    5  A    between atoms: N_11  and  C_21
REMARK    6  A    between atoms: C_20  and  C_22
REMARK    7  A    between atoms: C_25  and  C_28
REMARK                            x       y       z     vdW  Elec       q    Type
REMARK                         _______ _______ _______ _____ _____    ______ ____
ROOT
ATOM      4  O   UNL     1      -6.684 -12.041  17.314  0.00  0.00    -0.368 OA
ATOM      5  O   UNL     1      -5.005 -11.610  19.844  0.00  0.00    -0.368 OA
ATOM     12  C   UNL     1      -6.086 -10.844  19.272  0.00  0.00    +0.173 C 
ATOM     13  C   UNL     1      -5.922 -10.909  17.767  0.00  0.00    +0.192 C 
ATOM     14  C   UNL     1      -7.404 -11.539  19.523  0.00  0.00    +0.131 C 
ATOM     15  C   UNL     1      -4.438 -11.134  17.610  0.00  0.00    +0.235 C 
ATOM     16  C   UNL     1      -7.440 -12.574  18.413  0.00  0.00    +0.185 C 
ATOM     17  C   UNL     1      -4.123 -12.025  18.790  0.00  0.00    +0.207 C 
ENDROOT
BRANCH  14   9
ATOM      7  O   UNL     1     -10.118 -11.969  20.409  0.00  0.00    -0.253 OA
ATOM      9  N   UNL     1      -8.509 -10.618  19.418  0.00  0.00    -0.292 N 
ATOM     10  N   UNL     1     -10.665  -9.847  19.648  0.00  0.00    -0.300 N 
ATOM     18  C   UNL     1      -9.793 -10.910  19.874  0.00  0.00    +0.300 C 
ATOM     29  H   UNL     1      -8.331  -9.688  19.052  0.00  0.00    +0.151 HD
ATOM     30  H   UNL     1     -10.306  -9.005  19.208  0.00  0.00    +0.150 HD
BRANCH  10  20
ATOM     20  C   UNL     1     -12.059  -9.884  20.025  0.00  0.00    +0.102 C 
ATOM     22  C   UNL     1     -12.964  -9.837  18.812  0.00  0.00    +0.024 C 
ENDBRANCH  10  20
ENDBRANCH  14   9
BRANCH  15   6
ATOM      6  O   UNL     1      -4.087 -11.735  16.383  0.00  0.00    -0.442 OA
BRANCH   6  19
ATOM      8  O   UNL     1      -2.425 -10.251  15.869  0.00  0.00    -0.226 OA
ATOM     11  N   UNL     1      -3.811 -11.166  14.218  0.00  0.00    -0.251 N 
ATOM     19  C   UNL     1      -3.346 -10.972  15.505  0.00  0.00    +0.405 C 
ATOM     31  H   UNL     1      -4.592 -11.809  14.115  0.00  0.00    +0.158 HD
BRANCH  11  21
ATOM     21  C   UNL     1      -3.335 -10.579  13.023  0.00  0.00    +0.037 A 
ATOM     23  C   UNL     1      -4.238 -10.080  12.083  0.00  0.00    +0.035 A 
ATOM     24  C   UNL     1      -1.964 -10.498  12.785  0.00  0.00    +0.023 A 
ATOM     25  C   UNL     1      -3.767  -9.500  10.905  0.00  0.00    +0.057 A 
ATOM     26  C   UNL     1      -1.493  -9.919  11.607  0.00  0.00    +0.002 A 
ATOM     27  C   UNL     1      -2.396  -9.420  10.666  0.00  0.00    +0.012 A 
BRANCH  25  28
ATOM      1  F   UNL     1      -5.841  -9.748   9.739  0.00  0.00    -0.166 F 
ATOM      2  F   UNL     1      -5.212  -7.726  10.208  0.00  0.00    -0.166 F 
ATOM      3  F   UNL     1      -4.183  -8.849   8.656  0.00  0.00    -0.166 F 
ATOM     28  C   UNL     1      -4.731  -8.967   9.901  0.00  0.00    +0.417 C 
ENDBRANCH  25  28
ENDBRANCH  11  21
ENDBRANCH   6  19
ENDBRANCH  15   6
TORSDOF 6
ENDMDL
MODEL 3
REMARK VINA RESULT:      -6.9      4.706      6.871
REMARK  Name = 11883404
REMARK  7 active torsions:
REMARK  status: ('A' for Active; 'I' for Inactive)
REMARK    1  A    between atoms: O_6  and  C_15
REMARK    2  A    between atoms: O_6  and  C_19
REMARK    3  A    between atoms: N_9  and  C_14
REMARK    4  A    between atoms: N_10  and  C_20
REMARK    5  A    between atoms: N_11  and  C_21
REMARK    6  A    between atoms: C_20  and  C_22
REMARK    7  A    between atoms: C_25  and  C_28
REMARK                            x       y       z     vdW  Elec       q    Type
REMARK                         _______ _______ _______ _____ _____    ______ ____
ROOT
ATOM      4  O   UNL     1     -12.114  -8.418  14.889  0.00  0.00    -0.368 OA
ATOM      5  O   UNL     1     -11.154  -5.936  16.413  0.00  0.00    -0.368 OA
ATOM     12  C   UNL     1     -11.157  -6.252  15.004  0.00  0.00    +0.173 C 
ATOM     13  C   UNL     1     -10.851  -7.731  14.887  0.00  0.00    +0.192 C 
ATOM     14  C   UNL     1     -12.554  -6.125  14.446  0.00  0.00    +0.131 C 
ATOM     15  C   UNL     1     -10.063  -8.003  16.145  0.00  0.00    +0.235 C 
ATOM     16  C   UNL     1     -13.178  -7.455  14.831  0.00  0.00    +0.185 C 
ATOM     17  C   UNL     1     -10.740  -7.096  17.148  0.00  0.00    +0.207 C 
ENDROOT
BRANCH  14   9
ATOM      7  O   UNL     1     -12.392  -3.632  12.999  0.00  0.00    -0.253 OA
ATOM      9  N   UNL     1     -12.532  -5.951  13.014  0.00  0.00    -0.292 N 
ATOM     10  N   UNL     1     -12.448  -4.824  11.009  0.00  0.00    -0.300 N 
ATOM     18  C   UNL     1     -12.452  -4.704  12.397  0.00  0.00    +0.300 C 
ATOM     29  H   UNL     1     -12.510  -6.778  12.427  0.00  0.00    +0.151 HD
ATOM     30  H   UNL     1     -12.491  -5.752  10.599  0.00  0.00    +0.150 HD
BRANCH  10  20
ATOM     20  C   UNL     1     -12.371  -3.684  10.126  0.00  0.00    +0.102 C 
ATOM     22  C   UNL     1     -11.029  -3.611   9.428  0.00  0.00    +0.024 C 
ENDBRANCH  10  20
ENDBRANCH  14   9
BRANCH  15   6
ATOM      6  O   UNL     1     -10.093  -9.354  16.547  0.00  0.00    -0.442 OA
BRANCH   6  19
ATOM      8  O   UNL     1      -9.019 -11.112  15.555  0.00  0.00    -0.226 OA
ATOM     11  N   UNL     1      -7.875  -9.570  16.895  0.00  0.00    -0.251 N 
ATOM     19  C   UNL     1      -8.978 -10.115  16.265  0.00  0.00    +0.405 C 
ATOM     31  H   UNL     1      -8.042  -8.731  17.446  0.00  0.00    +0.158 HD
BRANCH  11  21
ATOM     21  C   UNL     1      -6.540 -10.034  16.868  0.00  0.00    +0.037 A 
ATOM     23  C   UNL     1      -6.035 -10.767  17.943  0.00  0.00    +0.035 A 
ATOM     24  C   UNL     1      -5.729  -9.760  15.769  0.00  0.00    +0.023 A 
ATOM     25  C   UNL     1      -4.718 -11.226  17.916  0.00  0.00    +0.057 A 
ATOM     26  C   UNL     1      -4.411 -10.218  15.741  0.00  0.00    +0.002 A 
ATOM     27  C   UNL     1      -3.907 -10.951  16.816  0.00  0.00    +0.012 A 
BRANCH  25  28
ATOM      1  F   UNL     1      -4.275 -13.362  18.899  0.00  0.00    -0.166 F 
ATOM      2  F   UNL     1      -2.856 -11.775  19.314  0.00  0.00    -0.166 F 
ATOM      3  F   UNL     1      -4.825 -11.737  20.236  0.00  0.00    -0.166 F 
ATOM     28  C   UNL     1      -4.179 -12.009  19.065  0.00  0.00    +0.417 C 
ENDBRANCH  25  28
ENDBRANCH  11  21
ENDBRANCH   6  19
ENDBRANCH  15   6
TORSDOF 6
ENDMDL
MODEL 4
REMARK VINA RESULT:      -6.9     18.651     20.111
REMARK  Name = 11883404
REMARK  7 active torsions:
REMARK  status: ('A' for Active; 'I' for Inactive)
REMARK    1  A    between atoms: O_6  and  C_15
REMARK    2  A    between atoms: O_6  and  C_19
REMARK    3  A    between atoms: N_9  and  C_14
REMARK    4  A    between atoms: N_10  and  C_20
REMARK    5  A    between atoms: N_11  and  C_21
REMARK    6  A    between atoms: C_20  and  C_22
REMARK    7  A    between atoms: C_25  and  C_28
REMARK                            x       y       z     vdW  Elec       q    Type
REMARK                         _______ _______ _______ _____ _____    ______ ____
ROOT
ATOM      4  O   UNL     1     -16.410   4.998  25.327  0.00  0.00    -0.368 OA
ATOM      5  O   UNL     1     -17.409   2.122  24.954  0.00  0.00    -0.368 OA
ATOM     12  C   UNL     1     -16.279   2.656  25.677  0.00  0.00    +0.173 C 
ATOM     13  C   UNL     1     -15.742   3.814  24.859  0.00  0.00    +0.192 C 
ATOM     14  C   UNL     1     -16.743   3.303  26.960  0.00  0.00    +0.131 C 
ATOM     15  C   UNL     1     -16.168   3.449  23.457  0.00  0.00    +0.235 C 
ATOM     16  C   UNL     1     -17.193   4.674  26.486  0.00  0.00    +0.185 C 
ATOM     17  C   UNL     1     -17.511   2.796  23.691  0.00  0.00    +0.207 C 
ENDROOT
BRANCH  14   9
ATOM      7  O   UNL     1     -15.983   1.348  28.943  0.00  0.00    -0.253 OA
ATOM      9  N   UNL     1     -15.665   3.405  27.913  0.00  0.00    -0.292 N 
ATOM     10  N   UNL     1     -14.281   2.765  29.637  0.00  0.00    -0.300 N 
ATOM     18  C   UNL     1     -15.367   2.408  28.840  0.00  0.00    +0.300 C 
ATOM     29  H   UNL     1     -15.054   4.214  27.867  0.00  0.00    +0.151 HD
ATOM     30  H   UNL     1     -13.829   3.658  29.474  0.00  0.00    +0.150 HD
BRANCH  10  20
ATOM     20  C   UNL     1     -13.763   1.911  30.680  0.00  0.00    +0.102 C 
ATOM     22  C   UNL     1     -13.406   2.703  31.920  0.00  0.00    +0.024 C 
ENDBRANCH  10  20
ENDBRANCH  14   9
BRANCH  15   6
ATOM      6  O   UNL     1     -16.259   4.557  22.590  0.00  0.00    -0.442 OA
BRANCH   6  19
ATOM      8  O   UNL     1     -14.088   4.413  21.888  0.00  0.00    -0.226 OA
ATOM     11  N   UNL     1     -15.199   6.469  22.034  0.00  0.00    -0.251 N 
ATOM     19  C   UNL     1     -15.072   5.096  22.140  0.00  0.00    +0.405 C 
ATOM     31  H   UNL     1     -16.104   6.857  22.291  0.00  0.00    +0.158 HD
BRANCH  11  21
ATOM     21  C   UNL     1     -14.225   7.402  21.611  0.00  0.00    +0.037 A 
ATOM     23  C   UNL     1     -13.432   7.126  20.497  0.00  0.00    +0.035 A 
ATOM     24  C   UNL     1     -14.058   8.598  22.308  0.00  0.00    +0.023 A 
ATOM     25  C   UNL     1     -12.472   8.048  20.080  0.00  0.00    +0.057 A 
ATOM     26  C   UNL     1     -13.098   9.520  21.891  0.00  0.00    +0.002 A 
ATOM     27  C   UNL     1     -12.305   9.244  20.777  0.00  0.00    +0.012 A 
BRANCH  25  28
ATOM      1  F   UNL     1     -11.159   6.469  18.852  0.00  0.00    -0.166 F 
ATOM      2  F   UNL     1     -12.272   7.931  17.699  0.00  0.00    -0.166 F 
ATOM      3  F   UNL     1     -10.516   8.546  18.823  0.00  0.00    -0.166 F 
ATOM     28  C   UNL     1     -11.625   7.753  18.889  0.00  0.00    +0.417 C 
ENDBRANCH  25  28
ENDBRANCH  11  21
ENDBRANCH   6  19
ENDBRANCH  15   6
TORSDOF 6
ENDMDL
MODEL 5
REMARK VINA RESULT:      -6.8     27.601     29.107
REMARK  Name = 11883404
REMARK  7 active torsions:
REMARK  status: ('A' for Active; 'I' for Inactive)
REMARK    1  A    between atoms: O_6  and  C_15
REMARK    2  A    between atoms: O_6  and  C_19
REMARK    3  A    between atoms: N_9  and  C_14
REMARK    4  A    between atoms: N_10  and  C_20
REMARK    5  A    between atoms: N_11  and  C_21
REMARK    6  A    between atoms: C_20  and  C_22
REMARK    7  A    between atoms: C_25  and  C_28
REMARK                            x       y       z     vdW  Elec       q    Type
REMARK                         _______ _______ _______ _____ _____    ______ ____
ROOT
ATOM      4  O   UNL     1      13.511   8.879  21.872  0.00  0.00    -0.368 OA
ATOM      5  O   UNL     1      12.885   9.576  18.952  0.00  0.00    -0.368 OA
ATOM     12  C   UNL     1      12.076   9.642  20.146  0.00  0.00    +0.173 C 
ATOM     13  C   UNL     1      12.454   8.447  20.999  0.00  0.00    +0.192 C 
ATOM     14  C   UNL     1      12.483  10.830  20.985  0.00  0.00    +0.131 C 
ATOM     15  C   UNL     1      12.947   7.456  19.973  0.00  0.00    +0.235 C 
ATOM     16  C   UNL     1      13.693  10.297  21.733  0.00  0.00    +0.185 C 
ATOM     17  C   UNL     1      13.633   8.352  18.967  0.00  0.00    +0.207 C 
ENDROOT
BRANCH  14   9
ATOM      7  O   UNL     1      12.370  13.215  22.607  0.00  0.00    -0.253 OA
ATOM      9  N   UNL     1      11.431  11.214  21.893  0.00  0.00    -0.292 N 
ATOM     10  N   UNL     1      10.319  12.512  23.435  0.00  0.00    -0.300 N 
ATOM     18  C   UNL     1      11.458  12.389  22.642  0.00  0.00    +0.300 C 
ATOM     29  H   UNL     1      10.600  10.633  21.945  0.00  0.00    +0.151 HD
ATOM     30  H   UNL     1       9.613  11.784  23.391  0.00  0.00    +0.150 HD
BRANCH  10  20
ATOM     20  C   UNL     1      10.093  13.639  24.309  0.00  0.00    +0.102 C 
ATOM     22  C   UNL     1       9.514  14.819  23.556  0.00  0.00    +0.024 C 
ENDBRANCH  10  20
ENDBRANCH  14   9
BRANCH  15   6
ATOM      6  O   UNL     1      13.821   6.485  20.502  0.00  0.00    -0.442 OA
BRANCH   6  19
ATOM      8  O   UNL     1      15.571   6.203  19.058  0.00  0.00    -0.226 OA
ATOM     11  N   UNL     1      15.868   7.147  21.181  0.00  0.00    -0.251 N 
ATOM     19  C   UNL     1      15.150   6.580  20.145  0.00  0.00    +0.405 C 
ATOM     31  H   UNL     1      15.336   7.397  22.011  0.00  0.00    +0.158 HD
BRANCH  11  21
ATOM     21  C   UNL     1      17.253   7.423  21.229  0.00  0.00    +0.037 A 
ATOM     23  C   UNL     1      18.177   6.402  21.000  0.00  0.00    +0.035 A 
ATOM     24  C   UNL     1      17.696   8.715  21.506  0.00  0.00    +0.023 A 
ATOM     25  C   UNL     1      19.544   6.676  21.048  0.00  0.00    +0.057 A 
ATOM     26  C   UNL     1      19.063   8.989  21.554  0.00  0.00    +0.002 A 
ATOM     27  C   UNL     1      19.987   7.968  21.325  0.00  0.00    +0.012 A 
BRANCH  25  28
ATOM      1  F   UNL     1      21.003   5.007  21.947  0.00  0.00    -0.166 F 
ATOM      2  F   UNL     1      20.030   4.551  20.063  0.00  0.00    -0.166 F 
ATOM      3  F   UNL     1      21.635   6.017  20.127  0.00  0.00    -0.166 F 
ATOM     28  C   UNL     1      20.530   5.585  20.803  0.00  0.00    +0.417 C 
ENDBRANCH  25  28
ENDBRANCH  11  21
ENDBRANCH   6  19
ENDBRANCH  15   6
TORSDOF 6
ENDMDL
MODEL 6
REMARK VINA RESULT:      -6.7     26.614     29.481
REMARK  Name = 11883404
REMARK  7 active torsions:
REMARK  status: ('A' for Active; 'I' for Inactive)
REMARK    1  A    between atoms: O_6  and  C_15
REMARK    2  A    between atoms: O_6  and  C_19
REMARK    3  A    between atoms: N_9  and  C_14
REMARK    4  A    between atoms: N_10  and  C_20
REMARK    5  A    between atoms: N_11  and  C_21
REMARK    6  A    between atoms: C_20  and  C_22
REMARK    7  A    between atoms: C_25  and  C_28
REMARK                            x       y       z     vdW  Elec       q    Type
REMARK                         _______ _______ _______ _____ _____    ______ ____
ROOT
ATOM      4  O   UNL     1      13.184   8.867   6.320  0.00  0.00    -0.368 OA
ATOM      5  O   UNL     1      12.838   7.758   3.482  0.00  0.00    -0.368 OA
ATOM     12  C   UNL     1      12.980   7.096   4.757  0.00  0.00    +0.173 C 
ATOM     13  C   UNL     1      13.960   7.917   5.571  0.00  0.00    +0.192 C 
ATOM     14  C   UNL     1      11.691   7.191   5.538  0.00  0.00    +0.131 C 
ATOM     15  C   UNL     1      14.788   8.590   4.503  0.00  0.00    +0.235 C 
ATOM     16  C   UNL     1      11.787   8.576   6.153  0.00  0.00    +0.185 C 
ATOM     17  C   UNL     1      13.764   8.852   3.422  0.00  0.00    +0.207 C 
ENDROOT
BRANCH  14   9
ATOM      7  O   UNL     1       9.303   6.068   6.709  0.00  0.00    -0.253 OA
ATOM      9  N   UNL     1      11.618   6.169   6.554  0.00  0.00    -0.292 N 
ATOM     10  N   UNL     1      10.635   4.705   8.032  0.00  0.00    -0.300 N 
ATOM     18  C   UNL     1      10.416   5.684   7.065  0.00  0.00    +0.300 C 
ATOM     29  H   UNL     1      12.482   5.738   6.868  0.00  0.00    +0.151 HD
ATOM     30  H   UNL     1      11.591   4.444   8.256  0.00  0.00    +0.150 HD
BRANCH  10  20
ATOM     20  C   UNL     1       9.560   4.034   8.724  0.00  0.00    +0.102 C 
ATOM     22  C   UNL     1       9.267   4.685  10.059  0.00  0.00    +0.024 C 
ENDBRANCH  10  20
ENDBRANCH  14   9
BRANCH  15   6
ATOM      6  O   UNL     1      15.415   9.775   4.940  0.00  0.00    -0.442 OA
BRANCH   6  19
ATOM      8  O   UNL     1      17.358  10.700   4.168  0.00  0.00    -0.226 OA
ATOM     11  N   UNL     1      17.359   8.800   5.537  0.00  0.00    -0.251 N 
ATOM     19  C   UNL     1      16.788   9.835   4.822  0.00  0.00    +0.405 C 
ATOM     31  H   UNL     1      16.715   8.179   6.020  0.00  0.00    +0.158 HD
BRANCH  11  21
ATOM     21  C   UNL     1      18.733   8.497   5.682  0.00  0.00    +0.037 A 
ATOM     23  C   UNL     1      19.439   7.937   4.617  0.00  0.00    +0.035 A 
ATOM     24  C   UNL     1      19.380   8.759   6.888  0.00  0.00    +0.023 A 
ATOM     25  C   UNL     1      20.794   7.638   4.759  0.00  0.00    +0.057 A 
ATOM     26  C   UNL     1      20.736   8.460   7.031  0.00  0.00    +0.002 A 
ATOM     27  C   UNL     1      21.442   7.900   5.966  0.00  0.00    +0.012 A 
BRANCH  25  28
ATOM      1  F   UNL     1      20.825   6.962   2.465  0.00  0.00    -0.166 F 
ATOM      2  F   UNL     1      22.678   7.733   3.288  0.00  0.00    -0.166 F 
ATOM      3  F   UNL     1      21.965   5.766   3.879  0.00  0.00    -0.166 F 
ATOM     28  C   UNL     1      21.549   7.040   3.622  0.00  0.00    +0.417 C 
ENDBRANCH  25  28
ENDBRANCH  11  21
ENDBRANCH   6  19
ENDBRANCH  15   6
TORSDOF 6
ENDMDL
MODEL 7
REMARK VINA RESULT:      -6.7     27.142     29.474
REMARK  Name = 11883404
REMARK  7 active torsions:
REMARK  status: ('A' for Active; 'I' for Inactive)
REMARK    1  A    between atoms: O_6  and  C_15
REMARK    2  A    between atoms: O_6  and  C_19
REMARK    3  A    between atoms: N_9  and  C_14
REMARK    4  A    between atoms: N_10  and  C_20
REMARK    5  A    between atoms: N_11  and  C_21
REMARK    6  A    between atoms: C_20  and  C_22
REMARK    7  A    between atoms: C_25  and  C_28
REMARK                            x       y       z     vdW  Elec       q    Type
REMARK                         _______ _______ _______ _____ _____    ______ ____
ROOT
ATOM      4  O   UNL     1      15.352   8.352  19.370  0.00  0.00    -0.368 OA
ATOM      5  O   UNL     1      14.662   6.977  22.022  0.00  0.00    -0.368 OA
ATOM     12  C   UNL     1      15.577   6.614  20.966  0.00  0.00    +0.173 C 
ATOM     13  C   UNL     1      14.920   7.012  19.660  0.00  0.00    +0.192 C 
ATOM     14  C   UNL     1      16.813   7.480  21.030  0.00  0.00    +0.131 C 
ATOM     15  C   UNL     1      13.452   6.960  20.004  0.00  0.00    +0.235 C 
ATOM     16  C   UNL     1      16.359   8.742  20.317  0.00  0.00    +0.185 C 
ATOM     17  C   UNL     1      13.441   7.448  21.435  0.00  0.00    +0.207 C 
ENDROOT
BRANCH  14   9
ATOM      7  O   UNL     1      19.293   6.579  22.200  0.00  0.00    -0.253 OA
ATOM      9  N   UNL     1      17.922   6.861  20.347  0.00  0.00    -0.292 N 
ATOM     10  N   UNL     1      19.993   5.889  20.098  0.00  0.00    -0.300 N 
ATOM     18  C   UNL     1      19.088   6.455  20.993  0.00  0.00    +0.300 C 
ATOM     29  H   UNL     1      17.825   6.653  19.358  0.00  0.00    +0.151 HD
ATOM     30  H   UNL     1      19.734   5.820  19.119  0.00  0.00    +0.150 HD
BRANCH  10  20
ATOM     20  C   UNL     1      21.283   5.384  20.505  0.00  0.00    +0.102 C 
ATOM     22  C   UNL     1      21.222   3.908  20.838  0.00  0.00    +0.024 C 
ENDBRANCH  10  20
ENDBRANCH  14   9
BRANCH  15   6
ATOM      6  O   UNL     1      12.648   7.758  19.164  0.00  0.00    -0.442 OA
BRANCH   6  19
ATOM      8  O   UNL     1      10.679   8.605  19.960  0.00  0.00    -0.226 OA
ATOM     11  N   UNL     1      12.683   9.805  20.113  0.00  0.00    -0.251 N 
ATOM     19  C   UNL     1      11.883   8.731  19.773  0.00  0.00    +0.405 C 
ATOM     31  H   UNL     1      13.669   9.723  19.875  0.00  0.00    +0.158 HD
BRANCH  11  21
ATOM     21  C   UNL     1      12.302  11.006  20.752  0.00  0.00    +0.037 A 
ATOM     23  C   UNL     1      11.809  10.976  22.057  0.00  0.00    +0.035 A 
ATOM     24  C   UNL     1      12.419  12.221  20.079  0.00  0.00    +0.023 A 
ATOM     25  C   UNL     1      11.433  12.162  22.688  0.00  0.00    +0.057 A 
ATOM     26  C   UNL     1      12.042  13.408  20.708  0.00  0.00    +0.002 A 
ATOM     27  C   UNL     1      11.549  13.377  22.014  0.00  0.00    +0.012 A 
BRANCH  25  28
ATOM      1  F   UNL     1      10.543  10.881  24.502  0.00  0.00    -0.166 F 
ATOM      2  F   UNL     1      11.801  12.572  25.016  0.00  0.00    -0.166 F 
ATOM      3  F   UNL     1       9.797  12.907  24.244  0.00  0.00    -0.166 F 
ATOM     28  C   UNL     1      10.907  12.130  24.082  0.00  0.00    +0.417 C 
ENDBRANCH  25  28
ENDBRANCH  11  21
ENDBRANCH   6  19
ENDBRANCH  15   6
TORSDOF 6
ENDMDL
MODEL 8
REMARK VINA RESULT:      -6.6     28.609     30.460
REMARK  Name = 11883404
REMARK  7 active torsions:
REMARK  status: ('A' for Active; 'I' for Inactive)
REMARK    1  A    between atoms: O_6  and  C_15
REMARK    2  A    between atoms: O_6  and  C_19
REMARK    3  A    between atoms: N_9  and  C_14
REMARK    4  A    between atoms: N_10  and  C_20
REMARK    5  A    between atoms: N_11  and  C_21
REMARK    6  A    between atoms: C_20  and  C_22
REMARK    7  A    between atoms: C_25  and  C_28
REMARK                            x       y       z     vdW  Elec       q    Type
REMARK                         _______ _______ _______ _____ _____    ______ ____
ROOT
ATOM      4  O   UNL     1      16.767   8.525  20.686  0.00  0.00    -0.368 OA
ATOM      5  O   UNL     1      15.926   5.930  19.285  0.00  0.00    -0.368 OA
ATOM     12  C   UNL     1      15.492   6.532  20.523  0.00  0.00    +0.173 C 
ATOM     13  C   UNL     1      16.715   7.166  21.154  0.00  0.00    +0.192 C 
ATOM     14  C   UNL     1      14.582   7.703  20.240  0.00  0.00    +0.131 C 
ATOM     15  C   UNL     1      17.842   6.337  20.589  0.00  0.00    +0.235 C 
ATOM     16  C   UNL     1      15.571   8.818  19.947  0.00  0.00    +0.185 C 
ATOM     17  C   UNL     1      17.353   6.045  19.188  0.00  0.00    +0.207 C 
ENDROOT
BRANCH  14   9
ATOM      7  O   UNL     1      12.146   9.253  20.262  0.00  0.00    -0.253 OA
ATOM      9  N   UNL     1      13.761   8.016  21.384  0.00  0.00    -0.292 N 
ATOM     10  N   UNL     1      12.000   8.925  22.554  0.00  0.00    -0.300 N 
ATOM     18  C   UNL     1      12.595   8.776  21.304  0.00  0.00    +0.300 C 
ATOM     29  H   UNL     1      14.009   7.612  22.281  0.00  0.00    +0.151 HD
ATOM     30  H   UNL     1      12.438   8.487  23.359  0.00  0.00    +0.150 HD
BRANCH  10  20
ATOM     20  C   UNL     1      10.778   9.668  22.756  0.00  0.00    +0.102 C 
ATOM     22  C   UNL     1      11.049  11.149  22.920  0.00  0.00    +0.024 C 
ENDBRANCH  10  20
ENDBRANCH  14   9
BRANCH  15   6
ATOM      6  O   UNL     1      19.086   7.001  20.589  0.00  0.00    -0.442 OA
BRANCH   6  19
ATOM      8  O   UNL     1      20.404   6.543  22.401  0.00  0.00    -0.226 OA
ATOM     11  N   UNL     1      20.780   5.536  20.320  0.00  0.00    -0.251 N 
ATOM     19  C   UNL     1      20.134   6.364  21.219  0.00  0.00    +0.405 C 
ATOM     31  H   UNL     1      20.404   5.521  19.375  0.00  0.00    +0.158 HD
BRANCH  11  21
ATOM     21  C   UNL     1      21.899   4.705  20.552  0.00  0.00    +0.037 A 
ATOM     23  C   UNL     1      23.168   5.113  20.136  0.00  0.00    +0.035 A 
ATOM     24  C   UNL     1      21.736   3.480  21.195  0.00  0.00    +0.023 A 
ATOM     25  C   UNL     1      24.273   4.293  20.366  0.00  0.00    +0.057 A 
ATOM     26  C   UNL     1      22.841   2.659  21.424  0.00  0.00    +0.002 A 
ATOM     27  C   UNL     1      24.109   3.066  21.009  0.00  0.00    +0.012 A 
BRANCH  25  28
ATOM      1  F   UNL     1      26.599   4.544  20.866  0.00  0.00    -0.166 F 
ATOM      2  F   UNL     1      26.080   4.067  18.814  0.00  0.00    -0.166 F 
ATOM      3  F   UNL     1      25.676   6.053  19.601  0.00  0.00    -0.166 F 
ATOM     28  C   UNL     1      25.628   4.728  19.922  0.00  0.00    +0.417 C 
ENDBRANCH  25  28
ENDBRANCH  11  21
ENDBRANCH   6  19
ENDBRANCH  15   6
TORSDOF 6
ENDMDL
MODEL 9
REMARK VINA RESULT:      -6.6     23.152     26.840
REMARK  Name = 11883404
REMARK  7 active torsions:
REMARK  status: ('A' for Active; 'I' for Inactive)
REMARK    1  A    between atoms: O_6  and  C_15
REMARK    2  A    between atoms: O_6  and  C_19
REMARK    3  A    between atoms: N_9  and  C_14
REMARK    4  A    between atoms: N_10  and  C_20
REMARK    5  A    between atoms: N_11  and  C_21
REMARK    6  A    between atoms: C_20  and  C_22
REMARK    7  A    between atoms: C_25  and  C_28
REMARK                            x       y       z     vdW  Elec       q    Type
REMARK                         _______ _______ _______ _____ _____    ______ ____
ROOT
ATOM      4  O   UNL     1      12.478   5.987   0.286  0.00  0.00    -0.368 OA
ATOM      5  O   UNL     1      13.374   3.059   0.464  0.00  0.00    -0.368 OA
ATOM     12  C   UNL     1      12.344   3.698  -0.319  0.00  0.00    +0.173 C 
ATOM     13  C   UNL     1      11.739   4.782   0.551  0.00  0.00    +0.192 C 
ATOM     14  C   UNL     1      12.962   4.459  -1.469  0.00  0.00    +0.131 C 
ATOM     15  C   UNL     1      11.996   4.263   1.944  0.00  0.00    +0.235 C 
ATOM     16  C   UNL     1      13.382   5.760  -0.807  0.00  0.00    +0.185 C 
ATOM     17  C   UNL     1      13.345   3.597   1.794  0.00  0.00    +0.207 C 
ENDROOT
BRANCH  14   9
ATOM      7  O   UNL     1      12.815   3.114  -4.019  0.00  0.00    -0.253 OA
ATOM      9  N   UNL     1      12.001   4.690  -2.520  0.00  0.00    -0.292 N 
ATOM     10  N   UNL     1      10.970   4.414  -4.559  0.00  0.00    -0.300 N 
ATOM     18  C   UNL     1      12.004   3.992  -3.726  0.00  0.00    +0.300 C 
ATOM     29  H   UNL     1      11.248   5.349  -2.350  0.00  0.00    +0.151 HD
ATOM     30  H   UNL     1      10.342   5.140  -4.228  0.00  0.00    +0.150 HD
BRANCH  10  20
ATOM     20  C   UNL     1      10.744   3.854  -5.870  0.00  0.00    +0.102 C 
ATOM     22  C   UNL     1       9.748   2.714  -5.823  0.00  0.00    +0.024 C 
ENDBRANCH  10  20
ENDBRANCH  14   9
BRANCH  15   6
ATOM      6  O   UNL     1      12.009   5.274   2.928  0.00  0.00    -0.442 OA
BRANCH   6  19
ATOM      8  O   UNL     1      10.020   4.508   3.756  0.00  0.00    -0.226 OA
ATOM     11  N   UNL     1      11.218   6.218   4.817  0.00  0.00    -0.251 N 
ATOM     19  C   UNL     1      10.978   5.267   3.844  0.00  0.00    +0.405 C 
ATOM     31  H   UNL     1      12.076   6.755   4.718  0.00  0.00    +0.158 HD
BRANCH  11  21
ATOM     21  C   UNL     1      10.416   6.538   5.936  0.00  0.00    +0.037 A 
ATOM     23  C   UNL     1      10.345   5.659   7.018  0.00  0.00    +0.035 A 
ATOM     24  C   UNL     1       9.696   7.732   5.959  0.00  0.00    +0.023 A 
ATOM     25  C   UNL     1       9.555   5.976   8.123  0.00  0.00    +0.057 A 
ATOM     26  C   UNL     1       8.905   8.049   7.063  0.00  0.00    +0.002 A 
ATOM     27  C   UNL     1       8.834   7.170   8.145  0.00  0.00    +0.012 A 
BRANCH  25  28
ATOM      1  F   UNL     1       9.476   3.720   8.915  0.00  0.00    -0.166 F 
ATOM      2  F   UNL     1      10.521   5.161  10.153  0.00  0.00    -0.166 F 
ATOM      3  F   UNL     1       8.351   5.213  10.026  0.00  0.00    -0.166 F 
ATOM     28  C   UNL     1       9.479   5.037   9.278  0.00  0.00    +0.417 C 
ENDBRANCH  25  28
ENDBRANCH  11  21
ENDBRANCH   6  19
ENDBRANCH  15   6
TORSDOF 6
ENDMDL
MODEL 10
REMARK VINA RESULT:      -6.6     24.460     28.453
REMARK  Name = 11883404
REMARK  7 active torsions:
REMARK  status: ('A' for Active; 'I' for Inactive)
REMARK    1  A    between atoms: O_6  and  C_15
REMARK    2  A    between atoms: O_6  and  C_19
REMARK    3  A    between atoms: N_9  and  C_14
REMARK    4  A    between atoms: N_10  and  C_20
REMARK    5  A    between atoms: N_11  and  C_21
REMARK    6  A    between atoms: C_20  and  C_22
REMARK    7  A    between atoms: C_25  and  C_28
REMARK                            x       y       z     vdW  Elec       q    Type
REMARK                         _______ _______ _______ _____ _____    ______ ____
ROOT
ATOM      4  O   UNL     1      13.931   3.466  -0.335  0.00  0.00    -0.368 OA
ATOM      5  O   UNL     1      14.389   6.364   0.557  0.00  0.00    -0.368 OA
ATOM     12  C   UNL     1      15.267   5.218   0.541  0.00  0.00    +0.173 C 
ATOM     13  C   UNL     1      14.422   4.013   0.901  0.00  0.00    +0.192 C 
ATOM     14  C   UNL     1      15.723   4.932  -0.870  0.00  0.00    +0.131 C 
ATOM     15  C   UNL     1      13.313   4.625   1.721  0.00  0.00    +0.235 C 
ATOM     16  C   UNL     1      14.552   4.148  -1.436  0.00  0.00    +0.185 C 
ATOM     17  C   UNL     1      13.099   5.952   1.029  0.00  0.00    +0.207 C 
ENDROOT
BRANCH  14   9
ATOM      7  O   UNL     1      17.936   5.173  -2.708  0.00  0.00    -0.253 OA
ATOM      9  N   UNL     1      16.934   4.149  -0.881  0.00  0.00    -0.292 N 
ATOM     10  N   UNL     1      19.006   3.443  -1.591  0.00  0.00    -0.300 N 
ATOM     18  C   UNL     1      17.956   4.333  -1.810  0.00  0.00    +0.300 C 
ATOM     29  H   UNL     1      17.078   3.472  -0.138  0.00  0.00    +0.151 HD
ATOM     30  H   UNL     1      18.939   2.789  -0.818  0.00  0.00    +0.150 HD
BRANCH  10  20
ATOM     20  C   UNL     1      20.194   3.420  -2.412  0.00  0.00    +0.102 C 
ATOM     22  C   UNL     1      21.407   3.910  -1.648  0.00  0.00    +0.024 C 
ENDBRANCH  10  20
ENDBRANCH  14   9
BRANCH  15   6
ATOM      6  O   UNL     1      12.138   3.846   1.750  0.00  0.00    -0.442 OA
BRANCH   6  19
ATOM      8  O   UNL     1       9.970   4.569   1.660  0.00  0.00    -0.226 OA
ATOM     11  N   UNL     1      11.269   4.815   3.593  0.00  0.00    -0.251 N 
ATOM     19  C   UNL     1      11.012   4.434   2.289  0.00  0.00    +0.405 C 
ATOM     31  H   UNL     1      12.203   4.615   3.943  0.00  0.00    +0.158 HD
BRANCH  11  21
ATOM     21  C   UNL     1      10.392   5.448   4.502  0.00  0.00    +0.037 A 
ATOM     23  C   UNL     1      10.443   5.127   5.859  0.00  0.00    +0.035 A 
ATOM     24  C   UNL     1       9.477   6.394   4.043  0.00  0.00    +0.023 A 
ATOM     25  C   UNL     1       9.578   5.754   6.757  0.00  0.00    +0.057 A 
ATOM     26  C   UNL     1       8.611   7.020   4.940  0.00  0.00    +0.002 A 
ATOM     27  C   UNL     1       8.662   6.699   6.297  0.00  0.00    +0.012 A 
BRANCH  25  28
ATOM      1  F   UNL     1      10.791   5.798   8.818  0.00  0.00    -0.166 F 
ATOM      2  F   UNL     1       8.634   5.983   8.943  0.00  0.00    -0.166 F 
ATOM      3  F   UNL     1       9.530   4.068   8.434  0.00  0.00    -0.166 F 
ATOM     28  C   UNL     1       9.632   5.410   8.206  0.00  0.00    +0.417 C 
ENDBRANCH  25  28
ENDBRANCH  11  21
ENDBRANCH   6  19
ENDBRANCH  15   6
TORSDOF 6
ENDMDL
