REMARK  Name = 71693881
REMARK  8 active torsions:
REMARK  status: ('A' for Active; 'I' for Inactive)
REMARK    1  A    between atoms: O_1  and  C_9
REMARK    2  A    between atoms: O_2  and  C_11
REMARK    3  A    between atoms: O_4  and  C_18
REMARK    4  A    between atoms: O_4  and  C_25
REMARK    5  A    between atoms: N_5  and  C_8
REMARK    6  A    between atoms: C_7  and  C_12
REMARK    7  A    between atoms: C_15  and  C_19
REMARK    8  A    between atoms: C_24  and  C_26
REMARK                            x       y       z     vdW  Elec       q    Type
REMARK                         _______ _______ _______ _____ _____    ______ ____
ROOT
ATOM      7  C   UNL     1       1.717   1.245   1.026  0.00  0.00    +0.044 C 
ATOM      8  C   UNL     1       0.824   1.752  -0.129  0.00  0.00    +0.112 C 
ATOM      9  C   UNL     1       0.959   3.272  -0.042  0.00  0.00    +0.164 C 
ATOM     10  C   UNL     1       2.733   2.382   1.306  0.00  0.00    +0.044 C 
ATOM     11  C   UNL     1       2.436   3.470   0.276  0.00  0.00    +0.145 C 
ENDROOT
BRANCH   7  12
ATOM     12  C   UNL     1       2.350  -0.100   0.739  0.00  0.00    -0.042 A 
ATOM     13  C   UNL     1       2.092  -1.186   1.576  0.00  0.00    +0.007 A 
ATOM     14  C   UNL     1       3.191  -0.254  -0.363  0.00  0.00    +0.007 A 
ATOM     16  C   UNL     1       2.675  -2.425   1.311  0.00  0.00    +0.046 A 
ATOM     17  C   UNL     1       3.774  -1.492  -0.628  0.00  0.00    +0.046 A 
ATOM     18  C   UNL     1       3.516  -2.578   0.209  0.00  0.00    +0.120 A 
BRANCH  18   4
ATOM      4  O   UNL     1       4.085  -3.787  -0.050  0.00  0.00    -0.495 OA
ATOM     25  C   UNL     1       4.934  -3.874  -1.194  0.00  0.00    +0.277 C 
ENDBRANCH  18   4
ENDBRANCH   7  12
BRANCH   8   5
ATOM      3  O   UNL     1      -0.368  -0.597  -1.270  0.00  0.00    -0.270 OA
ATOM      5  N   UNL     1      -0.544   1.324   0.017  0.00  0.00    -0.305 N 
ATOM     15  C   UNL     1      -1.032   0.167  -0.575  0.00  0.00    +0.244 C 
ATOM     27  H   UNL     1      -1.157   1.923   0.560  0.00  0.00    +0.149 HD
BRANCH  15  19
ATOM     19  C   UNL     1      -2.472  -0.121  -0.351  0.00  0.00    +0.037 A 
ATOM     20  C   UNL     1      -3.188  -0.869  -1.286  0.00  0.00    +0.014 A 
ATOM     21  C   UNL     1      -3.108   0.355   0.796  0.00  0.00    +0.014 A 
ATOM     22  C   UNL     1      -4.540  -1.141  -1.074  0.00  0.00    +0.019 A 
ATOM     23  C   UNL     1      -4.460   0.083   1.008  0.00  0.00    +0.019 A 
ATOM     24  C   UNL     1      -5.175  -0.665   0.073  0.00  0.00    +0.052 A 
BRANCH  24  26
ATOM      6  N   UNL     1      -7.685  -1.170   0.465  0.00  0.00    -0.191 NA
ATOM     26  C   UNL     1      -6.560  -0.944   0.289  0.00  0.00    +0.099 C 
ENDBRANCH  24  26
ENDBRANCH  15  19
ENDBRANCH   8   5
BRANCH   9   1
ATOM      1  O   UNL     1       0.606   3.912  -1.253  0.00  0.00    -0.387 OA
ATOM     28  H   UNL     1       0.807   4.858  -1.152  0.00  0.00    +0.210 HD
ENDBRANCH   9   1
BRANCH  11   2
ATOM      2  O   UNL     1       3.242   3.240  -0.876  0.00  0.00    -0.389 OA
ATOM     29  H   UNL     1       4.171   3.340  -0.608  0.00  0.00    +0.210 HD
ENDBRANCH  11   2
TORSDOF 7
