REMARK  Name = 75367733
REMARK  4 active torsions:
REMARK  status: ('A' for Active; 'I' for Inactive)
REMARK    1  A    between atoms: O_3  and  C_6
REMARK    2  A    between atoms: O_3  and  C_14
REMARK    3  A    between atoms: N_4  and  C_8
REMARK    4  A    between atoms: C_8  and  C_11
REMARK                            x       y       z     vdW  Elec       q    Type
REMARK                         _______ _______ _______ _____ _____    ______ ____
ROOT
ATOM      2  O   UNL     1       3.813  -0.991   0.511  0.00  0.00    -0.376 OA
ATOM      4  N   UNL     1       0.863  -0.888  -0.495  0.00  0.00    -0.293 NA
ATOM      5  C   UNL     1       1.101   0.551  -0.338  0.00  0.00    +0.118 C 
ATOM      6  C   UNL     1       2.502   1.002   0.103  0.00  0.00    +0.157 C 
ATOM      7  C   UNL     1       2.000  -1.632  -1.041  0.00  0.00    +0.113 C 
ATOM      9  C   UNL     1       3.154   0.101   1.143  0.00  0.00    +0.192 C 
ATOM     10  C   UNL     1       2.949  -2.036   0.088  0.00  0.00    +0.175 C 
ENDROOT
BRANCH   6   3
ATOM      3  O   UNL     1       2.391   2.312   0.663  0.00  0.00    -0.376 OA
ATOM     14  C   UNL     1       2.328   3.302  -0.351  0.00  0.00    +0.194 C 
ENDBRANCH   6   3
BRANCH   4   8
ATOM      8  C   UNL     1      -0.351  -1.115  -1.279  0.00  0.00    +0.119 C 
BRANCH   8  11
ATOM      1 CL   UNL     1      -4.278   2.186  -0.354  0.00  0.00    -0.084 Cl
ATOM     11  C   UNL     1      -1.594  -0.777  -0.498  0.00  0.00    -0.032 A 
ATOM     12  C   UNL     1      -2.280   0.409  -0.758  0.00  0.00    +0.025 A 
ATOM     13  C   UNL     1      -2.059  -1.651   0.485  0.00  0.00    +0.005 A 
ATOM     15  C   UNL     1      -3.432   0.721  -0.035  0.00  0.00    +0.041 A 
ATOM     16  C   UNL     1      -3.210  -1.339   1.208  0.00  0.00    +0.002 A 
ATOM     17  C   UNL     1      -3.897  -0.153   0.948  0.00  0.00    +0.020 A 
ENDBRANCH   8  11
ENDBRANCH   4   8
TORSDOF 3
