MODEL 1
REMARK VINA RESULT:      -9.3      0.000      0.000
REMARK  Name = 11879616
REMARK  7 active torsions:
REMARK  status: ('A' for Active; 'I' for Inactive)
REMARK    1  A    between atoms: S_1  and  N_8
REMARK    2  A    between atoms: S_1  and  C_21
REMARK    3  A    between atoms: O_4  and  C_20
REMARK    4  A    between atoms: O_4  and  C_24
REMARK    5  A    between atoms: N_8  and  C_16
REMARK    6  A    between atoms: N_9  and  C_17
REMARK    7  A    between atoms: N_13  and  C_29
REMARK                            x       y       z     vdW  Elec       q    Type
REMARK                         _______ _______ _______ _____ _____    ______ ____
ROOT
ATOM      2  O   UNL     1      10.247   7.565  20.980  0.00  0.00    -0.370 OA
ATOM      3  O   UNL     1      13.245   7.811  21.942  0.00  0.00    -0.370 OA
ATOM     14  C   UNL     1      12.225   8.751  21.572  0.00  0.00    +0.170 C 
ATOM     15  C   UNL     1      11.439   8.149  20.423  0.00  0.00    +0.175 C 
ATOM     16  C   UNL     1      11.216   8.890  22.686  0.00  0.00    +0.133 C 
ATOM     17  C   UNL     1      12.336   7.060  19.868  0.00  0.00    +0.171 C 
ATOM     18  C   UNL     1      10.240   7.768  22.400  0.00  0.00    +0.183 C 
ATOM     19  C   UNL     1      13.190   6.673  21.070  0.00  0.00    +0.190 C 
ENDROOT
BRANCH  17   9
ATOM      9  N   UNL     1      13.088   7.497  18.689  0.00  0.00    -0.187 N 
ATOM     10  N   UNL     1      12.555   7.413  17.466  0.00  0.00    -0.041 NA
ATOM     11  N   UNL     1      14.613   8.267  17.365  0.00  0.00    -0.071 NA
ATOM     12  N   UNL     1      13.495   7.887  16.657  0.00  0.00    -0.020 NA
ATOM     20  C   UNL     1      14.336   8.016  18.623  0.00  0.00    +0.342 A 
BRANCH  20   4
ATOM      4  O   UNL     1      15.125   8.224  19.660  0.00  0.00    -0.423 OA
BRANCH   4  24
ATOM     24  C   UNL     1      16.288   7.498  19.874  0.00  0.00    +0.134 A 
ATOM     28  C   UNL     1      17.173   7.921  20.848  0.00  0.00    +0.069 A 
ATOM     29  C   UNL     1      18.343   7.192  21.062  0.00  0.00    +0.033 A 
ATOM     30  C   UNL     1      16.528   6.374  19.107  0.00  0.00    +0.046 A 
ATOM     37  C   UNL     1      18.605   6.054  20.299  0.00  0.00    +0.023 A 
ATOM     38  C   UNL     1      17.698   5.645  19.322  0.00  0.00    +0.005 A 
BRANCH  29  13
ATOM      7  O   UNL     1      21.919   8.418  22.235  0.00  0.00    -0.377 OA
ATOM     13  N   UNL     1      19.247   7.599  22.034  0.00  0.00    -0.325 N 
ATOM     31  C   UNL     1      19.559   9.021  22.220  0.00  0.00    +0.133 C 
ATOM     32  C   UNL     1      20.250   6.701  22.609  0.00  0.00    +0.133 C 
ATOM     34  C   UNL     1      20.947   9.284  21.638  0.00  0.00    +0.178 C 
ATOM     35  C   UNL     1      21.608   7.038  22.003  0.00  0.00    +0.178 C 
ENDBRANCH  29  13
ENDBRANCH   4  24
ENDBRANCH  20   4
ENDBRANCH  17   9
BRANCH  16   8
ATOM      8  N   UNL     1      10.521  10.195  22.578  0.00  0.00    -0.182 NA
ATOM     41  H   UNL     1       9.840  10.310  21.818  0.00  0.00    +0.148 HD
BRANCH   8   1
ATOM      1  S   UNL     1      11.127  11.546  23.407  0.00  0.00    +0.059 S 
ATOM      5  O   UNL     1      12.457  11.250  23.906  0.00  0.00    -0.153 OA
ATOM      6  O   UNL     1      10.103  12.039  24.308  0.00  0.00    -0.153 OA
BRANCH   1  21
ATOM     21  C   UNL     1      11.284  12.733  22.107  0.00  0.00    +0.106 A 
ATOM     22  C   UNL     1      12.225  12.527  21.113  0.00  0.00    +0.037 A 
ATOM     23  C   UNL     1      10.464  13.845  22.107  0.00  0.00    +0.029 A 
ATOM     25  C   UNL     1      12.362  13.462  20.074  0.00  0.00    -0.016 A 
ATOM     26  C   UNL     1      10.586  14.782  21.083  0.00  0.00    +0.010 A 
ATOM     27  C   UNL     1      11.531  14.607  20.059  0.00  0.00    -0.018 A 
ATOM     33  C   UNL     1      13.306  13.285  19.049  0.00  0.00    +0.008 A 
ATOM     36  C   UNL     1      11.667  15.541  19.019  0.00  0.00    +0.008 A 
ATOM     39  C   UNL     1      13.429  14.223  18.024  0.00  0.00    +0.001 A 
ATOM     40  C   UNL     1      12.612  15.349  18.009  0.00  0.00    +0.001 A 
ENDBRANCH   1  21
ENDBRANCH   8   1
ENDBRANCH  16   8
TORSDOF 7
ENDMDL
MODEL 2
REMARK VINA RESULT:      -9.0     27.740     30.911
REMARK  Name = 11879616
REMARK  7 active torsions:
REMARK  status: ('A' for Active; 'I' for Inactive)
REMARK    1  A    between atoms: S_1  and  N_8
REMARK    2  A    between atoms: S_1  and  C_21
REMARK    3  A    between atoms: O_4  and  C_20
REMARK    4  A    between atoms: O_4  and  C_24
REMARK    5  A    between atoms: N_8  and  C_16
REMARK    6  A    between atoms: N_9  and  C_17
REMARK    7  A    between atoms: N_13  and  C_29
REMARK                            x       y       z     vdW  Elec       q    Type
REMARK                         _______ _______ _______ _____ _____    ______ ____
ROOT
ATOM      2  O   UNL     1      -6.264 -10.050  16.554  0.00  0.00    -0.370 OA
ATOM      3  O   UNL     1      -4.836 -11.292  19.083  0.00  0.00    -0.370 OA
ATOM     14  C   UNL     1      -5.091 -11.747  17.745  0.00  0.00    +0.170 C 
ATOM     15  C   UNL     1      -6.463 -11.239  17.340  0.00  0.00    +0.175 C 
ATOM     16  C   UNL     1      -4.144 -11.079  16.778  0.00  0.00    +0.133 C 
ATOM     17  C   UNL     1      -7.146 -10.886  18.647  0.00  0.00    +0.171 C 
ATOM     18  C   UNL     1      -4.859  -9.787  16.441  0.00  0.00    +0.183 C 
ATOM     19  C   UNL     1      -5.976 -10.572  19.572  0.00  0.00    +0.190 C 
ENDROOT
BRANCH  17   9
ATOM      9  N   UNL     1      -8.042 -11.945  19.118  0.00  0.00    -0.187 N 
ATOM     10  N   UNL     1      -7.764 -13.232  18.888  0.00  0.00    -0.041 NA
ATOM     11  N   UNL     1      -9.675 -13.036  20.021  0.00  0.00    -0.071 NA
ATOM     12  N   UNL     1      -8.769 -13.898  19.445  0.00  0.00    -0.020 NA
ATOM     20  C   UNL     1      -9.202 -11.830  19.806  0.00  0.00    +0.342 A 
BRANCH  20   4
ATOM      4  O   UNL     1      -9.749 -10.691  20.185  0.00  0.00    -0.423 OA
BRANCH   4  24
ATOM     24  C   UNL     1     -10.908 -10.189  19.611  0.00  0.00    +0.134 A 
ATOM     28  C   UNL     1     -10.831  -9.570  18.377  0.00  0.00    +0.069 A 
ATOM     29  C   UNL     1     -11.996  -9.064  17.800  0.00  0.00    +0.033 A 
ATOM     30  C   UNL     1     -12.105 -10.323  20.287  0.00  0.00    +0.046 A 
ATOM     37  C   UNL     1     -13.215  -9.188  18.466  0.00  0.00    +0.023 A 
ATOM     38  C   UNL     1     -13.270  -9.817  19.709  0.00  0.00    +0.005 A 
BRANCH  29  13
ATOM      7  O   UNL     1     -12.392  -5.908  15.446  0.00  0.00    -0.377 OA
ATOM     13  N   UNL     1     -11.941  -8.437  16.562  0.00  0.00    -0.325 N 
ATOM     31  C   UNL     1     -10.800  -7.589  16.200  0.00  0.00    +0.133 C 
ATOM     32  C   UNL     1     -13.132  -8.196  15.744  0.00  0.00    +0.133 C 
ATOM     34  C   UNL     1     -11.247  -6.130  16.277  0.00  0.00    +0.178 C 
ATOM     35  C   UNL     1     -13.502  -6.720  15.848  0.00  0.00    +0.178 C 
ENDBRANCH  29  13
ENDBRANCH   4  24
ENDBRANCH  20   4
ENDBRANCH  17   9
BRANCH  16   8
ATOM      8  N   UNL     1      -4.005 -11.906  15.555  0.00  0.00    -0.182 NA
ATOM     41  H   UNL     1      -4.713 -12.630  15.387  0.00  0.00    +0.148 HD
BRANCH   8   1
ATOM      1  S   UNL     1      -2.532 -11.924  14.711  0.00  0.00    +0.059 S 
ATOM      5  O   UNL     1      -2.210 -13.285  14.330  0.00  0.00    -0.153 OA
ATOM      6  O   UNL     1      -1.567 -11.122  15.440  0.00  0.00    -0.153 OA
BRANCH   1  21
ATOM     21  C   UNL     1      -2.941 -11.027  13.243  0.00  0.00    +0.106 A 
ATOM     22  C   UNL     1      -4.257 -10.664  13.017  0.00  0.00    +0.037 A 
ATOM     23  C   UNL     1      -1.939 -10.708  12.348  0.00  0.00    +0.029 A 
ATOM     25  C   UNL     1      -4.598  -9.953  11.855  0.00  0.00    -0.016 A 
ATOM     26  C   UNL     1      -2.259 -10.001  11.189  0.00  0.00    +0.010 A 
ATOM     27  C   UNL     1      -3.584  -9.617  10.927  0.00  0.00    -0.018 A 
ATOM     33  C   UNL     1      -5.924  -9.567  11.594  0.00  0.00    +0.008 A 
ATOM     36  C   UNL     1      -3.925  -8.904   9.765  0.00  0.00    +0.008 A 
ATOM     39  C   UNL     1      -6.245  -8.861  10.435  0.00  0.00    +0.001 A 
ATOM     40  C   UNL     1      -5.248  -8.530   9.522  0.00  0.00    +0.001 A 
ENDBRANCH   1  21
ENDBRANCH   8   1
ENDBRANCH  16   8
TORSDOF 7
ENDMDL
MODEL 3
REMARK VINA RESULT:      -8.7     28.456     31.842
REMARK  Name = 11879616
REMARK  7 active torsions:
REMARK  status: ('A' for Active; 'I' for Inactive)
REMARK    1  A    between atoms: S_1  and  N_8
REMARK    2  A    between atoms: S_1  and  C_21
REMARK    3  A    between atoms: O_4  and  C_20
REMARK    4  A    between atoms: O_4  and  C_24
REMARK    5  A    between atoms: N_8  and  C_16
REMARK    6  A    between atoms: N_9  and  C_17
REMARK    7  A    between atoms: N_13  and  C_29
REMARK                            x       y       z     vdW  Elec       q    Type
REMARK                         _______ _______ _______ _____ _____    ______ ____
ROOT
ATOM      2  O   UNL     1     -17.112   3.284  27.738  0.00  0.00    -0.370 OA
ATOM      3  O   UNL     1     -18.327   0.414  27.220  0.00  0.00    -0.370 OA
ATOM     14  C   UNL     1     -16.997   0.933  27.376  0.00  0.00    +0.170 C 
ATOM     15  C   UNL     1     -16.951   2.293  26.706  0.00  0.00    +0.175 C 
ATOM     16  C   UNL     1     -16.718   1.221  28.831  0.00  0.00    +0.133 C 
ATOM     17  C   UNL     1     -18.154   2.310  25.782  0.00  0.00    +0.171 C 
ATOM     18  C   UNL     1     -17.252   2.628  29.005  0.00  0.00    +0.183 C 
ATOM     19  C   UNL     1     -19.114   1.334  26.451  0.00  0.00    +0.190 C 
ENDROOT
BRANCH  17   9
ATOM      9  N   UNL     1     -17.804   1.984  24.397  0.00  0.00    -0.187 N 
ATOM     10  N   UNL     1     -17.872   0.726  23.950  0.00  0.00    -0.041 NA
ATOM     11  N   UNL     1     -17.188   2.095  22.328  0.00  0.00    -0.071 NA
ATOM     12  N   UNL     1     -17.493   0.800  22.679  0.00  0.00    -0.020 NA
ATOM     20  C   UNL     1     -17.390   2.811  23.410  0.00  0.00    +0.342 A 
BRANCH  20   4
ATOM      4  O   UNL     1     -17.220   4.115  23.534  0.00  0.00    -0.423 OA
BRANCH   4  24
ATOM     24  C   UNL     1     -16.061   4.761  23.128  0.00  0.00    +0.134 A 
ATOM     28  C   UNL     1     -16.163   5.844  22.275  0.00  0.00    +0.069 A 
ATOM     29  C   UNL     1     -14.998   6.493  21.864  0.00  0.00    +0.033 A 
ATOM     30  C   UNL     1     -14.842   4.304  23.587  0.00  0.00    +0.046 A 
ATOM     37  C   UNL     1     -13.755   6.049  22.316  0.00  0.00    +0.023 A 
ATOM     38  C   UNL     1     -13.677   4.955  23.177  0.00  0.00    +0.005 A 
BRANCH  29  13
ATOM      7  O   UNL     1     -13.369   9.262  19.553  0.00  0.00    -0.377 OA
ATOM     13  N   UNL     1     -15.076   7.583  21.007  0.00  0.00    -0.325 N 
ATOM     31  C   UNL     1     -14.946   7.406  19.556  0.00  0.00    +0.133 C 
ATOM     32  C   UNL     1     -14.844   8.958  21.451  0.00  0.00    +0.133 C 
ATOM     34  C   UNL     1     -13.564   7.905  19.137  0.00  0.00    +0.178 C 
ATOM     35  C   UNL     1     -13.462   9.396  20.977  0.00  0.00    +0.178 C 
ENDBRANCH  29  13
ENDBRANCH   4  24
ENDBRANCH  20   4
ENDBRANCH  17   9
BRANCH  16   8
ATOM      8  N   UNL     1     -15.255   1.209  29.077  0.00  0.00    -0.182 NA
ATOM     41  H   UNL     1     -14.642   1.531  28.319  0.00  0.00    +0.148 HD
BRANCH   8   1
ATOM      1  S   UNL     1     -14.626   0.322  30.380  0.00  0.00    +0.059 S 
ATOM      5  O   UNL     1     -13.264  -0.074  30.082  0.00  0.00    -0.153 OA
ATOM      6  O   UNL     1     -15.604  -0.670  30.784  0.00  0.00    -0.153 OA
BRANCH   1  21
ATOM     21  C   UNL     1     -14.572   1.541  31.660  0.00  0.00    +0.106 A 
ATOM     22  C   UNL     1     -14.407   2.873  31.318  0.00  0.00    +0.037 A 
ATOM     23  C   UNL     1     -14.693   1.142  32.976  0.00  0.00    +0.029 A 
ATOM     25  C   UNL     1     -14.361   3.853  32.323  0.00  0.00    -0.016 A 
ATOM     26  C   UNL     1     -14.651   2.101  33.987  0.00  0.00    +0.010 A 
ATOM     27  C   UNL     1     -14.484   3.461  33.678  0.00  0.00    -0.018 A 
ATOM     33  C   UNL     1     -14.196   5.213  32.014  0.00  0.00    +0.008 A 
ATOM     36  C   UNL     1     -14.439   4.441  34.683  0.00  0.00    +0.008 A 
ATOM     39  C   UNL     1     -14.153   6.173  33.024  0.00  0.00    +0.001 A 
ATOM     40  C   UNL     1     -14.273   5.789  34.357  0.00  0.00    +0.001 A 
ENDBRANCH   1  21
ENDBRANCH   8   1
ENDBRANCH  16   8
TORSDOF 7
ENDMDL
MODEL 4
REMARK VINA RESULT:      -8.6      2.953      8.403
REMARK  Name = 11879616
REMARK  7 active torsions:
REMARK  status: ('A' for Active; 'I' for Inactive)
REMARK    1  A    between atoms: S_1  and  N_8
REMARK    2  A    between atoms: S_1  and  C_21
REMARK    3  A    between atoms: O_4  and  C_20
REMARK    4  A    between atoms: O_4  and  C_24
REMARK    5  A    between atoms: N_8  and  C_16
REMARK    6  A    between atoms: N_9  and  C_17
REMARK    7  A    between atoms: N_13  and  C_29
REMARK                            x       y       z     vdW  Elec       q    Type
REMARK                         _______ _______ _______ _____ _____    ______ ____
ROOT
ATOM      2  O   UNL     1      15.248  13.603  22.576  0.00  0.00    -0.370 OA
ATOM      3  O   UNL     1      15.198  13.109  25.695  0.00  0.00    -0.370 OA
ATOM     14  C   UNL     1      15.497  12.295  24.550  0.00  0.00    +0.170 C 
ATOM     15  C   UNL     1      14.543  12.694  23.440  0.00  0.00    +0.175 C 
ATOM     16  C   UNL     1      16.865  12.638  24.011  0.00  0.00    +0.133 C 
ATOM     17  C   UNL     1      13.413  13.421  24.143  0.00  0.00    +0.171 C 
ATOM     18  C   UNL     1      16.579  13.794  23.074  0.00  0.00    +0.183 C 
ATOM     19  C   UNL     1      14.083  13.962  25.401  0.00  0.00    +0.190 C 
ENDROOT
BRANCH  17   9
ATOM      9  N   UNL     1      12.252  12.560  24.381  0.00  0.00    -0.187 N 
ATOM     10  N   UNL     1      12.059  11.981  25.570  0.00  0.00    -0.041 NA
ATOM     11  N   UNL     1      10.422  11.432  24.160  0.00  0.00    -0.071 NA
ATOM     12  N   UNL     1      10.935  11.289  25.429  0.00  0.00    -0.020 NA
ATOM     20  C   UNL     1      11.256  12.225  23.528  0.00  0.00    +0.342 A 
BRANCH  20   4
ATOM      4  O   UNL     1      11.159  12.635  22.277  0.00  0.00    -0.423 OA
BRANCH   4  24
ATOM     24  C   UNL     1      11.948  12.122  21.258  0.00  0.00    +0.134 A 
ATOM     28  C   UNL     1      12.241  10.771  21.253  0.00  0.00    +0.069 A 
ATOM     29  C   UNL     1      13.036  10.254  20.230  0.00  0.00    +0.033 A 
ATOM     30  C   UNL     1      12.418  12.974  20.279  0.00  0.00    +0.046 A 
ATOM     37  C   UNL     1      13.521  11.098  19.230  0.00  0.00    +0.023 A 
ATOM     38  C   UNL     1      13.212  12.457  19.255  0.00  0.00    +0.005 A 
BRANCH  29  13
ATOM      7  O   UNL     1      12.141   6.466  19.514  0.00  0.00    -0.377 OA
ATOM     13  N   UNL     1      13.343   8.900  20.206  0.00  0.00    -0.325 N 
ATOM     31  C   UNL     1      13.714   8.238  18.951  0.00  0.00    +0.133 C 
ATOM     32  C   UNL     1      12.909   7.971  21.251  0.00  0.00    +0.133 C 
ATOM     34  C   UNL     1      12.529   7.390  18.490  0.00  0.00    +0.178 C 
ATOM     35  C   UNL     1      11.746   7.144  20.714  0.00  0.00    +0.178 C 
ENDBRANCH  29  13
ENDBRANCH   4  24
ENDBRANCH  20   4
ENDBRANCH  17   9
BRANCH  16   8
ATOM      8  N   UNL     1      17.405  11.493  23.239  0.00  0.00    -0.182 NA
ATOM     41  H   UNL     1      16.766  10.716  23.028  0.00  0.00    +0.148 HD
BRANCH   8   1
ATOM      1  S   UNL     1      19.083  11.298  23.081  0.00  0.00    +0.059 S 
ATOM      5  O   UNL     1      19.685  11.208  24.397  0.00  0.00    -0.153 OA
ATOM      6  O   UNL     1      19.576  12.264  22.117  0.00  0.00    -0.153 OA
BRANCH   1  21
ATOM     21  C   UNL     1      19.197   9.706  22.319  0.00  0.00    +0.106 A 
ATOM     22  C   UNL     1      18.123   9.229  21.588  0.00  0.00    +0.037 A 
ATOM     23  C   UNL     1      20.355   8.970  22.469  0.00  0.00    +0.029 A 
ATOM     25  C   UNL     1      18.198   7.967  20.977  0.00  0.00    -0.016 A 
ATOM     26  C   UNL     1      20.447   7.714  21.869  0.00  0.00    +0.010 A 
ATOM     27  C   UNL     1      19.377   7.198  21.120  0.00  0.00    -0.018 A 
ATOM     33  C   UNL     1      17.128   7.451  20.228  0.00  0.00    +0.008 A 
ATOM     36  C   UNL     1      19.452   5.935  20.509  0.00  0.00    +0.008 A 
ATOM     39  C   UNL     1      17.219   6.195  19.628  0.00  0.00    +0.001 A 
ATOM     40  C   UNL     1      18.378   5.437  19.768  0.00  0.00    +0.001 A 
ENDBRANCH   1  21
ENDBRANCH   8   1
ENDBRANCH  16   8
TORSDOF 7
ENDMDL
MODEL 5
REMARK VINA RESULT:      -8.5     23.144     25.427
REMARK  Name = 11879616
REMARK  7 active torsions:
REMARK  status: ('A' for Active; 'I' for Inactive)
REMARK    1  A    between atoms: S_1  and  N_8
REMARK    2  A    between atoms: S_1  and  C_21
REMARK    3  A    between atoms: O_4  and  C_20
REMARK    4  A    between atoms: O_4  and  C_24
REMARK    5  A    between atoms: N_8  and  C_16
REMARK    6  A    between atoms: N_9  and  C_17
REMARK    7  A    between atoms: N_13  and  C_29
REMARK                            x       y       z     vdW  Elec       q    Type
REMARK                         _______ _______ _______ _____ _____    ______ ____
ROOT
ATOM      2  O   UNL     1       7.875   6.668  -2.880  0.00  0.00    -0.370 OA
ATOM      3  O   UNL     1       8.926   5.559  -5.643  0.00  0.00    -0.370 OA
ATOM     14  C   UNL     1       7.728   5.375  -4.873  0.00  0.00    +0.170 C 
ATOM     15  C   UNL     1       8.121   5.352  -3.408  0.00  0.00    +0.175 C 
ATOM     16  C   UNL     1       6.835   6.584  -5.004  0.00  0.00    +0.133 C 
ATOM     17  C   UNL     1       9.611   5.068  -3.411  0.00  0.00    +0.171 C 
ATOM     18  C   UNL     1       7.352   7.506  -3.919  0.00  0.00    +0.183 C 
ATOM     19  C   UNL     1      10.060   5.604  -4.766  0.00  0.00    +0.190 C 
ENDROOT
BRANCH  17   9
ATOM      9  N   UNL     1       9.915   3.655  -3.172  0.00  0.00    -0.187 N 
ATOM     10  N   UNL     1       9.090   2.694  -3.601  0.00  0.00    -0.041 NA
ATOM     11  N   UNL     1      10.847   1.806  -2.554  0.00  0.00    -0.071 NA
ATOM     12  N   UNL     1       9.668   1.561  -3.219  0.00  0.00    -0.020 NA
ATOM     20  C   UNL     1      10.980   3.112  -2.539  0.00  0.00    +0.342 A 
BRANCH  20   4
ATOM      4  O   UNL     1      11.972   3.797  -2.000  0.00  0.00    -0.423 OA
BRANCH   4  24
ATOM     24  C   UNL     1      12.169   3.876  -0.629  0.00  0.00    +0.134 A 
ATOM     28  C   UNL     1      11.223   4.518   0.148  0.00  0.00    +0.069 A 
ATOM     29  C   UNL     1      11.421   4.600   1.526  0.00  0.00    +0.033 A 
ATOM     30  C   UNL     1      13.304   3.313  -0.080  0.00  0.00    +0.046 A 
ATOM     37  C   UNL     1      12.561   4.037   2.102  0.00  0.00    +0.023 A 
ATOM     38  C   UNL     1      13.503   3.394   1.299  0.00  0.00    +0.005 A 
BRANCH  29  13
ATOM      7  O   UNL     1      10.348   7.370   4.141  0.00  0.00    -0.377 OA
ATOM     13  N   UNL     1      10.484   5.240   2.326  0.00  0.00    -0.325 N 
ATOM     31  C   UNL     1       9.886   6.513   1.908  0.00  0.00    +0.133 C 
ATOM     32  C   UNL     1      10.356   4.977   3.761  0.00  0.00    +0.133 C 
ATOM     34  C   UNL     1      10.513   7.630   2.742  0.00  0.00    +0.178 C 
ATOM     35  C   UNL     1      10.976   6.140   4.526  0.00  0.00    +0.178 C 
ENDBRANCH  29  13
ENDBRANCH   4  24
ENDBRANCH  20   4
ENDBRANCH  17   9
BRANCH  16   8
ATOM      8  N   UNL     1       5.430   6.208  -4.711  0.00  0.00    -0.182 NA
ATOM     41  H   UNL     1       5.263   5.566  -3.928  0.00  0.00    +0.148 HD
BRANCH   8   1
ATOM      1  S   UNL     1       4.221   6.496  -5.867  0.00  0.00    +0.059 S 
ATOM      5  O   UNL     1       4.719   6.149  -7.184  0.00  0.00    -0.153 OA
ATOM      6  O   UNL     1       3.647   7.807  -5.625  0.00  0.00    -0.153 OA
BRANCH   1  21
ATOM     21  C   UNL     1       2.994   5.306  -5.416  0.00  0.00    +0.106 A 
ATOM     22  C   UNL     1       3.225   3.966  -5.674  0.00  0.00    +0.037 A 
ATOM     23  C   UNL     1       1.827   5.736  -4.816  0.00  0.00    +0.029 A 
ATOM     25  C   UNL     1       2.260   3.008  -5.323  0.00  0.00    -0.016 A 
ATOM     26  C   UNL     1       0.858   4.799  -4.460  0.00  0.00    +0.010 A 
ATOM     27  C   UNL     1       1.058   3.431  -4.707  0.00  0.00    -0.018 A 
ATOM     33  C   UNL     1       2.461   1.640  -5.569  0.00  0.00    +0.008 A 
ATOM     36  C   UNL     1       0.093   2.473  -4.355  0.00  0.00    +0.008 A 
ATOM     39  C   UNL     1       1.492   0.702  -5.214  0.00  0.00    +0.001 A 
ATOM     40  C   UNL     1       0.309   1.118  -4.608  0.00  0.00    +0.001 A 
ENDBRANCH   1  21
ENDBRANCH   8   1
ENDBRANCH  16   8
TORSDOF 7
ENDMDL
MODEL 6
REMARK VINA RESULT:      -8.5     26.539     30.312
REMARK  Name = 11879616
REMARK  7 active torsions:
REMARK  status: ('A' for Active; 'I' for Inactive)
REMARK    1  A    between atoms: S_1  and  N_8
REMARK    2  A    between atoms: S_1  and  C_21
REMARK    3  A    between atoms: O_4  and  C_20
REMARK    4  A    between atoms: O_4  and  C_24
REMARK    5  A    between atoms: N_8  and  C_16
REMARK    6  A    between atoms: N_9  and  C_17
REMARK    7  A    between atoms: N_13  and  C_29
REMARK                            x       y       z     vdW  Elec       q    Type
REMARK                         _______ _______ _______ _____ _____    ______ ____
ROOT
ATOM      2  O   UNL     1     -17.330   5.122  23.234  0.00  0.00    -0.370 OA
ATOM      3  O   UNL     1     -14.373   4.660  22.226  0.00  0.00    -0.370 OA
ATOM     14  C   UNL     1     -14.979   4.870  23.511  0.00  0.00    +0.170 C 
ATOM     15  C   UNL     1     -16.105   5.871  23.331  0.00  0.00    +0.175 C 
ATOM     16  C   UNL     1     -15.666   3.610  23.975  0.00  0.00    +0.133 C 
ATOM     17  C   UNL     1     -15.810   6.552  22.008  0.00  0.00    +0.171 C 
ATOM     18  C   UNL     1     -17.040   3.722  23.346  0.00  0.00    +0.183 C 
ATOM     19  C   UNL     1     -15.008   5.499  21.251  0.00  0.00    +0.190 C 
ENDROOT
BRANCH  17   9
ATOM      9  N   UNL     1     -15.136   7.842  22.176  0.00  0.00    -0.187 N 
ATOM     10  N   UNL     1     -14.984   8.382  23.389  0.00  0.00    -0.041 NA
ATOM     11  N   UNL     1     -14.095   9.703  21.827  0.00  0.00    -0.071 NA
ATOM     12  N   UNL     1     -14.344   9.525  23.169  0.00  0.00    -0.020 NA
ATOM     20  C   UNL     1     -14.595   8.645  21.232  0.00  0.00    +0.342 A 
BRANCH  20   4
ATOM      4  O   UNL     1     -14.585   8.392  19.936  0.00  0.00    -0.423 OA
BRANCH   4  24
ATOM     24  C   UNL     1     -13.413   8.183  19.224  0.00  0.00    +0.134 A 
ATOM     28  C   UNL     1     -13.321   8.662  17.930  0.00  0.00    +0.069 A 
ATOM     29  C   UNL     1     -12.143   8.450  17.213  0.00  0.00    +0.033 A 
ATOM     30  C   UNL     1     -12.374   7.502  19.826  0.00  0.00    +0.046 A 
ATOM     37  C   UNL     1     -11.080   7.765  17.802  0.00  0.00    +0.023 A 
ATOM     38  C   UNL     1     -11.195   7.291  19.109  0.00  0.00    +0.005 A 
BRANCH  29  13
ATOM      7  O   UNL     1     -11.828   7.919  13.304  0.00  0.00    -0.377 OA
ATOM     13  N   UNL     1     -12.029   8.922  15.912  0.00  0.00    -0.325 N 
ATOM     31  C   UNL     1     -13.196   8.966  15.025  0.00  0.00    +0.133 C 
ATOM     32  C   UNL     1     -10.751   8.976  15.199  0.00  0.00    +0.133 C 
ATOM     34  C   UNL     1     -13.069   7.828  14.012  0.00  0.00    +0.178 C 
ATOM     35  C   UNL     1     -10.706   7.832  14.192  0.00  0.00    +0.178 C 
ENDBRANCH  29  13
ENDBRANCH   4  24
ENDBRANCH  20   4
ENDBRANCH  17   9
BRANCH  16   8
ATOM      8  N   UNL     1     -15.793   3.619  25.453  0.00  0.00    -0.182 NA
ATOM     41  H   UNL     1     -15.074   4.117  25.990  0.00  0.00    +0.148 HD
BRANCH   8   1
ATOM      1  S   UNL     1     -16.835   2.517  26.216  0.00  0.00    +0.059 S 
ATOM      5  O   UNL     1     -16.609   1.188  25.680  0.00  0.00    -0.153 OA
ATOM      6  O   UNL     1     -18.172   3.078  26.239  0.00  0.00    -0.153 OA
BRANCH   1  21
ATOM     21  C   UNL     1     -16.237   2.543  27.880  0.00  0.00    +0.106 A 
ATOM     22  C   UNL     1     -16.035   1.345  28.544  0.00  0.00    +0.037 A 
ATOM     23  C   UNL     1     -15.985   3.757  28.486  0.00  0.00    +0.029 A 
ATOM     25  C   UNL     1     -15.562   1.349  29.866  0.00  0.00    -0.016 A 
ATOM     26  C   UNL     1     -15.514   3.780  29.798  0.00  0.00    +0.010 A 
ATOM     27  C   UNL     1     -15.298   2.585  30.503  0.00  0.00    -0.018 A 
ATOM     33  C   UNL     1     -15.345   0.153  30.571  0.00  0.00    +0.008 A 
ATOM     36  C   UNL     1     -14.824   2.589  31.826  0.00  0.00    +0.008 A 
ATOM     39  C   UNL     1     -14.874   0.175  31.883  0.00  0.00    +0.001 A 
ATOM     40  C   UNL     1     -14.615   1.390  32.511  0.00  0.00    +0.001 A 
ENDBRANCH   1  21
ENDBRANCH   8   1
ENDBRANCH  16   8
TORSDOF 7
ENDMDL
MODEL 7
REMARK VINA RESULT:      -8.5     27.792     30.997
REMARK  Name = 11879616
REMARK  7 active torsions:
REMARK  status: ('A' for Active; 'I' for Inactive)
REMARK    1  A    between atoms: S_1  and  N_8
REMARK    2  A    between atoms: S_1  and  C_21
REMARK    3  A    between atoms: O_4  and  C_20
REMARK    4  A    between atoms: O_4  and  C_24
REMARK    5  A    between atoms: N_8  and  C_16
REMARK    6  A    between atoms: N_9  and  C_17
REMARK    7  A    between atoms: N_13  and  C_29
REMARK                            x       y       z     vdW  Elec       q    Type
REMARK                         _______ _______ _______ _____ _____    ______ ____
ROOT
ATOM      2  O   UNL     1     -17.559   2.239  26.645  0.00  0.00    -0.370 OA
ATOM      3  O   UNL     1     -16.567   4.153  28.953  0.00  0.00    -0.370 OA
ATOM     14  C   UNL     1     -16.087   3.825  27.640  0.00  0.00    +0.170 C 
ATOM     15  C   UNL     1     -16.346   2.347  27.412  0.00  0.00    +0.175 C 
ATOM     16  C   UNL     1     -16.922   4.518  26.592  0.00  0.00    +0.133 C 
ATOM     17  C   UNL     1     -16.559   1.772  28.800  0.00  0.00    +0.171 C 
ATOM     18  C   UNL     1     -18.070   3.552  26.379  0.00  0.00    +0.183 C 
ATOM     19  C   UNL     1     -17.067   2.971  29.593  0.00  0.00    +0.190 C 
ENDROOT
BRANCH  17   9
ATOM      9  N   UNL     1     -15.352   1.140  29.338  0.00  0.00    -0.187 N 
ATOM     10  N   UNL     1     -15.141  -0.172  29.190  0.00  0.00    -0.041 NA
ATOM     11  N   UNL     1     -13.457   0.769  30.309  0.00  0.00    -0.071 NA
ATOM     12  N   UNL     1     -13.976  -0.394  29.788  0.00  0.00    -0.020 NA
ATOM     20  C   UNL     1     -14.328   1.707  30.016  0.00  0.00    +0.342 A 
BRANCH  20   4
ATOM      4  O   UNL     1     -14.240   2.987  30.325  0.00  0.00    -0.423 OA
BRANCH   4  24
ATOM     24  C   UNL     1     -14.351   3.454  31.627  0.00  0.00    +0.134 A 
ATOM     28  C   UNL     1     -14.338   4.817  31.854  0.00  0.00    +0.069 A 
ATOM     29  C   UNL     1     -14.449   5.287  33.162  0.00  0.00    +0.033 A 
ATOM     30  C   UNL     1     -14.471   2.543  32.658  0.00  0.00    +0.046 A 
ATOM     37  C   UNL     1     -14.571   4.384  34.219  0.00  0.00    +0.023 A 
ATOM     38  C   UNL     1     -14.583   3.013  33.967  0.00  0.00    +0.005 A 
BRANCH  29  13
ATOM      7  O   UNL     1     -13.779   9.042  32.107  0.00  0.00    -0.377 OA
ATOM     13  N   UNL     1     -14.437   6.652  33.414  0.00  0.00    -0.325 N 
ATOM     31  C   UNL     1     -15.505   7.518  32.902  0.00  0.00    +0.133 C 
ATOM     32  C   UNL     1     -13.220   7.380  33.780  0.00  0.00    +0.133 C 
ATOM     34  C   UNL     1     -14.950   8.313  31.720  0.00  0.00    +0.178 C 
ATOM     35  C   UNL     1     -12.740   8.167  32.565  0.00  0.00    +0.178 C 
ENDBRANCH  29  13
ENDBRANCH   4  24
ENDBRANCH  20   4
ENDBRANCH  17   9
BRANCH  16   8
ATOM      8  N   UNL     1     -16.146   4.654  25.336  0.00  0.00    -0.182 NA
ATOM     41  H   UNL     1     -15.153   4.393  25.359  0.00  0.00    +0.148 HD
BRANCH   8   1
ATOM      1  S   UNL     1     -16.767   5.579  24.056  0.00  0.00    +0.059 S 
ATOM      5  O   UNL     1     -17.248   6.849  24.566  0.00  0.00    -0.153 OA
ATOM      6  O   UNL     1     -17.635   4.740  23.251  0.00  0.00    -0.153 OA
BRANCH   1  21
ATOM     21  C   UNL     1     -15.317   5.892  23.094  0.00  0.00    +0.106 A 
ATOM     22  C   UNL     1     -15.015   7.193  22.730  0.00  0.00    +0.037 A 
ATOM     23  C   UNL     1     -14.514   4.832  22.722  0.00  0.00    +0.029 A 
ATOM     25  C   UNL     1     -13.867   7.458  21.966  0.00  0.00    -0.016 A 
ATOM     26  C   UNL     1     -13.370   5.077  21.964  0.00  0.00    +0.010 A 
ATOM     27  C   UNL     1     -13.032   6.384  21.576  0.00  0.00    -0.018 A 
ATOM     33  C   UNL     1     -13.529   8.765  21.579  0.00  0.00    +0.008 A 
ATOM     36  C   UNL     1     -11.884   6.649  20.812  0.00  0.00    +0.008 A 
ATOM     39  C   UNL     1     -12.385   9.011  20.820  0.00  0.00    +0.001 A 
ATOM     40  C   UNL     1     -11.564   7.954  20.436  0.00  0.00    +0.001 A 
ENDBRANCH   1  21
ENDBRANCH   8   1
ENDBRANCH  16   8
TORSDOF 7
ENDMDL
MODEL 8
REMARK VINA RESULT:      -8.4      3.170     10.138
REMARK  Name = 11879616
REMARK  7 active torsions:
REMARK  status: ('A' for Active; 'I' for Inactive)
REMARK    1  A    between atoms: S_1  and  N_8
REMARK    2  A    between atoms: S_1  and  C_21
REMARK    3  A    between atoms: O_4  and  C_20
REMARK    4  A    between atoms: O_4  and  C_24
REMARK    5  A    between atoms: N_8  and  C_16
REMARK    6  A    between atoms: N_9  and  C_17
REMARK    7  A    between atoms: N_13  and  C_29
REMARK                            x       y       z     vdW  Elec       q    Type
REMARK                         _______ _______ _______ _____ _____    ______ ____
ROOT
ATOM      2  O   UNL     1      17.469   9.180  20.757  0.00  0.00    -0.370 OA
ATOM      3  O   UNL     1      15.899   6.526  21.440  0.00  0.00    -0.370 OA
ATOM     14  C   UNL     1      17.008   6.850  20.587  0.00  0.00    +0.170 C 
ATOM     15  C   UNL     1      16.738   8.214  19.980  0.00  0.00    +0.175 C 
ATOM     16  C   UNL     1      18.258   7.045  21.409  0.00  0.00    +0.133 C 
ATOM     17  C   UNL     1      15.247   8.430  20.159  0.00  0.00    +0.171 C 
ATOM     18  C   UNL     1      18.178   8.506  21.805  0.00  0.00    +0.183 C 
ATOM     19  C   UNL     1      14.920   7.572  21.376  0.00  0.00    +0.190 C 
ENDROOT
BRANCH  17   9
ATOM      9  N   UNL     1      14.483   8.108  18.951  0.00  0.00    -0.187 N 
ATOM     10  N   UNL     1      14.883   7.138  18.124  0.00  0.00    -0.041 NA
ATOM     11  N   UNL     1      13.005   8.078  17.374  0.00  0.00    -0.071 NA
ATOM     12  N   UNL     1      13.973   7.123  17.158  0.00  0.00    -0.020 NA
ATOM     20  C   UNL     1      13.343   8.675  18.493  0.00  0.00    +0.342 A 
BRANCH  20   4
ATOM      4  O   UNL     1      12.697   9.663  19.084  0.00  0.00    -0.423 OA
BRANCH   4  24
ATOM     24  C   UNL     1      11.952   9.484  20.241  0.00  0.00    +0.134 A 
ATOM     28  C   UNL     1      11.842  10.533  21.136  0.00  0.00    +0.069 A 
ATOM     29  C   UNL     1      11.095  10.353  22.300  0.00  0.00    +0.033 A 
ATOM     30  C   UNL     1      11.344   8.265  20.467  0.00  0.00    +0.046 A 
ATOM     37  C   UNL     1      10.472   9.129  22.548  0.00  0.00    +0.023 A 
ATOM     38  C   UNL     1      10.597   8.086  21.631  0.00  0.00    +0.005 A 
BRANCH  29  13
ATOM      7  O   UNL     1      12.599  13.218  24.579  0.00  0.00    -0.377 OA
ATOM     13  N   UNL     1      10.972  11.392  23.213  0.00  0.00    -0.325 N 
ATOM     31  C   UNL     1      11.025  12.789  22.770  0.00  0.00    +0.133 C 
ATOM     32  C   UNL     1      11.226  11.222  24.645  0.00  0.00    +0.133 C 
ATOM     34  C   UNL     1      12.383  13.365  23.171  0.00  0.00    +0.178 C 
ATOM     35  C   UNL     1      12.581  11.841  24.975  0.00  0.00    +0.178 C 
ENDBRANCH  29  13
ENDBRANCH   4  24
ENDBRANCH  20   4
ENDBRANCH  17   9
BRANCH  16   8
ATOM      8  N   UNL     1      19.457   6.824  20.565  0.00  0.00    -0.182 NA
ATOM     41  H   UNL     1      19.351   6.230  19.733  0.00  0.00    +0.148 HD
BRANCH   8   1
ATOM      1  S   UNL     1      20.998   7.191  21.175  0.00  0.00    +0.059 S 
ATOM      5  O   UNL     1      20.884   7.594  22.563  0.00  0.00    -0.153 OA
ATOM      6  O   UNL     1      21.687   8.041  20.222  0.00  0.00    -0.153 OA
BRANCH   1  21
ATOM     21  C   UNL     1      21.795   5.613  21.128  0.00  0.00    +0.106 A 
ATOM     22  C   UNL     1      23.178   5.554  21.136  0.00  0.00    +0.037 A 
ATOM     23  C   UNL     1      21.023   4.469  21.083  0.00  0.00    +0.029 A 
ATOM     25  C   UNL     1      23.826   4.309  21.099  0.00  0.00    -0.016 A 
ATOM     26  C   UNL     1      21.649   3.224  21.046  0.00  0.00    +0.010 A 
ATOM     27  C   UNL     1      23.050   3.126  21.053  0.00  0.00    -0.018 A 
ATOM     33  C   UNL     1      25.227   4.211  21.106  0.00  0.00    +0.008 A 
ATOM     36  C   UNL     1      23.698   1.881  21.016  0.00  0.00    +0.008 A 
ATOM     39  C   UNL     1      25.855   2.966  21.069  0.00  0.00    +0.001 A 
ATOM     40  C   UNL     1      25.092   1.803  21.023  0.00  0.00    +0.001 A 
ENDBRANCH   1  21
ENDBRANCH   8   1
ENDBRANCH  16   8
TORSDOF 7
ENDMDL
MODEL 9
REMARK VINA RESULT:      -8.4     28.240     30.936
REMARK  Name = 11879616
REMARK  7 active torsions:
REMARK  status: ('A' for Active; 'I' for Inactive)
REMARK    1  A    between atoms: S_1  and  N_8
REMARK    2  A    between atoms: S_1  and  C_21
REMARK    3  A    between atoms: O_4  and  C_20
REMARK    4  A    between atoms: O_4  and  C_24
REMARK    5  A    between atoms: N_8  and  C_16
REMARK    6  A    between atoms: N_9  and  C_17
REMARK    7  A    between atoms: N_13  and  C_29
REMARK                            x       y       z     vdW  Elec       q    Type
REMARK                         _______ _______ _______ _____ _____    ______ ____
ROOT
ATOM      2  O   UNL     1      -5.393 -14.898  16.138  0.00  0.00    -0.370 OA
ATOM      3  O   UNL     1      -5.783 -11.848  15.417  0.00  0.00    -0.370 OA
ATOM     14  C   UNL     1      -4.651 -12.669  15.746  0.00  0.00    +0.170 C 
ATOM     15  C   UNL     1      -5.094 -13.659  16.807  0.00  0.00    +0.175 C 
ATOM     16  C   UNL     1      -4.272 -13.529  14.565  0.00  0.00    +0.133 C 
ATOM     17  C   UNL     1      -6.365 -13.065  17.384  0.00  0.00    +0.171 C 
ATOM     18  C   UNL     1      -5.161 -14.744  14.731  0.00  0.00    +0.183 C 
ATOM     19  C   UNL     1      -6.901 -12.218  16.236  0.00  0.00    +0.190 C 
ENDROOT
BRANCH  17   9
ATOM      9  N   UNL     1      -6.129 -12.337  18.634  0.00  0.00    -0.187 N 
ATOM     10  N   UNL     1      -4.905 -11.907  18.956  0.00  0.00    -0.041 NA
ATOM     11  N   UNL     1      -6.372 -11.351  20.541  0.00  0.00    -0.071 NA
ATOM     12  N   UNL     1      -5.060 -11.302  20.128  0.00  0.00    -0.020 NA
ATOM     20  C   UNL     1      -7.016 -11.997  19.597  0.00  0.00    +0.342 A 
BRANCH  20   4
ATOM      4  O   UNL     1      -8.306 -12.279  19.574  0.00  0.00    -0.423 OA
BRANCH   4  24
ATOM     24  C   UNL     1      -9.277 -11.319  19.329  0.00  0.00    +0.134 A 
ATOM     28  C   UNL     1      -9.093 -10.430  18.287  0.00  0.00    +0.069 A 
ATOM     29  C   UNL     1     -10.069  -9.463  18.042  0.00  0.00    +0.033 A 
ATOM     30  C   UNL     1     -10.400 -11.280  20.133  0.00  0.00    +0.046 A 
ATOM     37  C   UNL     1     -11.211  -9.406  18.841  0.00  0.00    +0.023 A 
ATOM     38  C   UNL     1     -11.376 -10.314  19.887  0.00  0.00    +0.005 A 
BRANCH  29  13
ATOM      7  O   UNL     1     -11.156  -7.840  14.600  0.00  0.00    -0.377 OA
ATOM     13  N   UNL     1      -9.904  -8.559  17.001  0.00  0.00    -0.325 N 
ATOM     31  C   UNL     1     -10.706  -7.332  16.939  0.00  0.00    +0.133 C 
ATOM     32  C   UNL     1      -9.303  -8.930  15.718  0.00  0.00    +0.133 C 
ATOM     34  C   UNL     1     -11.766  -7.510  15.853  0.00  0.00    +0.178 C 
ATOM     35  C   UNL     1     -10.414  -9.063  14.681  0.00  0.00    +0.178 C 
ENDBRANCH  29  13
ENDBRANCH   4  24
ENDBRANCH  20   4
ENDBRANCH  17   9
BRANCH  16   8
ATOM      8  N   UNL     1      -2.849 -13.934  14.673  0.00  0.00    -0.182 NA
ATOM     41  H   UNL     1      -2.597 -14.592  15.420  0.00  0.00    +0.148 HD
BRANCH   8   1
ATOM      1  S   UNL     1      -1.653 -13.037  13.870  0.00  0.00    +0.059 S 
ATOM      5  O   UNL     1      -0.570 -13.918  13.478  0.00  0.00    -0.153 OA
ATOM      6  O   UNL     1      -1.377 -11.837  14.636  0.00  0.00    -0.153 OA
BRANCH   1  21
ATOM     21  C   UNL     1      -2.500 -12.528  12.403  0.00  0.00    +0.106 A 
ATOM     22  C   UNL     1      -2.521 -11.186  12.066  0.00  0.00    +0.037 A 
ATOM     23  C   UNL     1      -3.125 -13.480  11.622  0.00  0.00    +0.029 A 
ATOM     25  C   UNL     1      -3.190 -10.766  10.905  0.00  0.00    -0.016 A 
ATOM     26  C   UNL     1      -3.794 -13.081  10.466  0.00  0.00    +0.010 A 
ATOM     27  C   UNL     1      -3.837 -11.728  10.093  0.00  0.00    -0.018 A 
ATOM     33  C   UNL     1      -3.232  -9.412  10.533  0.00  0.00    +0.008 A 
ATOM     36  C   UNL     1      -4.505 -11.308   8.931  0.00  0.00    +0.008 A 
ATOM     39  C   UNL     1      -3.901  -9.012   9.376  0.00  0.00    +0.001 A 
ATOM     40  C   UNL     1      -4.537  -9.958   8.577  0.00  0.00    +0.001 A 
ENDBRANCH   1  21
ENDBRANCH   8   1
ENDBRANCH  16   8
TORSDOF 7
ENDMDL
MODEL 10
REMARK VINA RESULT:      -8.3     27.747     30.884
REMARK  Name = 11879616
REMARK  7 active torsions:
REMARK  status: ('A' for Active; 'I' for Inactive)
REMARK    1  A    between atoms: S_1  and  N_8
REMARK    2  A    between atoms: S_1  and  C_21
REMARK    3  A    between atoms: O_4  and  C_20
REMARK    4  A    between atoms: O_4  and  C_24
REMARK    5  A    between atoms: N_8  and  C_16
REMARK    6  A    between atoms: N_9  and  C_17
REMARK    7  A    between atoms: N_13  and  C_29
REMARK                            x       y       z     vdW  Elec       q    Type
REMARK                         _______ _______ _______ _____ _____    ______ ____
ROOT
ATOM      2  O   UNL     1      -5.550  -9.558  16.380  0.00  0.00    -0.370 OA
ATOM      3  O   UNL     1      -5.507 -11.556  18.827  0.00  0.00    -0.370 OA
ATOM     14  C   UNL     1      -5.543 -11.710  17.399  0.00  0.00    +0.170 C 
ATOM     15  C   UNL     1      -6.421 -10.608  16.839  0.00  0.00    +0.175 C 
ATOM     16  C   UNL     1      -4.179 -11.440  16.813  0.00  0.00    +0.133 C 
ATOM     17  C   UNL     1      -7.237 -10.122  18.022  0.00  0.00    +0.171 C 
ATOM     18  C   UNL     1      -4.187  -9.937  16.617  0.00  0.00    +0.183 C 
ATOM     19  C   UNL     1      -6.346 -10.458  19.213  0.00  0.00    +0.190 C 
ENDROOT
BRANCH  17   9
ATOM      9  N   UNL     1      -8.576 -10.714  18.063  0.00  0.00    -0.187 N 
ATOM     10  N   UNL     1      -8.938 -11.523  19.064  0.00  0.00    -0.041 NA
ATOM     11  N   UNL     1     -10.613 -11.277  17.613  0.00  0.00    -0.071 NA
ATOM     12  N   UNL     1     -10.190 -11.866  18.783  0.00  0.00    -0.020 NA
ATOM     20  C   UNL     1      -9.595 -10.567  17.186  0.00  0.00    +0.342 A 
BRANCH  20   4
ATOM      4  O   UNL     1      -9.553  -9.832  16.090  0.00  0.00    -0.423 OA
BRANCH   4  24
ATOM     24  C   UNL     1     -10.312  -8.682  15.931  0.00  0.00    +0.134 A 
ATOM     28  C   UNL     1     -11.210  -8.612  14.882  0.00  0.00    +0.069 A 
ATOM     29  C   UNL     1     -11.972  -7.455  14.719  0.00  0.00    +0.033 A 
ATOM     30  C   UNL     1     -10.149  -7.640  16.823  0.00  0.00    +0.046 A 
ATOM     37  C   UNL     1     -11.824  -6.391  15.609  0.00  0.00    +0.023 A 
ATOM     38  C   UNL     1     -10.913  -6.483  16.660  0.00  0.00    +0.005 A 
BRANCH  29  13
ATOM      7  O   UNL     1     -14.194  -5.394  12.174  0.00  0.00    -0.377 OA
ATOM     13  N   UNL     1     -12.880  -7.363  13.672  0.00  0.00    -0.325 N 
ATOM     31  C   UNL     1     -12.425  -7.063  12.310  0.00  0.00    +0.133 C 
ATOM     32  C   UNL     1     -14.307  -7.110  13.881  0.00  0.00    +0.133 C 
ATOM     34  C   UNL     1     -12.790  -5.613  11.994  0.00  0.00    +0.178 C 
ATOM     35  C   UNL     1     -14.601  -5.658  13.523  0.00  0.00    +0.178 C 
ENDBRANCH  29  13
ENDBRANCH   4  24
ENDBRANCH  20   4
ENDBRANCH  17   9
BRANCH  16   8
ATOM      8  N   UNL     1      -4.053 -12.112  15.497  0.00  0.00    -0.182 NA
ATOM     41  H   UNL     1      -4.792 -12.773  15.227  0.00  0.00    +0.148 HD
BRANCH   8   1
ATOM      1  S   UNL     1      -2.564 -12.100  14.683  0.00  0.00    +0.059 S 
ATOM      5  O   UNL     1      -2.234 -13.447  14.258  0.00  0.00    -0.153 OA
ATOM      6  O   UNL     1      -1.614 -11.326  15.459  0.00  0.00    -0.153 OA
BRANCH   1  21
ATOM     21  C   UNL     1      -2.944 -11.151  13.240  0.00  0.00    +0.106 A 
ATOM     22  C   UNL     1      -4.248 -10.742  13.024  0.00  0.00    +0.037 A 
ATOM     23  C   UNL     1      -1.931 -10.837  12.355  0.00  0.00    +0.029 A 
ATOM     25  C   UNL     1      -4.566  -9.988  11.883  0.00  0.00    -0.016 A 
ATOM     26  C   UNL     1      -2.229 -10.088  11.217  0.00  0.00    +0.010 A 
ATOM     27  C   UNL     1      -3.541  -9.657  10.965  0.00  0.00    -0.018 A 
ATOM     33  C   UNL     1      -5.878  -9.556  11.632  0.00  0.00    +0.008 A 
ATOM     36  C   UNL     1      -3.858  -8.902   9.824  0.00  0.00    +0.008 A 
ATOM     39  C   UNL     1      -6.177  -8.807  10.493  0.00  0.00    +0.001 A 
ATOM     40  C   UNL     1      -5.169  -8.482   9.590  0.00  0.00    +0.001 A 
ENDBRANCH   1  21
ENDBRANCH   8   1
ENDBRANCH  16   8
TORSDOF 7
ENDMDL
