REMARK  Name = 45784284
REMARK  4 active torsions:
REMARK  status: ('A' for Active; 'I' for Inactive)
REMARK    1  A    between atoms: O_1  and  C_18
REMARK    2  A    between atoms: O_1  and  C_20
REMARK    3  A    between atoms: N_2  and  C_5
REMARK    4  A    between atoms: C_9  and  C_13
REMARK                            x       y       z     vdW  Elec       q    Type
REMARK                         _______ _______ _______ _____ _____    ______ ____
ROOT
ATOM      3  N   UNL     1      -1.212  -1.229   0.134  0.00  0.00    -0.341 N 
ATOM      4  N   UNL     1      -0.552   0.760  -0.608  0.00  0.00    -0.232 NA
ATOM     13  C   UNL     1      -0.167  -0.456  -0.289  0.00  0.00    +0.113 A 
ATOM     14  C   UNL     1      -2.347  -0.461   0.085  0.00  0.00    +0.070 A 
ATOM     15  C   UNL     1      -1.909   0.775  -0.381  0.00  0.00    +0.089 A 
ATOM     16  C   UNL     1      -3.679  -0.734   0.399  0.00  0.00    +0.073 A 
ATOM     17  C   UNL     1      -2.841   1.813  -0.550  0.00  0.00    +0.033 A 
ATOM     18  C   UNL     1      -4.593   0.310   0.225  0.00  0.00    +0.122 A 
ATOM     19  C   UNL     1      -4.184   1.561  -0.241  0.00  0.00    +0.048 A 
ATOM     21  H   UNL     1      -1.161  -2.195   0.430  0.00  0.00    +0.167 HD
ENDROOT
BRANCH  13   9
ATOM      2  N   UNL     1       3.497  -0.394  -0.180  0.00  0.00    -0.299 NA
ATOM      8  C   UNL     1       2.226  -0.236   0.533  0.00  0.00    +0.096 C 
ATOM      9  C   UNL     1       1.240  -1.005  -0.357  0.00  0.00    +0.070 C 
ATOM     11  C   UNL     1       3.165  -0.183  -1.590  0.00  0.00    +0.085 C 
ATOM     12  C   UNL     1       1.877  -0.979  -1.757  0.00  0.00    +0.028 C 
BRANCH   2   5
ATOM      5  C   UNL     1       4.478   0.597   0.278  0.00  0.00    +0.057 C 
ATOM      6  C   UNL     1       4.919   0.262   1.717  0.00  0.00    +0.019 C 
ATOM      7  C   UNL     1       5.891   0.173  -0.173  0.00  0.00    +0.019 C 
ATOM     10  C   UNL     1       6.367   0.523   1.252  0.00  0.00    +0.003 C 
ENDBRANCH   2   5
ENDBRANCH  13   9
BRANCH  18   1
ATOM      1  O   UNL     1      -5.909   0.100   0.516  0.00  0.00    -0.495 OA
ATOM     20  C   UNL     1      -6.268  -1.197   0.988  0.00  0.00    +0.277 C 
ENDBRANCH  18   1
TORSDOF 3
