MODEL 1
REMARK VINA RESULT:      -6.3      0.000      0.000
REMARK  Name = 44716247
REMARK  8 active torsions:
REMARK  status: ('A' for Active; 'I' for Inactive)
REMARK    1  A    between atoms: N_4  and  C_15
REMARK    2  A    between atoms: N_5  and  C_17
REMARK    3  A    between atoms: C_9  and  C_16
REMARK    4  A    between atoms: C_10  and  C_15
REMARK    5  A    between atoms: C_17  and  C_19
REMARK    6  A    between atoms: C_17  and  C_20
REMARK    7  A    between atoms: C_21  and  C_22
REMARK    8  A    between atoms: C_22  and  C_23
REMARK                            x       y       z     vdW  Elec       q    Type
REMARK                         _______ _______ _______ _____ _____    ______ ____
ROOT
ATOM      3  N   UNL     1      14.147   8.946  21.242  0.00  0.00    -0.297 NA
ATOM      8  C   UNL     1      14.809   6.852  19.844  0.00  0.00    +0.005 C 
ATOM      9  C   UNL     1      15.618   6.932  21.154  0.00  0.00    +0.092 C 
ATOM     10  C   UNL     1      13.014   7.983  21.190  0.00  0.00    +0.078 C 
ATOM     11  C   UNL     1      13.319   6.809  20.231  0.00  0.00    +0.025 C 
ATOM     12  C   UNL     1      15.013   8.148  19.038  0.00  0.00    +0.020 C 
ATOM     13  C   UNL     1      15.311   8.264  21.864  0.00  0.00    +0.097 C 
ATOM     14  C   UNL     1      14.549   9.351  19.875  0.00  0.00    +0.085 C 
ENDROOT
BRANCH   9  16
ATOM      1  O   UNL     1      17.523   5.987  20.068  0.00  0.00    -0.275 OA
ATOM      5  N   UNL     1      17.850   7.581  21.732  0.00  0.00    -0.313 N 
ATOM     16  C   UNL     1      17.089   6.773  20.906  0.00  0.00    +0.218 C 
ATOM     24  H   UNL     1      17.382   8.223  22.365  0.00  0.00    +0.149 HD
BRANCH   5  17
ATOM     17  C   UNL     1      19.295   7.599  21.706  0.00  0.00    +0.067 C 
ATOM     19  C   UNL     1      19.816   9.022  21.865  0.00  0.00    +0.027 C 
ATOM     20  C   UNL     1      19.855   6.681  22.786  0.00  0.00    +0.027 C 
ENDBRANCH   5  17
ENDBRANCH   9  16
BRANCH  10  15
ATOM     15  C   UNL     1      11.689   8.667  20.846  0.00  0.00    +0.164 C 
BRANCH  15   4
ATOM      4  N   UNL     1      11.471   9.898  21.680  0.00  0.00    -0.250 N 
ATOM      6  N   UNL     1      11.575  11.122  21.135  0.00  0.00    -0.065 NA
ATOM      7  N   UNL     1      11.333  12.004  22.098  0.00  0.00    -0.127 NA
ATOM     18  C   UNL     1      11.158   9.963  23.002  0.00  0.00    +0.141 A 
ATOM     21  C   UNL     1      11.076  11.311  23.248  0.00  0.00    +0.147 A 
BRANCH  21  22
ATOM      2  O   UNL     1      10.848  11.333  25.596  0.00  0.00    -0.291 OA
ATOM     22  C   UNL     1      10.772  11.941  24.495  0.00  0.00    +0.181 C 
ATOM     23  C   UNL     1      10.329  13.412  24.552  0.00  0.00    +0.093 C 
ENDBRANCH  21  22
ENDBRANCH  15   4
ENDBRANCH  10  15
TORSDOF 5
ENDMDL
MODEL 2
REMARK VINA RESULT:      -5.9     27.058     28.807
REMARK  Name = 44716247
REMARK  8 active torsions:
REMARK  status: ('A' for Active; 'I' for Inactive)
REMARK    1  A    between atoms: N_4  and  C_15
REMARK    2  A    between atoms: N_5  and  C_17
REMARK    3  A    between atoms: C_9  and  C_16
REMARK    4  A    between atoms: C_10  and  C_15
REMARK    5  A    between atoms: C_17  and  C_19
REMARK    6  A    between atoms: C_17  and  C_20
REMARK    7  A    between atoms: C_21  and  C_22
REMARK    8  A    between atoms: C_22  and  C_23
REMARK                            x       y       z     vdW  Elec       q    Type
REMARK                         _______ _______ _______ _____ _____    ______ ____
ROOT
ATOM      3  N   UNL     1      -6.551 -10.928  16.322  0.00  0.00    -0.297 NA
ATOM      8  C   UNL     1      -4.485 -11.158  17.889  0.00  0.00    +0.005 C 
ATOM      9  C   UNL     1      -4.173 -10.260  16.676  0.00  0.00    +0.092 C 
ATOM     10  C   UNL     1      -6.817 -10.257  17.624  0.00  0.00    +0.078 C 
ATOM     11  C   UNL     1      -5.675 -10.521  18.633  0.00  0.00    +0.025 C 
ATOM     12  C   UNL     1      -4.967 -12.535  17.396  0.00  0.00    +0.020 C 
ATOM     13  C   UNL     1      -5.365 -10.286  15.700  0.00  0.00    +0.097 C 
ATOM     14  C   UNL     1      -6.224 -12.357  16.530  0.00  0.00    +0.085 C 
ENDROOT
BRANCH   9  16
ATOM      1  O   UNL     1      -1.853 -10.824  16.618  0.00  0.00    -0.275 OA
ATOM      5  N   UNL     1      -3.066 -10.831  14.630  0.00  0.00    -0.313 N 
ATOM     16  C   UNL     1      -2.902 -10.674  15.996  0.00  0.00    +0.218 C 
ATOM     24  H   UNL     1      -3.991 -10.717  14.226  0.00  0.00    +0.149 HD
BRANCH   5  17
ATOM     17  C   UNL     1      -1.987 -11.205  13.743  0.00  0.00    +0.067 C 
ATOM     19  C   UNL     1      -1.845 -12.721  13.682  0.00  0.00    +0.027 C 
ATOM     20  C   UNL     1      -2.215 -10.615  12.357  0.00  0.00    +0.027 C 
ENDBRANCH   5  17
ENDBRANCH   9  16
BRANCH  10  15
ATOM     15  C   UNL     1      -8.182 -10.637  18.202  0.00  0.00    +0.164 C 
BRANCH  15   4
ATOM      4  N   UNL     1      -9.243  -9.651  17.803  0.00  0.00    -0.250 N 
ATOM      6  N   UNL     1     -10.466  -9.699  18.359  0.00  0.00    -0.065 NA
ATOM      7  N   UNL     1     -11.182  -8.718  17.820  0.00  0.00    -0.127 NA
ATOM     18  C   UNL     1      -9.143  -8.640  16.898  0.00  0.00    +0.141 A 
ATOM     21  C   UNL     1     -10.387  -8.060  16.924  0.00  0.00    +0.147 A 
BRANCH  21  22
ATOM      2  O   UNL     1     -10.033  -6.194  15.526  0.00  0.00    -0.291 OA
ATOM     22  C   UNL     1     -10.831  -6.941  16.153  0.00  0.00    +0.181 C 
ATOM     23  C   UNL     1     -12.324  -6.590  16.052  0.00  0.00    +0.093 C 
ENDBRANCH  21  22
ENDBRANCH  15   4
ENDBRANCH  10  15
TORSDOF 5
ENDMDL
MODEL 3
REMARK VINA RESULT:      -5.6      4.371      6.445
REMARK  Name = 44716247
REMARK  8 active torsions:
REMARK  status: ('A' for Active; 'I' for Inactive)
REMARK    1  A    between atoms: N_4  and  C_15
REMARK    2  A    between atoms: N_5  and  C_17
REMARK    3  A    between atoms: C_9  and  C_16
REMARK    4  A    between atoms: C_10  and  C_15
REMARK    5  A    between atoms: C_17  and  C_19
REMARK    6  A    between atoms: C_17  and  C_20
REMARK    7  A    between atoms: C_21  and  C_22
REMARK    8  A    between atoms: C_22  and  C_23
REMARK                            x       y       z     vdW  Elec       q    Type
REMARK                         _______ _______ _______ _____ _____    ______ ____
ROOT
ATOM      3  N   UNL     1      19.708   7.742  22.314  0.00  0.00    -0.297 NA
ATOM      8  C   UNL     1      20.563   5.906  20.680  0.00  0.00    +0.005 C 
ATOM      9  C   UNL     1      20.697   5.457  22.149  0.00  0.00    +0.092 C 
ATOM     10  C   UNL     1      18.573   7.186  21.527  0.00  0.00    +0.078 C 
ATOM     11  C   UNL     1      19.074   6.215  20.433  0.00  0.00    +0.025 C 
ATOM     12  C   UNL     1      21.322   7.229  20.477  0.00  0.00    +0.020 C 
ATOM     13  C   UNL     1      20.334   6.632  23.077  0.00  0.00    +0.097 C 
ATOM     14  C   UNL     1      20.742   8.301  21.414  0.00  0.00    +0.085 C 
ENDROOT
BRANCH   9  16
ATOM      1  O   UNL     1      22.903   5.605  23.051  0.00  0.00    -0.275 OA
ATOM      5  N   UNL     1      22.270   3.662  21.937  0.00  0.00    -0.313 N 
ATOM     16  C   UNL     1      22.072   4.935  22.443  0.00  0.00    +0.218 C 
ATOM     24  H   UNL     1      21.496   3.185  21.483  0.00  0.00    +0.149 HD
BRANCH   5  17
ATOM     17  C   UNL     1      23.517   2.944  22.068  0.00  0.00    +0.067 C 
ATOM     19  C   UNL     1      23.520   2.101  23.336  0.00  0.00    +0.027 C 
ATOM     20  C   UNL     1      23.765   2.086  20.833  0.00  0.00    +0.027 C 
ENDBRANCH   5  17
ENDBRANCH   9  16
BRANCH  10  15
ATOM     15  C   UNL     1      17.682   8.285  20.944  0.00  0.00    +0.164 C 
BRANCH  15   4
ATOM      4  N   UNL     1      16.331   7.753  20.557  0.00  0.00    -0.250 N 
ATOM      6  N   UNL     1      15.762   6.757  21.258  0.00  0.00    -0.065 NA
ATOM      7  N   UNL     1      14.587   6.499  20.691  0.00  0.00    -0.127 NA
ATOM     18  C   UNL     1      15.539   8.159  19.528  0.00  0.00    +0.141 A 
ATOM     21  C   UNL     1      14.436   7.349  19.631  0.00  0.00    +0.147 A 
BRANCH  21  22
ATOM      2  O   UNL     1      12.223   6.741  19.086  0.00  0.00    -0.291 OA
ATOM     22  C   UNL     1      13.283   7.353  18.786  0.00  0.00    +0.181 C 
ATOM     23  C   UNL     1      13.282   8.116  17.451  0.00  0.00    +0.093 C 
ENDBRANCH  21  22
ENDBRANCH  15   4
ENDBRANCH  10  15
TORSDOF 5
ENDMDL
MODEL 4
REMARK VINA RESULT:      -5.6     27.025     28.731
REMARK  Name = 44716247
REMARK  8 active torsions:
REMARK  status: ('A' for Active; 'I' for Inactive)
REMARK    1  A    between atoms: N_4  and  C_15
REMARK    2  A    between atoms: N_5  and  C_17
REMARK    3  A    between atoms: C_9  and  C_16
REMARK    4  A    between atoms: C_10  and  C_15
REMARK    5  A    between atoms: C_17  and  C_19
REMARK    6  A    between atoms: C_17  and  C_20
REMARK    7  A    between atoms: C_21  and  C_22
REMARK    8  A    between atoms: C_22  and  C_23
REMARK                            x       y       z     vdW  Elec       q    Type
REMARK                         _______ _______ _______ _____ _____    ______ ____
ROOT
ATOM      3  N   UNL     1      -4.371 -11.622  15.254  0.00  0.00    -0.297 NA
ATOM      8  C   UNL     1      -1.889 -11.214  14.588  0.00  0.00    +0.005 C 
ATOM      9  C   UNL     1      -2.841 -10.304  13.788  0.00  0.00    +0.092 C 
ATOM     10  C   UNL     1      -3.628 -11.011  16.390  0.00  0.00    +0.078 C 
ATOM     11  C   UNL     1      -2.116 -10.912  16.081  0.00  0.00    +0.025 C 
ATOM     12  C   UNL     1      -2.288 -12.686  14.376  0.00  0.00    +0.020 C 
ATOM     13  C   UNL     1      -4.299 -10.694  14.096  0.00  0.00    +0.097 C 
ATOM     14  C   UNL     1      -3.738 -12.895  14.842  0.00  0.00    +0.085 C 
ENDROOT
BRANCH   9  16
ATOM      1  O   UNL     1      -1.421 -10.256  11.869  0.00  0.00    -0.275 OA
ATOM      5  N   UNL     1      -3.712 -10.536  11.569  0.00  0.00    -0.313 N 
ATOM     16  C   UNL     1      -2.560 -10.367  12.316  0.00  0.00    +0.218 C 
ATOM     24  H   UNL     1      -4.600 -10.656  12.048  0.00  0.00    +0.149 HD
BRANCH   5  17
ATOM     17  C   UNL     1      -3.714 -10.607  10.125  0.00  0.00    +0.067 C 
ATOM     19  C   UNL     1      -4.851 -11.495   9.634  0.00  0.00    +0.027 C 
ATOM     20  C   UNL     1      -3.808  -9.209   9.528  0.00  0.00    +0.027 C 
ENDBRANCH   5  17
ENDBRANCH   9  16
BRANCH  10  15
ATOM     15  C   UNL     1      -3.891 -11.738  17.710  0.00  0.00    +0.164 C 
BRANCH  15   4
ATOM      4  N   UNL     1      -5.264 -11.437  18.243  0.00  0.00    -0.250 N 
ATOM      6  N   UNL     1      -5.760 -10.190  18.189  0.00  0.00    -0.065 NA
ATOM      7  N   UNL     1      -6.975 -10.226  18.726  0.00  0.00    -0.127 NA
ATOM     18  C   UNL     1      -6.145 -12.304  18.812  0.00  0.00    +0.141 A 
ATOM     21  C   UNL     1      -7.226 -11.513  19.113  0.00  0.00    +0.147 A 
BRANCH  21  22
ATOM      2  O   UNL     1      -9.332 -11.103  20.091  0.00  0.00    -0.291 OA
ATOM     22  C   UNL     1      -8.446 -11.924  19.733  0.00  0.00    +0.181 C 
ATOM     23  C   UNL     1      -8.740 -13.410  19.998  0.00  0.00    +0.093 C 
ENDBRANCH  21  22
ENDBRANCH  15   4
ENDBRANCH  10  15
TORSDOF 5
ENDMDL
MODEL 5
REMARK VINA RESULT:      -5.6     29.641     31.941
REMARK  Name = 44716247
REMARK  8 active torsions:
REMARK  status: ('A' for Active; 'I' for Inactive)
REMARK    1  A    between atoms: N_4  and  C_15
REMARK    2  A    between atoms: N_5  and  C_17
REMARK    3  A    between atoms: C_9  and  C_16
REMARK    4  A    between atoms: C_10  and  C_15
REMARK    5  A    between atoms: C_17  and  C_19
REMARK    6  A    between atoms: C_17  and  C_20
REMARK    7  A    between atoms: C_21  and  C_22
REMARK    8  A    between atoms: C_22  and  C_23
REMARK                            x       y       z     vdW  Elec       q    Type
REMARK                         _______ _______ _______ _____ _____    ______ ____
ROOT
ATOM      3  N   UNL     1     -16.951   3.037  27.156  0.00  0.00    -0.297 NA
ATOM      8  C   UNL     1     -17.207   1.778  24.893  0.00  0.00    +0.005 C 
ATOM      9  C   UNL     1     -16.071   2.819  24.831  0.00  0.00    +0.092 C 
ATOM     10  C   UNL     1     -16.566   1.609  27.317  0.00  0.00    +0.078 C 
ATOM     11  C   UNL     1     -16.866   0.800  26.033  0.00  0.00    +0.025 C 
ATOM     12  C   UNL     1     -18.519   2.475  25.294  0.00  0.00    +0.020 C 
ATOM     13  C   UNL     1     -16.066   3.647  26.130  0.00  0.00    +0.097 C 
ATOM     14  C   UNL     1     -18.344   3.149  26.664  0.00  0.00    +0.085 C 
ENDROOT
BRANCH   9  16
ATOM      1  O   UNL     1     -16.459   3.246  22.514  0.00  0.00    -0.275 OA
ATOM      5  N   UNL     1     -15.960   5.032  23.920  0.00  0.00    -0.313 N 
ATOM     16  C   UNL     1     -16.196   3.701  23.624  0.00  0.00    +0.218 C 
ATOM     24  H   UNL     1     -15.789   5.302  24.885  0.00  0.00    +0.149 HD
BRANCH   5  17
ATOM     17  C   UNL     1     -15.998   6.082  22.927  0.00  0.00    +0.067 C 
ATOM     19  C   UNL     1     -17.038   7.131  23.296  0.00  0.00    +0.027 C 
ATOM     20  C   UNL     1     -14.617   6.705  22.764  0.00  0.00    +0.027 C 
ENDBRANCH   5  17
ENDBRANCH   9  16
BRANCH  10  15
ATOM     15  C   UNL     1     -17.209   0.972  28.551  0.00  0.00    +0.164 C 
BRANCH  15   4
ATOM      4  N   UNL     1     -16.242   0.895  29.699  0.00  0.00    -0.250 N 
ATOM      6  N   UNL     1     -15.731  -0.286  30.085  0.00  0.00    -0.065 NA
ATOM      7  N   UNL     1     -14.918  -0.048  31.109  0.00  0.00    -0.127 NA
ATOM     18  C   UNL     1     -15.771   1.919  30.462  0.00  0.00    +0.141 A 
ATOM     21  C   UNL     1     -14.931   1.297  31.352  0.00  0.00    +0.147 A 
BRANCH  21  22
ATOM      2  O   UNL     1     -13.189   2.672  32.150  0.00  0.00    -0.291 OA
ATOM     22  C   UNL     1     -14.168   1.916  32.390  0.00  0.00    +0.181 C 
ATOM     23  C   UNL     1     -14.509   1.684  33.871  0.00  0.00    +0.093 C 
ENDBRANCH  21  22
ENDBRANCH  15   4
ENDBRANCH  10  15
TORSDOF 5
ENDMDL
MODEL 6
REMARK VINA RESULT:      -5.5     17.803     20.551
REMARK  Name = 44716247
REMARK  8 active torsions:
REMARK  status: ('A' for Active; 'I' for Inactive)
REMARK    1  A    between atoms: N_4  and  C_15
REMARK    2  A    between atoms: N_5  and  C_17
REMARK    3  A    between atoms: C_9  and  C_16
REMARK    4  A    between atoms: C_10  and  C_15
REMARK    5  A    between atoms: C_17  and  C_19
REMARK    6  A    between atoms: C_17  and  C_20
REMARK    7  A    between atoms: C_21  and  C_22
REMARK    8  A    between atoms: C_22  and  C_23
REMARK                            x       y       z     vdW  Elec       q    Type
REMARK                         _______ _______ _______ _____ _____    ______ ____
ROOT
ATOM      3  N   UNL     1      10.734   6.396   3.525  0.00  0.00    -0.297 NA
ATOM      8  C   UNL     1       9.932   5.699   5.900  0.00  0.00    +0.005 C 
ATOM      9  C   UNL     1       8.963   6.709   5.255  0.00  0.00    +0.092 C 
ATOM     10  C   UNL     1      10.330   4.964   3.530  0.00  0.00    +0.078 C 
ATOM     11  C   UNL     1      10.009   4.479   4.963  0.00  0.00    +0.025 C 
ATOM     12  C   UNL     1      11.348   6.304   5.945  0.00  0.00    +0.020 C 
ATOM     13  C   UNL     1       9.561   7.214   3.927  0.00  0.00    +0.097 C 
ATOM     14  C   UNL     1      11.806   6.639   4.517  0.00  0.00    +0.085 C 
ENDROOT
BRANCH   9  16
ATOM      1  O   UNL     1       8.017   7.685   7.217  0.00  0.00    -0.275 OA
ATOM      5  N   UNL     1       9.148   9.054   5.712  0.00  0.00    -0.313 N 
ATOM     16  C   UNL     1       8.655   7.848   6.181  0.00  0.00    +0.218 C 
ATOM     24  H   UNL     1       9.698   9.065   4.858  0.00  0.00    +0.149 HD
BRANCH   5  17
ATOM     17  C   UNL     1       8.967  10.307   6.409  0.00  0.00    +0.067 C 
ATOM     19  C   UNL     1      10.182  10.621   7.272  0.00  0.00    +0.027 C 
ATOM     20  C   UNL     1       8.688  11.428   5.417  0.00  0.00    +0.027 C 
ENDBRANCH   5  17
ENDBRANCH   9  16
BRANCH  10  15
ATOM     15  C   UNL     1      11.367   4.069   2.848  0.00  0.00    +0.164 C 
BRANCH  15   4
ATOM      4  N   UNL     1      11.187   4.054   1.356  0.00  0.00    -0.250 N 
ATOM      6  N   UNL     1       9.981   4.284   0.810  0.00  0.00    -0.065 NA
ATOM      7  N   UNL     1      10.125   4.208  -0.509  0.00  0.00    -0.127 NA
ATOM     18  C   UNL     1      12.133   3.826   0.405  0.00  0.00    +0.141 A 
ATOM     21  C   UNL     1      11.437   3.928  -0.773  0.00  0.00    +0.147 A 
BRANCH  21  22
ATOM      2  O   UNL     1      12.350   4.754  -2.785  0.00  0.00    -0.291 OA
ATOM     22  C   UNL     1      11.957   3.775  -2.096  0.00  0.00    +0.181 C 
ATOM     23  C   UNL     1      12.060   2.388  -2.751  0.00  0.00    +0.093 C 
ENDBRANCH  21  22
ENDBRANCH  15   4
ENDBRANCH  10  15
TORSDOF 5
ENDMDL
MODEL 7
REMARK VINA RESULT:      -5.5     27.231     29.373
REMARK  Name = 44716247
REMARK  8 active torsions:
REMARK  status: ('A' for Active; 'I' for Inactive)
REMARK    1  A    between atoms: N_4  and  C_15
REMARK    2  A    between atoms: N_5  and  C_17
REMARK    3  A    between atoms: C_9  and  C_16
REMARK    4  A    between atoms: C_10  and  C_15
REMARK    5  A    between atoms: C_17  and  C_19
REMARK    6  A    between atoms: C_17  and  C_20
REMARK    7  A    between atoms: C_21  and  C_22
REMARK    8  A    between atoms: C_22  and  C_23
REMARK                            x       y       z     vdW  Elec       q    Type
REMARK                         _______ _______ _______ _____ _____    ______ ____
ROOT
ATOM      3  N   UNL     1      -4.631 -10.975  11.626  0.00  0.00    -0.297 NA
ATOM      8  C   UNL     1      -4.113  -9.890   9.318  0.00  0.00    +0.005 C 
ATOM      9  C   UNL     1      -5.496  -9.457   9.845  0.00  0.00    +0.092 C 
ATOM     10  C   UNL     1      -3.511 -10.003  11.756  0.00  0.00    +0.078 C 
ATOM     11  C   UNL     1      -3.072  -9.468  10.373  0.00  0.00    +0.025 C 
ATOM     12  C   UNL     1      -4.053 -11.426   9.237  0.00  0.00    +0.020 C 
ATOM     13  C   UNL     1      -5.825 -10.248  11.125  0.00  0.00    +0.097 C 
ATOM     14  C   UNL     1      -4.299 -12.022  10.633  0.00  0.00    +0.085 C 
ENDROOT
BRANCH   9  16
ATOM      1  O   UNL     1      -7.174 -10.693   8.679  0.00  0.00    -0.275 OA
ATOM      5  N   UNL     1      -6.735  -8.501   8.031  0.00  0.00    -0.313 N 
ATOM     16  C   UNL     1      -6.562  -9.636   8.805  0.00  0.00    +0.218 C 
ATOM     24  H   UNL     1      -6.199  -7.666   8.249  0.00  0.00    +0.149 HD
BRANCH   5  17
ATOM     17  C   UNL     1      -7.687  -8.422   6.946  0.00  0.00    +0.067 C 
ATOM     19  C   UNL     1      -8.285  -7.024   6.859  0.00  0.00    +0.027 C 
ATOM     20  C   UNL     1      -7.026  -8.823   5.633  0.00  0.00    +0.027 C 
ENDBRANCH   5  17
ENDBRANCH   9  16
BRANCH  10  15
ATOM     15  C   UNL     1      -2.332 -10.581  12.540  0.00  0.00    +0.164 C 
BRANCH  15   4
ATOM      4  N   UNL     1      -2.616 -10.619  14.015  0.00  0.00    -0.250 N 
ATOM      6  N   UNL     1      -1.610 -10.594  14.907  0.00  0.00    -0.065 NA
ATOM      7  N   UNL     1      -2.156 -10.638  16.117  0.00  0.00    -0.127 NA
ATOM     18  C   UNL     1      -3.829 -10.678  14.629  0.00  0.00    +0.141 A 
ATOM     21  C   UNL     1      -3.514 -10.689  15.965  0.00  0.00    +0.147 A 
BRANCH  21  22
ATOM      2  O   UNL     1      -5.506 -10.096  17.079  0.00  0.00    -0.291 OA
ATOM     22  C   UNL     1      -4.426 -10.746  17.064  0.00  0.00    +0.181 C 
ATOM     23  C   UNL     1      -4.129 -11.614  18.297  0.00  0.00    +0.093 C 
ENDBRANCH  21  22
ENDBRANCH  15   4
ENDBRANCH  10  15
TORSDOF 5
ENDMDL
MODEL 8
REMARK VINA RESULT:      -5.5     27.311     29.873
REMARK  Name = 44716247
REMARK  8 active torsions:
REMARK  status: ('A' for Active; 'I' for Inactive)
REMARK    1  A    between atoms: N_4  and  C_15
REMARK    2  A    between atoms: N_5  and  C_17
REMARK    3  A    between atoms: C_9  and  C_16
REMARK    4  A    between atoms: C_10  and  C_15
REMARK    5  A    between atoms: C_17  and  C_19
REMARK    6  A    between atoms: C_17  and  C_20
REMARK    7  A    between atoms: C_21  and  C_22
REMARK    8  A    between atoms: C_22  and  C_23
REMARK                            x       y       z     vdW  Elec       q    Type
REMARK                         _______ _______ _______ _____ _____    ______ ____
ROOT
ATOM      3  N   UNL     1      -6.037 -10.412  17.663  0.00  0.00    -0.297 NA
ATOM      8  C   UNL     1      -6.961 -12.677  18.550  0.00  0.00    +0.005 C 
ATOM      9  C   UNL     1      -7.938 -12.025  17.551  0.00  0.00    +0.092 C 
ATOM     10  C   UNL     1      -5.198 -11.537  17.168  0.00  0.00    +0.078 C 
ATOM     11  C   UNL     1      -5.623 -12.877  17.813  0.00  0.00    +0.025 C 
ATOM     12  C   UNL     1      -6.681 -11.699  19.705  0.00  0.00    +0.020 C 
ATOM     13  C   UNL     1      -7.427 -10.619  17.182  0.00  0.00    +0.097 C 
ATOM     14  C   UNL     1      -6.076 -10.403  19.143  0.00  0.00    +0.085 C 
ENDROOT
BRANCH   9  16
ATOM      1  O   UNL     1      -9.932 -12.986  18.446  0.00  0.00    -0.275 OA
ATOM      5  N   UNL     1      -9.834 -10.681  18.133  0.00  0.00    -0.313 N 
ATOM     16  C   UNL     1      -9.333 -11.971  18.099  0.00  0.00    +0.218 C 
ATOM     24  H   UNL     1      -9.234  -9.910  17.856  0.00  0.00    +0.149 HD
BRANCH   5  17
ATOM     17  C   UNL     1     -11.165 -10.362  18.598  0.00  0.00    +0.067 C 
ATOM     19  C   UNL     1     -11.176 -10.191  20.112  0.00  0.00    +0.027 C 
ATOM     20  C   UNL     1     -11.685  -9.114  17.896  0.00  0.00    +0.027 C 
ENDBRANCH   5  17
ENDBRANCH   9  16
BRANCH  10  15
ATOM     15  C   UNL     1      -3.703 -11.268  17.353  0.00  0.00    +0.164 C 
BRANCH  15   4
ATOM      4  N   UNL     1      -3.040 -10.923  16.049  0.00  0.00    -0.250 N 
ATOM      6  N   UNL     1      -1.752 -10.541  16.017  0.00  0.00    -0.065 NA
ATOM      7  N   UNL     1      -1.444 -10.304  14.746  0.00  0.00    -0.127 NA
ATOM     18  C   UNL     1      -3.589 -10.943  14.804  0.00  0.00    +0.141 A 
ATOM     21  C   UNL     1      -2.557 -10.545  13.991  0.00  0.00    +0.147 A 
BRANCH  21  22
ATOM      2  O   UNL     1      -1.546 -10.255  11.880  0.00  0.00    -0.291 OA
ATOM     22  C   UNL     1      -2.592 -10.392  12.570  0.00  0.00    +0.181 C 
ATOM     23  C   UNL     1      -3.925 -10.384  11.806  0.00  0.00    +0.093 C 
ENDBRANCH  21  22
ENDBRANCH  15   4
ENDBRANCH  10  15
TORSDOF 5
ENDMDL
MODEL 9
REMARK VINA RESULT:      -5.4     29.324     31.126
REMARK  Name = 44716247
REMARK  8 active torsions:
REMARK  status: ('A' for Active; 'I' for Inactive)
REMARK    1  A    between atoms: N_4  and  C_15
REMARK    2  A    between atoms: N_5  and  C_17
REMARK    3  A    between atoms: C_9  and  C_16
REMARK    4  A    between atoms: C_10  and  C_15
REMARK    5  A    between atoms: C_17  and  C_19
REMARK    6  A    between atoms: C_17  and  C_20
REMARK    7  A    between atoms: C_21  and  C_22
REMARK    8  A    between atoms: C_22  and  C_23
REMARK                            x       y       z     vdW  Elec       q    Type
REMARK                         _______ _______ _______ _____ _____    ______ ____
ROOT
ATOM      3  N   UNL     1     -11.818  -7.902  14.531  0.00  0.00    -0.297 NA
ATOM      8  C   UNL     1     -10.870  -7.752  16.950  0.00  0.00    +0.005 C 
ATOM      9  C   UNL     1      -9.862  -8.417  15.992  0.00  0.00    +0.092 C 
ATOM     10  C   UNL     1     -11.578  -6.480  14.901  0.00  0.00    +0.078 C 
ATOM     11  C   UNL     1     -11.174  -6.350  16.388  0.00  0.00    +0.025 C 
ATOM     12  C   UNL     1     -12.198  -8.531  16.919  0.00  0.00    +0.020 C 
ATOM     13  C   UNL     1     -10.527  -8.631  14.619  0.00  0.00    +0.097 C 
ATOM     14  C   UNL     1     -12.754  -8.538  15.486  0.00  0.00    +0.085 C 
ENDROOT
BRANCH   9  16
ATOM      1  O   UNL     1      -9.536 -10.783  15.990  0.00  0.00    -0.275 OA
ATOM      5  N   UNL     1      -8.658  -9.526  17.742  0.00  0.00    -0.313 N 
ATOM     16  C   UNL     1      -9.339  -9.708  16.551  0.00  0.00    +0.218 C 
ATOM     24  H   UNL     1      -8.522  -8.583  18.095  0.00  0.00    +0.149 HD
BRANCH   5  17
ATOM     17  C   UNL     1      -8.075 -10.614  18.493  0.00  0.00    +0.067 C 
ATOM     19  C   UNL     1      -6.719 -10.210  19.057  0.00  0.00    +0.027 C 
ATOM     20  C   UNL     1      -9.023 -11.060  19.599  0.00  0.00    +0.027 C 
ENDBRANCH   5  17
ENDBRANCH   9  16
BRANCH  10  15
ATOM     15  C   UNL     1     -12.770  -5.585  14.557  0.00  0.00    +0.164 C 
BRANCH  15   4
ATOM      4  N   UNL     1     -12.561  -4.863  13.256  0.00  0.00    -0.250 N 
ATOM      6  N   UNL     1     -12.573  -3.520  13.208  0.00  0.00    -0.065 NA
ATOM      7  N   UNL     1     -12.365  -3.169  11.943  0.00  0.00    -0.127 NA
ATOM     18  C   UNL     1     -12.344  -5.407  12.027  0.00  0.00    +0.141 A 
ATOM     21  C   UNL     1     -12.223  -4.313  11.207  0.00  0.00    +0.147 A 
BRANCH  21  22
ATOM      2  O   UNL     1     -12.881  -4.608   8.962  0.00  0.00    -0.291 OA
ATOM     22  C   UNL     1     -11.985  -4.316   9.798  0.00  0.00    +0.181 C 
ATOM     23  C   UNL     1     -10.602  -3.960   9.227  0.00  0.00    +0.093 C 
ENDBRANCH  21  22
ENDBRANCH  15   4
ENDBRANCH  10  15
TORSDOF 5
ENDMDL
MODEL 10
REMARK VINA RESULT:      -5.4      4.074      6.743
REMARK  Name = 44716247
REMARK  8 active torsions:
REMARK  status: ('A' for Active; 'I' for Inactive)
REMARK    1  A    between atoms: N_4  and  C_15
REMARK    2  A    between atoms: N_5  and  C_17
REMARK    3  A    between atoms: C_9  and  C_16
REMARK    4  A    between atoms: C_10  and  C_15
REMARK    5  A    between atoms: C_17  and  C_19
REMARK    6  A    between atoms: C_17  and  C_20
REMARK    7  A    between atoms: C_21  and  C_22
REMARK    8  A    between atoms: C_22  and  C_23
REMARK                            x       y       z     vdW  Elec       q    Type
REMARK                         _______ _______ _______ _____ _____    ______ ____
ROOT
ATOM      3  N   UNL     1      19.505   6.149  21.558  0.00  0.00    -0.297 NA
ATOM      8  C   UNL     1      21.599   7.675  21.317  0.00  0.00    +0.005 C 
ATOM      9  C   UNL     1      21.733   6.399  20.463  0.00  0.00    +0.092 C 
ATOM     10  C   UNL     1      19.142   7.410  20.856  0.00  0.00    +0.078 C 
ATOM     11  C   UNL     1      20.326   8.405  20.847  0.00  0.00    +0.025 C 
ATOM     12  C   UNL     1      21.360   7.285  22.787  0.00  0.00    +0.020 C 
ATOM     13  C   UNL     1      20.552   5.457  20.763  0.00  0.00    +0.097 C 
ATOM     14  C   UNL     1      20.080   6.441  22.891  0.00  0.00    +0.085 C 
ENDROOT
BRANCH   9  16
ATOM      1  O   UNL     1      24.052   6.339  21.029  0.00  0.00    -0.275 OA
ATOM      5  N   UNL     1      22.978   4.352  20.466  0.00  0.00    -0.313 N 
ATOM     16  C   UNL     1      23.048   5.716  20.694  0.00  0.00    +0.218 C 
ATOM     24  H   UNL     1      22.082   3.935  20.229  0.00  0.00    +0.149 HD
BRANCH   5  17
ATOM     17  C   UNL     1      24.114   3.469  20.599  0.00  0.00    +0.067 C 
ATOM     19  C   UNL     1      23.655   2.047  20.894  0.00  0.00    +0.027 C 
ATOM     20  C   UNL     1      24.975   3.523  19.343  0.00  0.00    +0.027 C 
ENDBRANCH   5  17
ENDBRANCH   9  16
BRANCH  10  15
ATOM     15  C   UNL     1      17.873   8.045  21.428  0.00  0.00    +0.164 C 
BRANCH  15   4
ATOM      4  N   UNL     1      16.638   7.506  20.761  0.00  0.00    -0.250 N 
ATOM      6  N   UNL     1      16.735   6.703  19.688  0.00  0.00    -0.065 NA
ATOM      7  N   UNL     1      15.498   6.388  19.319  0.00  0.00    -0.127 NA
ATOM     18  C   UNL     1      15.341   7.726  21.108  0.00  0.00    +0.141 A 
ATOM     21  C   UNL     1      14.633   7.006  20.178  0.00  0.00    +0.147 A 
BRANCH  21  22
ATOM      2  O   UNL     1      12.613   6.826  18.973  0.00  0.00    -0.291 OA
ATOM     22  C   UNL     1      13.212   6.890  20.080  0.00  0.00    +0.181 C 
ATOM     23  C   UNL     1      12.332   6.840  21.340  0.00  0.00    +0.093 C 
ENDBRANCH  21  22
ENDBRANCH  15   4
ENDBRANCH  10  15
TORSDOF 5
ENDMDL
