REMARK  Name = 11912819
REMARK  8 active torsions:
REMARK  status: ('A' for Active; 'I' for Inactive)
REMARK    1  A    between atoms: O_4  and  C_18
REMARK    2  A    between atoms: O_4  and  C_23
REMARK    3  A    between atoms: O_5  and  C_30
REMARK    4  A    between atoms: O_5  and  C_34
REMARK    5  A    between atoms: N_6  and  C_12
REMARK    6  A    between atoms: N_7  and  C_13
REMARK    7  A    between atoms: C_16  and  C_18
REMARK    8  A    between atoms: C_19  and  C_22
REMARK                            x       y       z     vdW  Elec       q    Type
REMARK                         _______ _______ _______ _____ _____    ______ ____
ROOT
ATOM      1  O   UNL     1       0.307   0.950   2.115  0.00  0.00    -0.370 OA
ATOM      2  O   UNL     1      -0.520   3.808   1.175  0.00  0.00    -0.370 OA
ATOM     10  C   UNL     1      -0.872   2.486   0.733  0.00  0.00    +0.171 C 
ATOM     11  C   UNL     1       0.372   1.626   0.848  0.00  0.00    +0.171 C 
ATOM     12  C   UNL     1      -1.848   1.852   1.698  0.00  0.00    +0.130 C 
ATOM     13  C   UNL     1       1.510   2.620   0.842  0.00  0.00    +0.130 C 
ATOM     14  C   UNL     1      -0.928   1.284   2.764  0.00  0.00    +0.185 C 
ATOM     15  C   UNL     1       0.882   3.848   1.475  0.00  0.00    +0.185 C 
ENDROOT
BRANCH  13   7
ATOM      7  N   UNL     1       1.909   2.907  -0.518  0.00  0.00    -0.306 N 
ATOM      8  N   UNL     1       3.318   1.063  -0.594  0.00  0.00    -0.214 NA
ATOM      9  N   UNL     1       3.076   2.529  -2.490  0.00  0.00    -0.223 NA
ATOM     17  C   UNL     1       2.807   2.132  -1.232  0.00  0.00    +0.216 A 
ATOM     19  C   UNL     1       4.190   0.331  -1.318  0.00  0.00    +0.076 A 
ATOM     20  C   UNL     1       3.955   1.752  -3.157  0.00  0.00    +0.116 A 
ATOM     21  C   UNL     1       4.549   0.630  -2.617  0.00  0.00    +0.048 A 
ATOM     36  H   UNL     1       1.480   3.683  -1.010  0.00  0.00    +0.149 HD
BRANCH  19  22
ATOM     22  C   UNL     1       4.740  -0.817  -0.638  0.00  0.00    +0.001 A 
ATOM     24  C   UNL     1       6.118  -0.920  -0.448  0.00  0.00    +0.013 A 
ATOM     25  C   UNL     1       3.894  -1.825  -0.172  0.00  0.00    +0.013 A 
ATOM     28  C   UNL     1       6.651  -2.030   0.208  0.00  0.00    +0.046 A 
ATOM     29  C   UNL     1       4.427  -2.934   0.483  0.00  0.00    +0.046 A 
ATOM     30  C   UNL     1       5.806  -3.037   0.673  0.00  0.00    +0.120 A 
BRANCH  30   5
ATOM      5  O   UNL     1       6.326  -4.118   1.315  0.00  0.00    -0.495 OA
ATOM     34  C   UNL     1       5.405  -5.111   1.766  0.00  0.00    +0.277 C 
ENDBRANCH  30   5
ENDBRANCH  19  22
ENDBRANCH  13   7
BRANCH  12   6
ATOM      3  O   UNL     1      -4.468   2.088   0.484  0.00  0.00    -0.272 OA
ATOM      6  N   UNL     1      -2.612   0.809   1.057  0.00  0.00    -0.305 N 
ATOM     16  C   UNL     1      -3.866   1.018   0.501  0.00  0.00    +0.251 C 
ATOM     35  H   UNL     1      -2.184  -0.109   0.967  0.00  0.00    +0.149 HD
BRANCH  16  18
ATOM     18  C   UNL     1      -4.432  -0.250  -0.102  0.00  0.00    +0.324 C 
BRANCH  18   4
ATOM      4  O   UNL     1      -5.700  -0.008  -0.672  0.00  0.00    -0.483 OA
BRANCH   4  23
ATOM     23  C   UNL     1      -6.593  -1.053  -0.684  0.00  0.00    +0.121 A 
ATOM     26  C   UNL     1      -6.129  -2.366  -0.759  0.00  0.00    +0.045 A 
ATOM     27  C   UNL     1      -7.963  -0.801  -0.622  0.00  0.00    +0.045 A 
ATOM     31  C   UNL     1      -7.034  -3.427  -0.771  0.00  0.00    +0.004 A 
ATOM     32  C   UNL     1      -8.869  -1.861  -0.634  0.00  0.00    +0.004 A 
ATOM     33  C   UNL     1      -8.405  -3.175  -0.709  0.00  0.00    +0.000 A 
ENDBRANCH   4  23
ENDBRANCH  18   4
ENDBRANCH  16  18
ENDBRANCH  12   6
TORSDOF 7
