MODEL 1
REMARK VINA RESULT:      -7.0      0.000      0.000
REMARK  Name = 45783501
REMARK  12 active torsions:
REMARK  status: ('A' for Active; 'I' for Inactive)
REMARK    1  A    between atoms: O_2  and  C_17
REMARK    2  A    between atoms: O_3  and  C_23
REMARK    3  A    between atoms: O_3  and  C_28
REMARK    4  A    between atoms: O_4  and  C_30
REMARK    5  A    between atoms: O_4  and  C_31
REMARK    6  A    between atoms: N_5  and  C_14
REMARK    7  A    between atoms: N_9  and  C_27
REMARK    8  A    between atoms: N_9  and  C_29
REMARK    9  A    between atoms: C_10  and  C_15
REMARK   10  A    between atoms: C_14  and  C_16
REMARK   11  A    between atoms: C_19  and  C_22
REMARK   12  A    between atoms: C_29  and  C_30
REMARK                            x       y       z     vdW  Elec       q    Type
REMARK                         _______ _______ _______ _____ _____    ______ ____
ROOT
ATOM      1  O   UNL     1      14.060   6.608  20.121  0.00  0.00    -0.336 OA
ATOM      6  N   UNL     1      15.751   7.554  18.998  0.00  0.00    -0.190 NA
ATOM      7  N   UNL     1      15.196   6.456  20.926  0.00  0.00    -0.056 NA
ATOM     15  C   UNL     1      14.475   7.264  19.006  0.00  0.00    +0.245 A 
ATOM     19  C   UNL     1      16.151   7.038  20.196  0.00  0.00    +0.204 A 
ENDROOT
BRANCH  19  22
ATOM      8  N   UNL     1      19.771   6.258  20.540  0.00  0.00    -0.240 NA
ATOM     22  C   UNL     1      17.515   7.122  20.634  0.00  0.00    +0.041 A 
ATOM     24  C   UNL     1      17.918   8.096  21.540  0.00  0.00    +0.016 A 
ATOM     25  C   UNL     1      18.471   6.235  20.168  0.00  0.00    +0.124 A 
ATOM     26  C   UNL     1      19.247   8.152  21.947  0.00  0.00    +0.044 A 
ATOM     27  C   UNL     1      20.126   7.219  21.422  0.00  0.00    +0.119 A 
BRANCH  27   9
ATOM      9  N   UNL     1      21.476   7.290  21.844  0.00  0.00    -0.327 N 
ATOM     33  H   UNL     1      21.847   8.218  22.017  0.00  0.00    +0.148 HD
BRANCH   9  29
ATOM     29  C   UNL     1      22.291   6.133  22.021  0.00  0.00    +0.131 C 
BRANCH  29  30
ATOM     30  C   UNL     1      21.930   5.435  23.322  0.00  0.00    +0.178 C 
BRANCH  30   4
ATOM      4  O   UNL     1      21.888   4.030  23.109  0.00  0.00    -0.381 OA
ATOM     31  C   UNL     1      22.119   3.702  21.747  0.00  0.00    +0.194 C 
ENDBRANCH  30   4
ENDBRANCH  29  30
ENDBRANCH   9  29
ENDBRANCH  27   9
ENDBRANCH  19  22
BRANCH  15  10
ATOM      5  N   UNL     1      12.484   8.620  18.382  0.00  0.00    -0.287 NA
ATOM     10  C   UNL     1      13.417   7.555  17.963  0.00  0.00    +0.146 C 
ATOM     11  C   UNL     1      14.013   8.057  16.635  0.00  0.00    +0.030 C 
ATOM     12  C   UNL     1      13.312   9.380  16.359  0.00  0.00    +0.017 C 
ATOM     13  C   UNL     1      12.027   9.276  17.157  0.00  0.00    +0.085 C 
BRANCH   5  14
ATOM     14  C   UNL     1      11.374   8.129  19.187  0.00  0.00    +0.124 C 
BRANCH  14  16
ATOM     16  C   UNL     1      11.296   8.825  20.519  0.00  0.00    +0.008 A 
ATOM     17  C   UNL     1      10.659   8.221  21.603  0.00  0.00    +0.125 A 
ATOM     18  C   UNL     1      11.871  10.088  20.663  0.00  0.00    +0.012 A 
ATOM     20  C   UNL     1      10.596   8.880  22.831  0.00  0.00    +0.091 A 
ATOM     21  C   UNL     1      11.807  10.747  21.890  0.00  0.00    +0.046 A 
ATOM     23  C   UNL     1      11.170  10.144  22.975  0.00  0.00    +0.124 A 
BRANCH  17   2
ATOM      2  O   UNL     1      10.092   6.988  21.479  0.00  0.00    -0.506 OA
ATOM     32  H   UNL     1      10.581   6.353  22.031  0.00  0.00    +0.292 HD
ENDBRANCH  17   2
BRANCH  23   3
ATOM      3  O   UNL     1      11.109  10.786  24.172  0.00  0.00    -0.495 OA
ATOM     28  C   UNL     1      10.919  12.201  24.142  0.00  0.00    +0.277 C 
ENDBRANCH  23   3
ENDBRANCH  14  16
ENDBRANCH   5  14
ENDBRANCH  15  10
TORSDOF 10
ENDMDL
MODEL 2
REMARK VINA RESULT:      -6.7     27.513     31.517
REMARK  Name = 45783501
REMARK  12 active torsions:
REMARK  status: ('A' for Active; 'I' for Inactive)
REMARK    1  A    between atoms: O_2  and  C_17
REMARK    2  A    between atoms: O_3  and  C_23
REMARK    3  A    between atoms: O_3  and  C_28
REMARK    4  A    between atoms: O_4  and  C_30
REMARK    5  A    between atoms: O_4  and  C_31
REMARK    6  A    between atoms: N_5  and  C_14
REMARK    7  A    between atoms: N_9  and  C_27
REMARK    8  A    between atoms: N_9  and  C_29
REMARK    9  A    between atoms: C_10  and  C_15
REMARK   10  A    between atoms: C_14  and  C_16
REMARK   11  A    between atoms: C_19  and  C_22
REMARK   12  A    between atoms: C_29  and  C_30
REMARK                            x       y       z     vdW  Elec       q    Type
REMARK                         _______ _______ _______ _____ _____    ______ ____
ROOT
ATOM      1  O   UNL     1     -16.788   2.567  23.190  0.00  0.00    -0.336 OA
ATOM      6  N   UNL     1     -16.875   3.962  24.941  0.00  0.00    -0.190 NA
ATOM      7  N   UNL     1     -16.506   1.790  24.321  0.00  0.00    -0.056 NA
ATOM     15  C   UNL     1     -16.992   3.832  23.644  0.00  0.00    +0.245 A 
ATOM     19  C   UNL     1     -16.576   2.683  25.313  0.00  0.00    +0.204 A 
ENDROOT
BRANCH  19  22
ATOM      8  N   UNL     1     -16.411   0.650  28.423  0.00  0.00    -0.240 NA
ATOM     22  C   UNL     1     -16.352   2.331  26.685  0.00  0.00    +0.041 A 
ATOM     24  C   UNL     1     -15.878   3.267  27.597  0.00  0.00    +0.016 A 
ATOM     25  C   UNL     1     -16.601   1.048  27.144  0.00  0.00    +0.124 A 
ATOM     26  C   UNL     1     -15.671   2.896  28.922  0.00  0.00    +0.044 A 
ATOM     27  C   UNL     1     -15.950   1.587  29.280  0.00  0.00    +0.119 A 
BRANCH  27   9
ATOM      9  N   UNL     1     -15.732   1.225  30.632  0.00  0.00    -0.327 N 
ATOM     33  H   UNL     1     -16.531   0.856  31.135  0.00  0.00    +0.148 HD
BRANCH   9  29
ATOM     29  C   UNL     1     -14.466   1.367  31.274  0.00  0.00    +0.131 C 
BRANCH  29  30
ATOM     30  C   UNL     1     -14.658   1.852  32.701  0.00  0.00    +0.178 C 
BRANCH  30   4
ATOM      4  O   UNL     1     -14.164   3.180  32.820  0.00  0.00    -0.381 OA
ATOM     31  C   UNL     1     -13.087   3.417  31.924  0.00  0.00    +0.194 C 
ENDBRANCH  30   4
ENDBRANCH  29  30
ENDBRANCH   9  29
ENDBRANCH  27   9
ENDBRANCH  19  22
BRANCH  15  10
ATOM      5  N   UNL     1     -16.118   5.376  21.900  0.00  0.00    -0.287 NA
ATOM     10  C   UNL     1     -17.319   4.878  22.600  0.00  0.00    +0.146 C 
ATOM     11  C   UNL     1     -18.229   4.338  21.481  0.00  0.00    +0.030 C 
ATOM     12  C   UNL     1     -17.483   4.629  20.186  0.00  0.00    +0.017 C 
ATOM     13  C   UNL     1     -16.553   5.767  20.559  0.00  0.00    +0.085 C 
BRANCH   5  14
ATOM     14  C   UNL     1     -15.454   6.467  22.601  0.00  0.00    +0.124 C 
BRANCH  14  16
ATOM     16  C   UNL     1     -14.188   6.891  21.908  0.00  0.00    +0.008 A 
ATOM     17  C   UNL     1     -13.165   5.974  21.668  0.00  0.00    +0.125 A 
ATOM     18  C   UNL     1     -14.045   8.219  21.502  0.00  0.00    +0.012 A 
ATOM     20  C   UNL     1     -11.998   6.384  21.024  0.00  0.00    +0.091 A 
ATOM     21  C   UNL     1     -12.878   8.629  20.858  0.00  0.00    +0.046 A 
ATOM     23  C   UNL     1     -11.854   7.712  20.618  0.00  0.00    +0.124 A 
BRANCH  17   2
ATOM      2  O   UNL     1     -13.289   4.675  22.058  0.00  0.00    -0.506 OA
ATOM     32  H   UNL     1     -12.903   4.567  22.944  0.00  0.00    +0.292 HD
ENDBRANCH  17   2
BRANCH  23   3
ATOM      3  O   UNL     1     -10.716   8.112  19.989  0.00  0.00    -0.495 OA
ATOM     28  C   UNL     1     -10.696   9.439  19.463  0.00  0.00    +0.277 C 
ENDBRANCH  23   3
ENDBRANCH  14  16
ENDBRANCH   5  14
ENDBRANCH  15  10
TORSDOF 10
ENDMDL
MODEL 3
REMARK VINA RESULT:      -6.6     31.319     33.244
REMARK  Name = 45783501
REMARK  12 active torsions:
REMARK  status: ('A' for Active; 'I' for Inactive)
REMARK    1  A    between atoms: O_2  and  C_17
REMARK    2  A    between atoms: O_3  and  C_23
REMARK    3  A    between atoms: O_3  and  C_28
REMARK    4  A    between atoms: O_4  and  C_30
REMARK    5  A    between atoms: O_4  and  C_31
REMARK    6  A    between atoms: N_5  and  C_14
REMARK    7  A    between atoms: N_9  and  C_27
REMARK    8  A    between atoms: N_9  and  C_29
REMARK    9  A    between atoms: C_10  and  C_15
REMARK   10  A    between atoms: C_14  and  C_16
REMARK   11  A    between atoms: C_19  and  C_22
REMARK   12  A    between atoms: C_29  and  C_30
REMARK                            x       y       z     vdW  Elec       q    Type
REMARK                         _______ _______ _______ _____ _____    ______ ____
ROOT
ATOM      1  O   UNL     1     -17.154   3.549  30.971  0.00  0.00    -0.336 OA
ATOM      6  N   UNL     1     -15.811   4.708  29.604  0.00  0.00    -0.190 NA
ATOM      7  N   UNL     1     -17.459   3.122  29.672  0.00  0.00    -0.056 NA
ATOM     15  C   UNL     1     -16.175   4.482  30.841  0.00  0.00    +0.245 A 
ATOM     19  C   UNL     1     -16.626   3.851  28.923  0.00  0.00    +0.204 A 
ENDROOT
BRANCH  19  22
ATOM      8  N   UNL     1     -16.064   2.433  25.531  0.00  0.00    -0.240 NA
ATOM     22  C   UNL     1     -16.584   3.748  27.493  0.00  0.00    +0.041 A 
ATOM     24  C   UNL     1     -16.999   4.801  26.686  0.00  0.00    +0.016 A 
ATOM     25  C   UNL     1     -16.129   2.596  26.872  0.00  0.00    +0.124 A 
ATOM     26  C   UNL     1     -16.946   4.672  25.302  0.00  0.00    +0.044 A 
ATOM     27  C   UNL     1     -16.475   3.478  24.779  0.00  0.00    +0.119 A 
BRANCH  27   9
ATOM      9  N   UNL     1     -16.429   3.361  23.369  0.00  0.00    -0.327 N 
ATOM     33  H   UNL     1     -15.570   2.995  22.973  0.00  0.00    +0.148 HD
BRANCH   9  29
ATOM     29  C   UNL     1     -17.519   3.737  22.528  0.00  0.00    +0.131 C 
BRANCH  29  30
ATOM     30  C   UNL     1     -18.257   2.499  22.048  0.00  0.00    +0.178 C 
BRANCH  30   4
ATOM      4  O   UNL     1     -17.477   1.344  22.330  0.00  0.00    -0.381 OA
ATOM     31  C   UNL     1     -18.275   0.291  22.854  0.00  0.00    +0.194 C 
ENDBRANCH  30   4
ENDBRANCH  29  30
ENDBRANCH   9  29
ENDBRANCH  27   9
ENDBRANCH  19  22
BRANCH  15  10
ATOM      5  N   UNL     1     -14.238   4.810  32.368  0.00  0.00    -0.287 NA
ATOM     10  C   UNL     1     -15.664   5.106  32.122  0.00  0.00    +0.146 C 
ATOM     11  C   UNL     1     -15.748   6.643  32.110  0.00  0.00    +0.030 C 
ATOM     12  C   UNL     1     -14.335   7.121  32.417  0.00  0.00    +0.017 C 
ATOM     13  C   UNL     1     -13.706   5.940  33.129  0.00  0.00    +0.085 C 
BRANCH   5  14
ATOM     14  C   UNL     1     -14.025   3.540  33.050  0.00  0.00    +0.124 C 
BRANCH  14  16
ATOM     16  C   UNL     1     -14.120   2.372  32.105  0.00  0.00    +0.008 A 
ATOM     17  C   UNL     1     -13.394   2.359  30.914  0.00  0.00    +0.125 A 
ATOM     18  C   UNL     1     -14.945   1.296  32.432  0.00  0.00    +0.012 A 
ATOM     20  C   UNL     1     -13.494   1.269  30.049  0.00  0.00    +0.091 A 
ATOM     21  C   UNL     1     -15.045   0.206  31.568  0.00  0.00    +0.046 A 
ATOM     23  C   UNL     1     -14.319   0.192  30.376  0.00  0.00    +0.124 A 
BRANCH  17   2
ATOM      2  O   UNL     1     -12.585   3.402  30.579  0.00  0.00    -0.506 OA
ATOM     32  H   UNL     1     -11.822   3.423  31.182  0.00  0.00    +0.292 HD
ENDBRANCH  17   2
BRANCH  23   3
ATOM      3  O   UNL     1     -14.416  -0.872  29.533  0.00  0.00    -0.495 OA
ATOM     28  C   UNL     1     -13.194  -1.446  29.068  0.00  0.00    +0.277 C 
ENDBRANCH  23   3
ENDBRANCH  14  16
ENDBRANCH   5  14
ENDBRANCH  15  10
TORSDOF 10
ENDMDL
MODEL 4
REMARK VINA RESULT:      -6.5     26.520     30.222
REMARK  Name = 45783501
REMARK  12 active torsions:
REMARK  status: ('A' for Active; 'I' for Inactive)
REMARK    1  A    between atoms: O_2  and  C_17
REMARK    2  A    between atoms: O_3  and  C_23
REMARK    3  A    between atoms: O_3  and  C_28
REMARK    4  A    between atoms: O_4  and  C_30
REMARK    5  A    between atoms: O_4  and  C_31
REMARK    6  A    between atoms: N_5  and  C_14
REMARK    7  A    between atoms: N_9  and  C_27
REMARK    8  A    between atoms: N_9  and  C_29
REMARK    9  A    between atoms: C_10  and  C_15
REMARK   10  A    between atoms: C_14  and  C_16
REMARK   11  A    between atoms: C_19  and  C_22
REMARK   12  A    between atoms: C_29  and  C_30
REMARK                            x       y       z     vdW  Elec       q    Type
REMARK                         _______ _______ _______ _____ _____    ______ ____
ROOT
ATOM      1  O   UNL     1      -5.206  -9.528  15.996  0.00  0.00    -0.336 OA
ATOM      6  N   UNL     1      -5.569 -11.428  17.126  0.00  0.00    -0.190 NA
ATOM      7  N   UNL     1      -6.413  -9.348  16.684  0.00  0.00    -0.056 NA
ATOM     15  C   UNL     1      -4.777 -10.778  16.312  0.00  0.00    +0.245 A 
ATOM     19  C   UNL     1      -6.559 -10.510  17.327  0.00  0.00    +0.204 A 
ENDROOT
BRANCH  19  22
ATOM      8  N   UNL     1      -8.604 -12.005  20.050  0.00  0.00    -0.240 NA
ATOM     22  C   UNL     1      -7.681 -10.787  18.176  0.00  0.00    +0.041 A 
ATOM     24  C   UNL     1      -8.900 -10.146  17.983  0.00  0.00    +0.016 A 
ATOM     25  C   UNL     1      -7.586 -11.699  19.214  0.00  0.00    +0.124 A 
ATOM     26  C   UNL     1      -9.972 -10.434  18.823  0.00  0.00    +0.044 A 
ATOM     27  C   UNL     1      -9.773 -11.363  19.832  0.00  0.00    +0.119 A 
BRANCH  27   9
ATOM      9  N   UNL     1     -10.873 -11.644  20.679  0.00  0.00    -0.327 N 
ATOM     33  H   UNL     1     -10.865 -11.203  21.591  0.00  0.00    +0.148 HD
BRANCH   9  29
ATOM     29  C   UNL     1     -11.944 -12.504  20.292  0.00  0.00    +0.131 C 
BRANCH  29  30
ATOM     30  C   UNL     1     -13.277 -11.853  20.619  0.00  0.00    +0.178 C 
BRANCH  30   4
ATOM      4  O   UNL     1     -13.052 -10.552  21.146  0.00  0.00    -0.381 OA
ATOM     31  C   UNL     1     -13.893  -9.587  20.529  0.00  0.00    +0.194 C 
ENDBRANCH  30   4
ENDBRANCH  29  30
ENDBRANCH   9  29
ENDBRANCH  27   9
ENDBRANCH  19  22
BRANCH  15  10
ATOM      5  N   UNL     1      -3.232 -10.594  14.369  0.00  0.00    -0.287 NA
ATOM     10  C   UNL     1      -3.471 -11.221  15.685  0.00  0.00    +0.146 C 
ATOM     11  C   UNL     1      -2.245 -10.835  16.531  0.00  0.00    +0.030 C 
ATOM     12  C   UNL     1      -1.346 -10.044  15.591  0.00  0.00    +0.017 C 
ATOM     13  C   UNL     1      -1.781 -10.502  14.213  0.00  0.00    +0.085 C 
BRANCH   5  14
ATOM     14  C   UNL     1      -3.859 -11.313  13.268  0.00  0.00    +0.124 C 
BRANCH  14  16
ATOM     16  C   UNL     1      -4.394 -10.376  12.219  0.00  0.00    +0.008 A 
ATOM     17  C   UNL     1      -5.614  -9.725  12.400  0.00  0.00    +0.125 A 
ATOM     18  C   UNL     1      -3.654 -10.162  11.055  0.00  0.00    +0.012 A 
ATOM     20  C   UNL     1      -6.095  -8.860  11.418  0.00  0.00    +0.091 A 
ATOM     21  C   UNL     1      -4.136  -9.296  10.073  0.00  0.00    +0.046 A 
ATOM     23  C   UNL     1      -5.356  -8.645  10.254  0.00  0.00    +0.124 A 
BRANCH  17   2
ATOM      2  O   UNL     1      -6.348  -9.924  13.530  0.00  0.00    -0.506 OA
ATOM     32  H   UNL     1      -5.755 -10.178  14.258  0.00  0.00    +0.292 HD
ENDBRANCH  17   2
BRANCH  23   3
ATOM      3  O   UNL     1      -5.825  -7.800   9.296  0.00  0.00    -0.495 OA
ATOM     28  C   UNL     1      -7.162  -8.010   8.842  0.00  0.00    +0.277 C 
ENDBRANCH  23   3
ENDBRANCH  14  16
ENDBRANCH   5  14
ENDBRANCH  15  10
TORSDOF 10
ENDMDL
MODEL 5
REMARK VINA RESULT:      -6.3     27.343     30.282
REMARK  Name = 45783501
REMARK  12 active torsions:
REMARK  status: ('A' for Active; 'I' for Inactive)
REMARK    1  A    between atoms: O_2  and  C_17
REMARK    2  A    between atoms: O_3  and  C_23
REMARK    3  A    between atoms: O_3  and  C_28
REMARK    4  A    between atoms: O_4  and  C_30
REMARK    5  A    between atoms: O_4  and  C_31
REMARK    6  A    between atoms: N_5  and  C_14
REMARK    7  A    between atoms: N_9  and  C_27
REMARK    8  A    between atoms: N_9  and  C_29
REMARK    9  A    between atoms: C_10  and  C_15
REMARK   10  A    between atoms: C_14  and  C_16
REMARK   11  A    between atoms: C_19  and  C_22
REMARK   12  A    between atoms: C_29  and  C_30
REMARK                            x       y       z     vdW  Elec       q    Type
REMARK                         _______ _______ _______ _____ _____    ______ ____
ROOT
ATOM      1  O   UNL     1      -9.144 -11.178  20.053  0.00  0.00    -0.336 OA
ATOM      6  N   UNL     1      -8.551 -11.942  18.033  0.00  0.00    -0.190 NA
ATOM      7  N   UNL     1      -7.779 -10.894  19.915  0.00  0.00    -0.056 NA
ATOM     15  C   UNL     1      -9.518 -11.795  18.902  0.00  0.00    +0.245 A 
ATOM     19  C   UNL     1      -7.504 -11.375  18.698  0.00  0.00    +0.204 A 
ENDROOT
BRANCH  19  22
ATOM      8  N   UNL     1      -4.802 -10.788  16.210  0.00  0.00    -0.240 NA
ATOM     22  C   UNL     1      -6.193 -11.304  18.120  0.00  0.00    +0.041 A 
ATOM     24  C   UNL     1      -5.066 -11.661  18.853  0.00  0.00    +0.016 A 
ATOM     25  C   UNL     1      -6.009 -10.878  16.815  0.00  0.00    +0.124 A 
ATOM     26  C   UNL     1      -3.808 -11.583  18.265  0.00  0.00    +0.044 A 
ATOM     27  C   UNL     1      -3.731 -11.143  16.953  0.00  0.00    +0.119 A 
BRANCH  27   9
ATOM      9  N   UNL     1      -2.443 -11.067  16.370  0.00  0.00    -0.327 N 
ATOM     33  H   UNL     1      -1.734 -10.574  16.901  0.00  0.00    +0.148 HD
BRANCH   9  29
ATOM     29  C   UNL     1      -2.135 -11.643  15.101  0.00  0.00    +0.131 C 
BRANCH  29  30
ATOM     30  C   UNL     1      -1.902 -10.547  14.075  0.00  0.00    +0.178 C 
BRANCH  30   4
ATOM      4  O   UNL     1      -1.826 -11.123  12.777  0.00  0.00    -0.381 OA
ATOM     31  C   UNL     1      -1.917 -10.133  11.762  0.00  0.00    +0.194 C 
ENDBRANCH  30   4
ENDBRANCH  29  30
ENDBRANCH   9  29
ENDBRANCH  27   9
ENDBRANCH  19  22
BRANCH  15  10
ATOM      5  N   UNL     1     -11.728 -11.394  17.829  0.00  0.00    -0.287 NA
ATOM     10  C   UNL     1     -10.972 -12.209  18.801  0.00  0.00    +0.146 C 
ATOM     11  C   UNL     1     -11.144 -13.659  18.315  0.00  0.00    +0.030 C 
ATOM     12  C   UNL     1     -12.060 -13.566  17.102  0.00  0.00    +0.017 C 
ATOM     13  C   UNL     1     -12.790 -12.254  17.307  0.00  0.00    +0.085 C 
BRANCH   5  14
ATOM     14  C   UNL     1     -12.251 -10.159  18.398  0.00  0.00    +0.124 C 
BRANCH  14  16
ATOM     16  C   UNL     1     -11.980  -8.974  17.509  0.00  0.00    +0.008 A 
ATOM     17  C   UNL     1     -10.722  -8.373  17.486  0.00  0.00    +0.125 A 
ATOM     18  C   UNL     1     -13.005  -8.479  16.703  0.00  0.00    +0.012 A 
ATOM     20  C   UNL     1     -10.488  -7.276  16.657  0.00  0.00    +0.091 A 
ATOM     21  C   UNL     1     -12.772  -7.382  15.874  0.00  0.00    +0.046 A 
ATOM     23  C   UNL     1     -11.513  -6.780  15.850  0.00  0.00    +0.124 A 
BRANCH  17   2
ATOM      2  O   UNL     1      -9.711  -8.844  18.268  0.00  0.00    -0.506 OA
ATOM     32  H   UNL     1      -9.541  -9.776  18.047  0.00  0.00    +0.292 HD
ENDBRANCH  17   2
BRANCH  23   3
ATOM      3  O   UNL     1     -11.285  -5.710  15.041  0.00  0.00    -0.495 OA
ATOM     28  C   UNL     1     -12.308  -5.376  14.103  0.00  0.00    +0.277 C 
ENDBRANCH  23   3
ENDBRANCH  14  16
ENDBRANCH   5  14
ENDBRANCH  15  10
TORSDOF 10
ENDMDL
MODEL 6
REMARK VINA RESULT:      -6.3     26.072     29.853
REMARK  Name = 45783501
REMARK  12 active torsions:
REMARK  status: ('A' for Active; 'I' for Inactive)
REMARK    1  A    between atoms: O_2  and  C_17
REMARK    2  A    between atoms: O_3  and  C_23
REMARK    3  A    between atoms: O_3  and  C_28
REMARK    4  A    between atoms: O_4  and  C_30
REMARK    5  A    between atoms: O_4  and  C_31
REMARK    6  A    between atoms: N_5  and  C_14
REMARK    7  A    between atoms: N_9  and  C_27
REMARK    8  A    between atoms: N_9  and  C_29
REMARK    9  A    between atoms: C_10  and  C_15
REMARK   10  A    between atoms: C_14  and  C_16
REMARK   11  A    between atoms: C_19  and  C_22
REMARK   12  A    between atoms: C_29  and  C_30
REMARK                            x       y       z     vdW  Elec       q    Type
REMARK                         _______ _______ _______ _____ _____    ______ ____
ROOT
ATOM      1  O   UNL     1      -4.105 -11.041  17.934  0.00  0.00    -0.336 OA
ATOM      6  N   UNL     1      -5.512 -10.576  16.254  0.00  0.00    -0.190 NA
ATOM      7  N   UNL     1      -5.333 -10.728  18.530  0.00  0.00    -0.056 NA
ATOM     15  C   UNL     1      -4.298 -10.927  16.593  0.00  0.00    +0.245 A 
ATOM     19  C   UNL     1      -6.110 -10.465  17.476  0.00  0.00    +0.204 A 
ENDROOT
BRANCH  19  22
ATOM      8  N   UNL     1      -9.283  -8.578  17.023  0.00  0.00    -0.240 NA
ATOM     22  C   UNL     1      -7.488 -10.089  17.608  0.00  0.00    +0.041 A 
ATOM     24  C   UNL     1      -8.357 -10.822  18.410  0.00  0.00    +0.016 A 
ATOM     25  C   UNL     1      -7.996  -8.986  16.942  0.00  0.00    +0.124 A 
ATOM     26  C   UNL     1      -9.688 -10.433  18.519  0.00  0.00    +0.044 A 
ATOM     27  C   UNL     1     -10.097  -9.314  17.811  0.00  0.00    +0.119 A 
BRANCH  27   9
ATOM      9  N   UNL     1     -11.456  -8.933  17.932  0.00  0.00    -0.327 N 
ATOM     33  H   UNL     1     -11.900  -9.118  18.824  0.00  0.00    +0.148 HD
BRANCH   9  29
ATOM     29  C   UNL     1     -12.183  -8.322  16.867  0.00  0.00    +0.131 C 
BRANCH  29  30
ATOM     30  C   UNL     1     -12.620  -9.376  15.863  0.00  0.00    +0.178 C 
BRANCH  30   4
ATOM      4  O   UNL     1     -12.304  -8.937  14.548  0.00  0.00    -0.381 OA
ATOM     31  C   UNL     1     -11.132  -9.571  14.055  0.00  0.00    +0.194 C 
ENDBRANCH  30   4
ENDBRANCH  29  30
ENDBRANCH   9  29
ENDBRANCH  27   9
ENDBRANCH  19  22
BRANCH  15  10
ATOM      5  N   UNL     1      -3.189 -10.555  14.397  0.00  0.00    -0.287 NA
ATOM     10  C   UNL     1      -3.101 -11.219  15.713  0.00  0.00    +0.146 C 
ATOM     11  C   UNL     1      -1.779 -10.713  16.319  0.00  0.00    +0.030 C 
ATOM     12  C   UNL     1      -1.167  -9.820  15.249  0.00  0.00    +0.017 C 
ATOM     13  C   UNL     1      -1.814 -10.305  13.967  0.00  0.00    +0.085 C 
BRANCH   5  14
ATOM     14  C   UNL     1      -3.940 -11.324  13.414  0.00  0.00    +0.124 C 
BRANCH  14  16
ATOM     16  C   UNL     1      -4.466 -10.455  12.304  0.00  0.00    +0.008 A 
ATOM     17  C   UNL     1      -5.561  -9.616  12.513  0.00  0.00    +0.125 A 
ATOM     18  C   UNL     1      -3.844 -10.493  11.055  0.00  0.00    +0.012 A 
ATOM     20  C   UNL     1      -6.035  -8.817  11.473  0.00  0.00    +0.091 A 
ATOM     21  C   UNL     1      -4.318  -9.693  10.015  0.00  0.00    +0.046 A 
ATOM     23  C   UNL     1      -5.414  -8.855  10.224  0.00  0.00    +0.124 A 
BRANCH  17   2
ATOM      2  O   UNL     1      -6.180  -9.568  13.725  0.00  0.00    -0.506 OA
ATOM     32  H   UNL     1      -7.070  -9.951  13.647  0.00  0.00    +0.292 HD
ENDBRANCH  17   2
BRANCH  23   3
ATOM      3  O   UNL     1      -5.876  -8.074   9.210  0.00  0.00    -0.495 OA
ATOM     28  C   UNL     1      -7.285  -8.073   8.980  0.00  0.00    +0.277 C 
ENDBRANCH  23   3
ENDBRANCH  14  16
ENDBRANCH   5  14
ENDBRANCH  15  10
TORSDOF 10
ENDMDL
MODEL 7
REMARK VINA RESULT:      -6.3     27.105     29.876
REMARK  Name = 45783501
REMARK  12 active torsions:
REMARK  status: ('A' for Active; 'I' for Inactive)
REMARK    1  A    between atoms: O_2  and  C_17
REMARK    2  A    between atoms: O_3  and  C_23
REMARK    3  A    between atoms: O_3  and  C_28
REMARK    4  A    between atoms: O_4  and  C_30
REMARK    5  A    between atoms: O_4  and  C_31
REMARK    6  A    between atoms: N_5  and  C_14
REMARK    7  A    between atoms: N_9  and  C_27
REMARK    8  A    between atoms: N_9  and  C_29
REMARK    9  A    between atoms: C_10  and  C_15
REMARK   10  A    between atoms: C_14  and  C_16
REMARK   11  A    between atoms: C_19  and  C_22
REMARK   12  A    between atoms: C_29  and  C_30
REMARK                            x       y       z     vdW  Elec       q    Type
REMARK                         _______ _______ _______ _____ _____    ______ ____
ROOT
ATOM      1  O   UNL     1      -6.758 -10.980  20.051  0.00  0.00    -0.336 OA
ATOM      6  N   UNL     1      -6.885 -12.317  18.258  0.00  0.00    -0.190 NA
ATOM      7  N   UNL     1      -5.599 -10.738  19.301  0.00  0.00    -0.056 NA
ATOM     15  C   UNL     1      -7.458 -11.922  19.366  0.00  0.00    +0.245 A 
ATOM     19  C   UNL     1      -5.748 -11.563  18.261  0.00  0.00    +0.204 A 
ENDROOT
BRANCH  19  22
ATOM      8  N   UNL     1      -3.949 -12.832  15.262  0.00  0.00    -0.240 NA
ATOM     22  C   UNL     1      -4.778 -11.658  17.207  0.00  0.00    +0.041 A 
ATOM     24  C   UNL     1      -3.757 -10.723  17.088  0.00  0.00    +0.016 A 
ATOM     25  C   UNL     1      -4.830 -12.684  16.278  0.00  0.00    +0.124 A 
ATOM     26  C   UNL     1      -2.831 -10.841  16.056  0.00  0.00    +0.044 A 
ATOM     27  C   UNL     1      -2.970 -11.904  15.178  0.00  0.00    +0.119 A 
BRANCH  27   9
ATOM      9  N   UNL     1      -2.021 -12.010  14.133  0.00  0.00    -0.327 N 
ATOM     33  H   UNL     1      -1.065 -12.206  14.408  0.00  0.00    +0.148 HD
BRANCH   9  29
ATOM     29  C   UNL     1      -2.366 -11.848  12.758  0.00  0.00    +0.131 C 
BRANCH  29  30
ATOM     30  C   UNL     1      -2.237 -10.388  12.357  0.00  0.00    +0.178 C 
BRANCH  30   4
ATOM      4  O   UNL     1      -3.421  -9.976  11.685  0.00  0.00    -0.381 OA
ATOM     31  C   UNL     1      -3.165  -9.667  10.322  0.00  0.00    +0.194 C 
ENDBRANCH  30   4
ENDBRANCH  29  30
ENDBRANCH   9  29
ENDBRANCH  27   9
ENDBRANCH  19  22
BRANCH  15  10
ATOM      5  N   UNL     1      -9.942 -11.858  19.232  0.00  0.00    -0.287 NA
ATOM     10  C   UNL     1      -8.772 -12.362  19.978  0.00  0.00    +0.146 C 
ATOM     11  C   UNL     1      -8.941 -13.892  19.986  0.00  0.00    +0.030 C 
ATOM     12  C   UNL     1     -10.262 -14.150  19.275  0.00  0.00    +0.017 C 
ATOM     13  C   UNL     1     -11.009 -12.839  19.426  0.00  0.00    +0.085 C 
BRANCH   5  14
ATOM     14  C   UNL     1     -10.349 -10.519  19.636  0.00  0.00    +0.124 C 
BRANCH  14  16
ATOM     16  C   UNL     1     -10.649  -9.642  18.450  0.00  0.00    +0.008 A 
ATOM     17  C   UNL     1      -9.618  -9.058  17.715  0.00  0.00    +0.125 A 
ATOM     18  C   UNL     1     -11.978  -9.418  18.088  0.00  0.00    +0.012 A 
ATOM     20  C   UNL     1      -9.914  -8.249  16.619  0.00  0.00    +0.091 A 
ATOM     21  C   UNL     1     -12.275  -8.609  16.992  0.00  0.00    +0.046 A 
ATOM     23  C   UNL     1     -11.243  -8.024  16.256  0.00  0.00    +0.124 A 
BRANCH  17   2
ATOM      2  O   UNL     1      -8.315  -9.267  18.056  0.00  0.00    -0.506 OA
ATOM     32  H   UNL     1      -8.270  -9.947  18.750  0.00  0.00    +0.292 HD
ENDBRANCH  17   2
BRANCH  23   3
ATOM      3  O   UNL     1     -11.532  -7.235  15.186  0.00  0.00    -0.495 OA
ATOM     28  C   UNL     1     -11.218  -5.847  15.298  0.00  0.00    +0.277 C 
ENDBRANCH  23   3
ENDBRANCH  14  16
ENDBRANCH   5  14
ENDBRANCH  15  10
TORSDOF 10
ENDMDL
MODEL 8
REMARK VINA RESULT:      -6.3      5.231      8.922
REMARK  Name = 45783501
REMARK  12 active torsions:
REMARK  status: ('A' for Active; 'I' for Inactive)
REMARK    1  A    between atoms: O_2  and  C_17
REMARK    2  A    between atoms: O_3  and  C_23
REMARK    3  A    between atoms: O_3  and  C_28
REMARK    4  A    between atoms: O_4  and  C_30
REMARK    5  A    between atoms: O_4  and  C_31
REMARK    6  A    between atoms: N_5  and  C_14
REMARK    7  A    between atoms: N_9  and  C_27
REMARK    8  A    between atoms: N_9  and  C_29
REMARK    9  A    between atoms: C_10  and  C_15
REMARK   10  A    between atoms: C_14  and  C_16
REMARK   11  A    between atoms: C_19  and  C_22
REMARK   12  A    between atoms: C_29  and  C_30
REMARK                            x       y       z     vdW  Elec       q    Type
REMARK                         _______ _______ _______ _____ _____    ______ ____
ROOT
ATOM      1  O   UNL     1      15.034  10.545  14.340  0.00  0.00    -0.336 OA
ATOM      6  N   UNL     1      14.363  11.088  16.407  0.00  0.00    -0.190 NA
ATOM      7  N   UNL     1      14.609   9.352  14.937  0.00  0.00    -0.056 NA
ATOM     15  C   UNL     1      14.856  11.517  15.274  0.00  0.00    +0.245 A 
ATOM     19  C   UNL     1      14.229   9.754  16.154  0.00  0.00    +0.204 A 
ENDROOT
BRANCH  19  22
ATOM      8  N   UNL     1      11.876   7.487  17.932  0.00  0.00    -0.240 NA
ATOM     22  C   UNL     1      13.711   8.848  17.138  0.00  0.00    +0.041 A 
ATOM     24  C   UNL     1      14.485   8.449  18.222  0.00  0.00    +0.016 A 
ATOM     25  C   UNL     1      12.424   8.343  17.040  0.00  0.00    +0.124 A 
ATOM     26  C   UNL     1      13.955   7.570  19.162  0.00  0.00    +0.044 A 
ATOM     27  C   UNL     1      12.658   7.122  18.972  0.00  0.00    +0.119 A 
BRANCH  27   9
ATOM      9  N   UNL     1      12.134   6.226  19.935  0.00  0.00    -0.327 N 
ATOM     33  H   UNL     1      11.827   5.323  19.593  0.00  0.00    +0.148 HD
BRANCH   9  29
ATOM     29  C   UNL     1      12.030   6.557  21.320  0.00  0.00    +0.131 C 
BRANCH  29  30
ATOM     30  C   UNL     1      10.610   6.987  21.647  0.00  0.00    +0.178 C 
BRANCH  30   4
ATOM      4  O   UNL     1      10.634   8.266  22.268  0.00  0.00    -0.381 OA
ATOM     31  C   UNL     1      11.947   8.808  22.292  0.00  0.00    +0.194 C 
ENDBRANCH  30   4
ENDBRANCH  29  30
ENDBRANCH   9  29
ENDBRANCH  27   9
ENDBRANCH  19  22
BRANCH  15  10
ATOM      5  N   UNL     1      14.120  13.677  14.282  0.00  0.00    -0.287 NA
ATOM     10  C   UNL     1      15.246  12.922  14.866  0.00  0.00    +0.146 C 
ATOM     11  C   UNL     1      15.715  13.778  16.057  0.00  0.00    +0.030 C 
ATOM     12  C   UNL     1      14.834  15.019  16.026  0.00  0.00    +0.017 C 
ATOM     13  C   UNL     1      14.364  15.087  14.587  0.00  0.00    +0.085 C 
BRANCH   5  14
ATOM     14  C   UNL     1      13.952  13.446  12.853  0.00  0.00    +0.124 C 
BRANCH  14  16
ATOM     16  C   UNL     1      12.503  13.465  12.448  0.00  0.00    +0.008 A 
ATOM     17  C   UNL     1      11.634  12.454  12.860  0.00  0.00    +0.125 A 
ATOM     18  C   UNL     1      12.031  14.510  11.653  0.00  0.00    +0.012 A 
ATOM     20  C   UNL     1      10.294  12.486  12.475  0.00  0.00    +0.091 A 
ATOM     21  C   UNL     1      10.690  14.543  11.269  0.00  0.00    +0.046 A 
ATOM     23  C   UNL     1       9.821  13.531  11.680  0.00  0.00    +0.124 A 
BRANCH  17   2
ATOM      2  O   UNL     1      12.080  11.426  13.635  0.00  0.00    -0.506 OA
ATOM     32  H   UNL     1      11.701  10.591  13.310  0.00  0.00    +0.292 HD
ENDBRANCH  17   2
BRANCH  23   3
ATOM      3  O   UNL     1       8.513  13.564  11.306  0.00  0.00    -0.495 OA
ATOM     28  C   UNL     1       8.073  12.558  10.394  0.00  0.00    +0.277 C 
ENDBRANCH  23   3
ENDBRANCH  14  16
ENDBRANCH   5  14
ENDBRANCH  15  10
TORSDOF 10
ENDMDL
MODEL 9
REMARK VINA RESULT:      -6.2     30.774     33.042
REMARK  Name = 45783501
REMARK  12 active torsions:
REMARK  status: ('A' for Active; 'I' for Inactive)
REMARK    1  A    between atoms: O_2  and  C_17
REMARK    2  A    between atoms: O_3  and  C_23
REMARK    3  A    between atoms: O_3  and  C_28
REMARK    4  A    between atoms: O_4  and  C_30
REMARK    5  A    between atoms: O_4  and  C_31
REMARK    6  A    between atoms: N_5  and  C_14
REMARK    7  A    between atoms: N_9  and  C_27
REMARK    8  A    between atoms: N_9  and  C_29
REMARK    9  A    between atoms: C_10  and  C_15
REMARK   10  A    between atoms: C_14  and  C_16
REMARK   11  A    between atoms: C_19  and  C_22
REMARK   12  A    between atoms: C_29  and  C_30
REMARK                            x       y       z     vdW  Elec       q    Type
REMARK                         _______ _______ _______ _____ _____    ______ ____
ROOT
ATOM      1  O   UNL     1     -17.419   3.979  31.693  0.00  0.00    -0.336 OA
ATOM      6  N   UNL     1     -15.841   4.911  30.405  0.00  0.00    -0.190 NA
ATOM      7  N   UNL     1     -17.775   3.689  30.370  0.00  0.00    -0.056 NA
ATOM     15  C   UNL     1     -16.269   4.701  31.624  0.00  0.00    +0.245 A 
ATOM     19  C   UNL     1     -16.797   4.272  29.670  0.00  0.00    +0.204 A 
ENDROOT
BRANCH  19  22
ATOM      8  N   UNL     1     -17.299   5.270  26.123  0.00  0.00    -0.240 NA
ATOM     22  C   UNL     1     -16.747   4.235  28.237  0.00  0.00    +0.041 A 
ATOM     24  C   UNL     1     -16.127   3.185  27.569  0.00  0.00    +0.016 A 
ATOM     25  C   UNL     1     -17.312   5.244  27.475  0.00  0.00    +0.124 A 
ATOM     26  C   UNL     1     -16.094   3.176  26.178  0.00  0.00    +0.044 A 
ATOM     27  C   UNL     1     -16.689   4.233  25.509  0.00  0.00    +0.119 A 
BRANCH  27   9
ATOM      9  N   UNL     1     -16.645   4.210  24.093  0.00  0.00    -0.327 N 
ATOM     33  H   UNL     1     -17.533   4.300  23.612  0.00  0.00    +0.148 HD
BRANCH   9  29
ATOM     29  C   UNL     1     -15.429   4.064  23.362  0.00  0.00    +0.131 C 
BRANCH  29  30
ATOM     30  C   UNL     1     -14.601   5.333  23.469  0.00  0.00    +0.178 C 
BRANCH  30   4
ATOM      4  O   UNL     1     -15.386   6.446  23.063  0.00  0.00    -0.381 OA
ATOM     31  C   UNL     1     -15.405   6.581  21.649  0.00  0.00    +0.194 C 
ENDBRANCH  30   4
ENDBRANCH  29  30
ENDBRANCH   9  29
ENDBRANCH  27   9
ENDBRANCH  19  22
BRANCH  15  10
ATOM      5  N   UNL     1     -14.260   4.731  33.091  0.00  0.00    -0.287 NA
ATOM     10  C   UNL     1     -15.670   5.142  32.942  0.00  0.00    +0.146 C 
ATOM     11  C   UNL     1     -15.650   6.673  33.103  0.00  0.00    +0.030 C 
ATOM     12  C   UNL     1     -14.198   7.023  33.398  0.00  0.00    +0.017 C 
ATOM     13  C   UNL     1     -13.625   5.732  33.947  0.00  0.00    +0.085 C 
BRANCH   5  14
ATOM     14  C   UNL     1     -14.108   3.381  33.619  0.00  0.00    +0.124 C 
BRANCH  14  16
ATOM     16  C   UNL     1     -14.177   2.343  32.531  0.00  0.00    +0.008 A 
ATOM     17  C   UNL     1     -13.393   2.460  31.383  0.00  0.00    +0.125 A 
ATOM     18  C   UNL     1     -15.035   1.253  32.683  0.00  0.00    +0.012 A 
ATOM     20  C   UNL     1     -13.469   1.488  30.385  0.00  0.00    +0.091 A 
ATOM     21  C   UNL     1     -15.111   0.282  31.685  0.00  0.00    +0.046 A 
ATOM     23  C   UNL     1     -14.328   0.398  30.536  0.00  0.00    +0.124 A 
BRANCH  17   2
ATOM      2  O   UNL     1     -12.550   3.517  31.220  0.00  0.00    -0.506 OA
ATOM     32  H   UNL     1     -11.945   3.566  31.980  0.00  0.00    +0.292 HD
ENDBRANCH  17   2
BRANCH  23   3
ATOM      3  O   UNL     1     -14.402  -0.550  29.563  0.00  0.00    -0.495 OA
ATOM     28  C   UNL     1     -13.174  -1.141  29.137  0.00  0.00    +0.277 C 
ENDBRANCH  23   3
ENDBRANCH  14  16
ENDBRANCH   5  14
ENDBRANCH  15  10
TORSDOF 10
ENDMDL
MODEL 10
REMARK VINA RESULT:      -6.1      2.272      3.886
REMARK  Name = 45783501
REMARK  12 active torsions:
REMARK  status: ('A' for Active; 'I' for Inactive)
REMARK    1  A    between atoms: O_2  and  C_17
REMARK    2  A    between atoms: O_3  and  C_23
REMARK    3  A    between atoms: O_3  and  C_28
REMARK    4  A    between atoms: O_4  and  C_30
REMARK    5  A    between atoms: O_4  and  C_31
REMARK    6  A    between atoms: N_5  and  C_14
REMARK    7  A    between atoms: N_9  and  C_27
REMARK    8  A    between atoms: N_9  and  C_29
REMARK    9  A    between atoms: C_10  and  C_15
REMARK   10  A    between atoms: C_14  and  C_16
REMARK   11  A    between atoms: C_19  and  C_22
REMARK   12  A    between atoms: C_29  and  C_30
REMARK                            x       y       z     vdW  Elec       q    Type
REMARK                         _______ _______ _______ _____ _____    ______ ____
ROOT
ATOM      1  O   UNL     1      14.623   9.735  22.308  0.00  0.00    -0.336 OA
ATOM      6  N   UNL     1      16.360  10.148  20.956  0.00  0.00    -0.190 NA
ATOM      7  N   UNL     1      15.356   8.543  22.241  0.00  0.00    -0.056 NA
ATOM     15  C   UNL     1      15.283  10.627  21.523  0.00  0.00    +0.245 A 
ATOM     19  C   UNL     1      16.365   8.867  21.426  0.00  0.00    +0.204 A 
ENDROOT
BRANCH  19  22
ATOM      8  N   UNL     1      18.084   6.042  19.724  0.00  0.00    -0.240 NA
ATOM     22  C   UNL     1      17.391   7.934  21.061  0.00  0.00    +0.041 A 
ATOM     24  C   UNL     1      18.650   7.988  21.649  0.00  0.00    +0.016 A 
ATOM     25  C   UNL     1      17.161   6.951  20.113  0.00  0.00    +0.124 A 
ATOM     26  C   UNL     1      19.626   7.070  21.275  0.00  0.00    +0.044 A 
ATOM     27  C   UNL     1      19.295   6.125  20.316  0.00  0.00    +0.119 A 
BRANCH  27   9
ATOM      9  N   UNL     1      20.300   5.199  19.946  0.00  0.00    -0.327 N 
ATOM     33  H   UNL     1      20.707   5.318  19.025  0.00  0.00    +0.148 HD
BRANCH   9  29
ATOM     29  C   UNL     1      20.730   4.143  20.804  0.00  0.00    +0.131 C 
BRANCH  29  30
ATOM     30  C   UNL     1      22.223   4.258  21.063  0.00  0.00    +0.178 C 
BRANCH  30   4
ATOM      4  O   UNL     1      22.679   3.088  21.730  0.00  0.00    -0.381 OA
ATOM     31  C   UNL     1      23.514   2.302  20.892  0.00  0.00    +0.194 C 
ENDBRANCH  30   4
ENDBRANCH  29  30
ENDBRANCH   9  29
ENDBRANCH  27   9
ENDBRANCH  19  22
BRANCH  15  10
ATOM      5  N   UNL     1      13.298  12.069  21.940  0.00  0.00    -0.287 NA
ATOM     10  C   UNL     1      14.682  12.013  21.427  0.00  0.00    +0.146 C 
ATOM     11  C   UNL     1      15.451  13.054  22.260  0.00  0.00    +0.030 C 
ATOM     12  C   UNL     1      14.407  13.684  23.171  0.00  0.00    +0.017 C 
ATOM     13  C   UNL     1      13.100  13.426  22.448  0.00  0.00    +0.085 C 
BRANCH   5  14
ATOM     14  C   UNL     1      12.300  11.705  20.944  0.00  0.00    +0.124 C 
BRANCH  14  16
ATOM     16  C   UNL     1      11.747  10.325  21.182  0.00  0.00    +0.008 A 
ATOM     17  C   UNL     1      10.955  10.058  22.298  0.00  0.00    +0.125 A 
ATOM     18  C   UNL     1      12.035   9.309  20.270  0.00  0.00    +0.012 A 
ATOM     20  C   UNL     1      10.450   8.773  22.503  0.00  0.00    +0.091 A 
ATOM     21  C   UNL     1      11.531   8.025  20.475  0.00  0.00    +0.046 A 
ATOM     23  C   UNL     1      10.738   7.757  21.592  0.00  0.00    +0.124 A 
BRANCH  17   2
ATOM      2  O   UNL     1      10.665  11.039  23.197  0.00  0.00    -0.506 OA
ATOM     32  H   UNL     1      11.330  11.745  23.127  0.00  0.00    +0.292 HD
ENDBRANCH  17   2
BRANCH  23   3
ATOM      3  O   UNL     1      10.245   6.504  21.791  0.00  0.00    -0.495 OA
ATOM     28  C   UNL     1      11.132   5.411  21.552  0.00  0.00    +0.277 C 
ENDBRANCH  23   3
ENDBRANCH  14  16
ENDBRANCH   5  14
ENDBRANCH  15  10
TORSDOF 10
ENDMDL
