MODEL 1
REMARK VINA RESULT:      -6.7      0.000      0.000
REMARK  Name = 28961362
REMARK  9 active torsions:
REMARK  status: ('A' for Active; 'I' for Inactive)
REMARK    1  A    between atoms: S_1  and  N_9
REMARK    2  A    between atoms: S_1  and  C_23
REMARK    3  A    between atoms: O_3  and  C_12
REMARK    4  A    between atoms: O_4  and  C_19
REMARK    5  A    between atoms: N_7  and  C_10
REMARK    6  A    between atoms: N_8  and  C_20
REMARK    7  A    between atoms: N_9  and  C_16
REMARK    8  A    between atoms: C_11  and  C_16
REMARK    9  A    between atoms: C_13  and  C_19
REMARK                            x       y       z     vdW  Elec       q    Type
REMARK                         _______ _______ _______ _____ _____    ______ ____
ROOT
ATOM      2  O   UNL     1      -7.898 -10.105   7.559  0.00  0.00    -0.366 OA
ATOM     10  C   UNL     1      -6.228 -10.647   9.168  0.00  0.00    +0.118 C 
ATOM     11  C   UNL     1      -7.665 -10.141   8.985  0.00  0.00    +0.154 C 
ATOM     12  C   UNL     1      -5.554 -10.242   7.866  0.00  0.00    +0.165 C 
ATOM     13  C   UNL     1      -6.687 -10.484   6.876  0.00  0.00    +0.174 C 
ENDROOT
BRANCH  10   7
ATOM      7  N   UNL     1      -5.547 -10.221  10.377  0.00  0.00    -0.292 NA
ATOM      8  N   UNL     1      -4.062 -10.564  12.793  0.00  0.00    -0.327 N 
ATOM     14  C   UNL     1      -6.183 -10.811  11.562  0.00  0.00    +0.104 C 
ATOM     15  C   UNL     1      -4.129 -10.598  10.330  0.00  0.00    +0.104 C 
ATOM     17  C   UNL     1      -5.509 -10.324  12.847  0.00  0.00    +0.120 C 
ATOM     18  C   UNL     1      -3.387 -10.105  11.575  0.00  0.00    +0.120 C 
BRANCH   8  20
ATOM     20  C   UNL     1      -3.357 -10.611  14.000  0.00  0.00    +0.030 A 
ATOM     21  C   UNL     1      -4.034 -10.863  15.194  0.00  0.00    +0.023 A 
ATOM     22  C   UNL     1      -1.977 -10.404  14.011  0.00  0.00    +0.023 A 
ATOM     24  C   UNL     1      -3.331 -10.909  16.398  0.00  0.00    +0.002 A 
ATOM     25  C   UNL     1      -1.275 -10.450  15.216  0.00  0.00    +0.002 A 
ATOM     26  C   UNL     1      -1.951 -10.703  16.409  0.00  0.00    +0.000 A 
ENDBRANCH   8  20
ENDBRANCH  10   7
BRANCH  12   3
ATOM      3  O   UNL     1      -5.189  -8.867   7.874  0.00  0.00    -0.388 OA
ATOM     32  H   UNL     1      -5.797  -8.399   7.276  0.00  0.00    +0.210 HD
ENDBRANCH  12   3
BRANCH  11  16
ATOM     16  C   UNL     1      -7.975  -8.751   9.528  0.00  0.00    +0.139 C 
BRANCH  16   9
ATOM      9  N   UNL     1      -9.152  -8.204   8.829  0.00  0.00    -0.187 NA
ATOM     33  H   UNL     1      -9.858  -8.892   8.536  0.00  0.00    +0.148 HD
BRANCH   9   1
ATOM      1  S   UNL     1      -9.026  -6.750   7.953  0.00  0.00    +0.058 S 
ATOM      5  O   UNL     1      -9.561  -6.946   6.619  0.00  0.00    -0.153 OA
ATOM      6  O   UNL     1      -7.694  -6.203   8.132  0.00  0.00    -0.153 OA
BRANCH   1  23
ATOM     23  C   UNL     1     -10.139  -5.698   8.837  0.00  0.00    +0.105 A 
ATOM     27  C   UNL     1     -11.134  -6.255   9.640  0.00  0.00    +0.028 A 
ATOM     28  C   UNL     1     -10.020  -4.313   8.734  0.00  0.00    +0.028 A 
ATOM     29  C   UNL     1     -12.012  -5.427  10.338  0.00  0.00    +0.002 A 
ATOM     30  C   UNL     1     -10.897  -3.484   9.432  0.00  0.00    +0.002 A 
ATOM     31  C   UNL     1     -11.893  -4.040  10.235  0.00  0.00    +0.000 A 
ENDBRANCH   1  23
ENDBRANCH   9   1
ENDBRANCH  16   9
ENDBRANCH  11  16
BRANCH  13  19
ATOM     19  C   UNL     1      -6.589  -9.716   5.570  0.00  0.00    +0.190 C 
BRANCH  19   4
ATOM      4  O   UNL     1      -6.883  -8.351   5.817  0.00  0.00    -0.392 OA
ATOM     34  H   UNL     1      -7.371  -8.310   6.657  0.00  0.00    +0.210 HD
ENDBRANCH  19   4
ENDBRANCH  13  19
TORSDOF 9
ENDMDL
MODEL 2
REMARK VINA RESULT:      -6.5     27.075     29.674
REMARK  Name = 28961362
REMARK  9 active torsions:
REMARK  status: ('A' for Active; 'I' for Inactive)
REMARK    1  A    between atoms: S_1  and  N_9
REMARK    2  A    between atoms: S_1  and  C_23
REMARK    3  A    between atoms: O_3  and  C_12
REMARK    4  A    between atoms: O_4  and  C_19
REMARK    5  A    between atoms: N_7  and  C_10
REMARK    6  A    between atoms: N_8  and  C_20
REMARK    7  A    between atoms: N_9  and  C_16
REMARK    8  A    between atoms: C_11  and  C_16
REMARK    9  A    between atoms: C_13  and  C_19
REMARK                            x       y       z     vdW  Elec       q    Type
REMARK                         _______ _______ _______ _____ _____    ______ ____
ROOT
ATOM      2  O   UNL     1      12.481   8.266  21.829  0.00  0.00    -0.366 OA
ATOM     10  C   UNL     1      13.211   8.617  19.590  0.00  0.00    +0.118 C 
ATOM     11  C   UNL     1      13.055   9.274  20.968  0.00  0.00    +0.154 C 
ATOM     12  C   UNL     1      12.139   7.538  19.602  0.00  0.00    +0.165 C 
ATOM     13  C   UNL     1      12.217   7.081  21.053  0.00  0.00    +0.174 C 
ENDROOT
BRANCH  10   7
ATOM      7  N   UNL     1      13.179   9.511  18.446  0.00  0.00    -0.292 NA
ATOM      8  N   UNL     1      14.120  10.656  16.004  0.00  0.00    -0.327 N 
ATOM     14  C   UNL     1      14.357  10.387  18.442  0.00  0.00    +0.104 C 
ATOM     15  C   UNL     1      13.122   8.744  17.195  0.00  0.00    +0.104 C 
ATOM     17  C   UNL     1      14.305  11.372  17.272  0.00  0.00    +0.120 C 
ATOM     18  C   UNL     1      13.031   9.674  15.983  0.00  0.00    +0.120 C 
BRANCH   8  20
ATOM     20  C   UNL     1      14.492  11.304  14.821  0.00  0.00    +0.030 A 
ATOM     21  C   UNL     1      15.805  11.214  14.359  0.00  0.00    +0.023 A 
ATOM     22  C   UNL     1      13.549  12.043  14.105  0.00  0.00    +0.023 A 
ATOM     24  C   UNL     1      16.175  11.861  13.181  0.00  0.00    +0.002 A 
ATOM     25  C   UNL     1      13.921  12.690  12.927  0.00  0.00    +0.002 A 
ATOM     26  C   UNL     1      15.233  12.599  12.463  0.00  0.00    +0.000 A 
ENDBRANCH   8  20
ENDBRANCH  10   7
BRANCH  12   3
ATOM      3  O   UNL     1      10.854   8.078  19.322  0.00  0.00    -0.388 OA
ATOM     32  H   UNL     1      10.578   8.597  20.097  0.00  0.00    +0.210 HD
ENDBRANCH  12   3
BRANCH  11  16
ATOM     16  C   UNL     1      12.152  10.500  21.042  0.00  0.00    +0.139 C 
BRANCH  16   9
ATOM      9  N   UNL     1      11.346  10.439  22.275  0.00  0.00    -0.187 NA
ATOM     33  H   UNL     1      10.374  10.125  22.159  0.00  0.00    +0.148 HD
BRANCH   9   1
ATOM      1  S   UNL     1      11.718  11.456  23.590  0.00  0.00    +0.058 S 
ATOM      5  O   UNL     1      13.133  11.774  23.563  0.00  0.00    -0.153 OA
ATOM      6  O   UNL     1      11.114  10.914  24.793  0.00  0.00    -0.153 OA
BRANCH   1  23
ATOM     23  C   UNL     1      10.821  12.922  23.177  0.00  0.00    +0.105 A 
ATOM     27  C   UNL     1      10.185  13.655  24.178  0.00  0.00    +0.028 A 
ATOM     28  C   UNL     1      10.751  13.346  21.851  0.00  0.00    +0.028 A 
ATOM     29  C   UNL     1       9.478  14.813  23.854  0.00  0.00    +0.002 A 
ATOM     30  C   UNL     1      10.043  14.504  21.525  0.00  0.00    +0.002 A 
ATOM     31  C   UNL     1       9.408  15.237  22.526  0.00  0.00    +0.000 A 
ENDBRANCH   1  23
ENDBRANCH   9   1
ENDBRANCH  16   9
ENDBRANCH  11  16
BRANCH  13  19
ATOM     19  C   UNL     1      10.972   6.398  21.591  0.00  0.00    +0.190 C 
BRANCH  19   4
ATOM      4  O   UNL     1      10.013   7.388  21.922  0.00  0.00    -0.392 OA
ATOM     34  H   UNL     1      10.392   7.927  22.637  0.00  0.00    +0.210 HD
ENDBRANCH  19   4
ENDBRANCH  13  19
TORSDOF 9
ENDMDL
MODEL 3
REMARK VINA RESULT:      -6.4     22.564     25.140
REMARK  Name = 28961362
REMARK  9 active torsions:
REMARK  status: ('A' for Active; 'I' for Inactive)
REMARK    1  A    between atoms: S_1  and  N_9
REMARK    2  A    between atoms: S_1  and  C_23
REMARK    3  A    between atoms: O_3  and  C_12
REMARK    4  A    between atoms: O_4  and  C_19
REMARK    5  A    between atoms: N_7  and  C_10
REMARK    6  A    between atoms: N_8  and  C_20
REMARK    7  A    between atoms: N_9  and  C_16
REMARK    8  A    between atoms: C_11  and  C_16
REMARK    9  A    between atoms: C_13  and  C_19
REMARK                            x       y       z     vdW  Elec       q    Type
REMARK                         _______ _______ _______ _____ _____    ______ ____
ROOT
ATOM      2  O   UNL     1     -15.681   0.103  29.478  0.00  0.00    -0.366 OA
ATOM     10  C   UNL     1     -15.206   1.890  30.978  0.00  0.00    +0.118 C 
ATOM     11  C   UNL     1     -16.123   1.431  29.836  0.00  0.00    +0.154 C 
ATOM     12  C   UNL     1     -13.937   1.086  30.743  0.00  0.00    +0.165 C 
ATOM     13  C   UNL     1     -14.527  -0.238  30.271  0.00  0.00    +0.174 C 
ENDROOT
BRANCH  10   7
ATOM      7  N   UNL     1     -15.015   3.324  31.111  0.00  0.00    -0.292 NA
ATOM      8  N   UNL     1     -15.091   5.852  32.438  0.00  0.00    -0.327 N 
ATOM     14  C   UNL     1     -16.298   3.994  31.360  0.00  0.00    +0.104 C 
ATOM     15  C   UNL     1     -14.077   3.619  32.201  0.00  0.00    +0.104 C 
ATOM     17  C   UNL     1     -16.118   5.511  31.446  0.00  0.00    +0.120 C 
ATOM     18  C   UNL     1     -13.824   5.124  32.316  0.00  0.00    +0.120 C 
BRANCH   8  20
ATOM     20  C   UNL     1     -15.100   7.143  32.976  0.00  0.00    +0.030 A 
ATOM     21  C   UNL     1     -16.290   7.870  33.026  0.00  0.00    +0.023 A 
ATOM     22  C   UNL     1     -13.919   7.705  33.462  0.00  0.00    +0.023 A 
ATOM     24  C   UNL     1     -16.298   9.158  33.562  0.00  0.00    +0.002 A 
ATOM     25  C   UNL     1     -13.928   8.993  33.998  0.00  0.00    +0.002 A 
ATOM     26  C   UNL     1     -15.118   9.719  34.050  0.00  0.00    +0.000 A 
ENDBRANCH   8  20
ENDBRANCH  10   7
BRANCH  12   3
ATOM      3  O   UNL     1     -13.136   1.663  29.719  0.00  0.00    -0.388 OA
ATOM     32  H   UNL     1     -12.542   2.308  30.140  0.00  0.00    +0.210 HD
ENDBRANCH  12   3
BRANCH  11  16
ATOM     16  C   UNL     1     -16.104   2.272  28.564  0.00  0.00    +0.139 C 
BRANCH  16   9
ATOM      9  N   UNL     1     -15.961   1.386  27.395  0.00  0.00    -0.187 NA
ATOM     33  H   UNL     1     -14.995   1.169  27.114  0.00  0.00    +0.148 HD
BRANCH   9   1
ATOM      1  S   UNL     1     -17.182   1.332  26.210  0.00  0.00    +0.058 S 
ATOM      5  O   UNL     1     -18.479   1.379  26.857  0.00  0.00    -0.153 OA
ATOM      6  O   UNL     1     -16.876   0.275  25.263  0.00  0.00    -0.153 OA
BRANCH   1  23
ATOM     23  C   UNL     1     -16.936   2.867  25.368  0.00  0.00    +0.105 A 
ATOM     27  C   UNL     1     -18.006   3.743  25.190  0.00  0.00    +0.028 A 
ATOM     28  C   UNL     1     -15.672   3.202  24.885  0.00  0.00    +0.028 A 
ATOM     29  C   UNL     1     -17.813   4.954  24.527  0.00  0.00    +0.002 A 
ATOM     30  C   UNL     1     -15.478   4.414  24.221  0.00  0.00    +0.002 A 
ATOM     31  C   UNL     1     -16.548   5.290  24.043  0.00  0.00    +0.000 A 
ENDBRANCH   1  23
ENDBRANCH   9   1
ENDBRANCH  16   9
ENDBRANCH  11  16
BRANCH  13  19
ATOM     19  C   UNL     1     -13.597  -1.112  29.449  0.00  0.00    +0.190 C 
BRANCH  19   4
ATOM      4  O   UNL     1     -12.307  -1.092  30.039  0.00  0.00    -0.392 OA
ATOM     34  H   UNL     1     -12.387  -1.505  30.916  0.00  0.00    +0.210 HD
ENDBRANCH  19   4
ENDBRANCH  13  19
TORSDOF 9
ENDMDL
MODEL 4
REMARK VINA RESULT:      -6.4      6.551     11.359
REMARK  Name = 28961362
REMARK  9 active torsions:
REMARK  status: ('A' for Active; 'I' for Inactive)
REMARK    1  A    between atoms: S_1  and  N_9
REMARK    2  A    between atoms: S_1  and  C_23
REMARK    3  A    between atoms: O_3  and  C_12
REMARK    4  A    between atoms: O_4  and  C_19
REMARK    5  A    between atoms: N_7  and  C_10
REMARK    6  A    between atoms: N_8  and  C_20
REMARK    7  A    between atoms: N_9  and  C_16
REMARK    8  A    between atoms: C_11  and  C_16
REMARK    9  A    between atoms: C_13  and  C_19
REMARK                            x       y       z     vdW  Elec       q    Type
REMARK                         _______ _______ _______ _____ _____    ______ ____
ROOT
ATOM      2  O   UNL     1     -10.732 -11.727  17.702  0.00  0.00    -0.366 OA
ATOM     10  C   UNL     1     -11.812  -9.764  16.897  0.00  0.00    +0.118 C 
ATOM     11  C   UNL     1     -11.103 -11.058  16.476  0.00  0.00    +0.154 C 
ATOM     12  C   UNL     1     -11.224  -9.482  18.271  0.00  0.00    +0.165 C 
ATOM     13  C   UNL     1     -11.102 -10.898  18.821  0.00  0.00    +0.174 C 
ENDROOT
BRANCH  10   7
ATOM      7  N   UNL     1     -11.745  -8.660  15.956  0.00  0.00    -0.292 NA
ATOM      8  N   UNL     1     -12.764  -6.478  14.419  0.00  0.00    -0.327 N 
ATOM     14  C   UNL     1     -12.627  -8.908  14.807  0.00  0.00    +0.104 C 
ATOM     15  C   UNL     1     -12.120  -7.401  16.611  0.00  0.00    +0.104 C 
ATOM     17  C   UNL     1     -12.521  -7.778  13.781  0.00  0.00    +0.120 C 
ATOM     18  C   UNL     1     -12.000  -6.221  15.644  0.00  0.00    +0.120 C 
BRANCH   8  20
ATOM     20  C   UNL     1     -13.152  -5.408  13.606  0.00  0.00    +0.030 A 
ATOM     21  C   UNL     1     -14.506  -5.134  13.413  0.00  0.00    +0.023 A 
ATOM     22  C   UNL     1     -12.185  -4.616  12.987  0.00  0.00    +0.023 A 
ATOM     24  C   UNL     1     -14.893  -4.067  12.602  0.00  0.00    +0.002 A 
ATOM     25  C   UNL     1     -12.572  -3.549  12.176  0.00  0.00    +0.002 A 
ATOM     26  C   UNL     1     -13.926  -3.274  11.984  0.00  0.00    +0.000 A 
ENDBRANCH   8  20
ENDBRANCH  10   7
BRANCH  12   3
ATOM      3  O   UNL     1      -9.940  -8.878  18.173  0.00  0.00    -0.388 OA
ATOM     32  H   UNL     1      -9.380  -9.264  18.868  0.00  0.00    +0.210 HD
ENDBRANCH  12   3
BRANCH  11  16
ATOM     16  C   UNL     1      -9.835 -10.903  15.644  0.00  0.00    +0.139 C 
BRANCH  16   9
ATOM      9  N   UNL     1      -8.656 -11.103  16.507  0.00  0.00    -0.187 NA
ATOM     33  H   UNL     1      -8.841 -11.529  17.425  0.00  0.00    +0.148 HD
BRANCH   9   1
ATOM      1  S   UNL     1      -7.296 -10.094  16.341  0.00  0.00    +0.058 S 
ATOM      5  O   UNL     1      -7.647  -8.745  16.742  0.00  0.00    -0.153 OA
ATOM      6  O   UNL     1      -6.683 -10.334  15.047  0.00  0.00    -0.153 OA
BRANCH   1  23
ATOM     23  C   UNL     1      -6.202 -10.759  17.561  0.00  0.00    +0.105 A 
ATOM     27  C   UNL     1      -4.918 -11.165  17.199  0.00  0.00    +0.028 A 
ATOM     28  C   UNL     1      -6.623 -10.875  18.885  0.00  0.00    +0.028 A 
ATOM     29  C   UNL     1      -4.055 -11.689  18.160  0.00  0.00    +0.002 A 
ATOM     30  C   UNL     1      -5.760 -11.399  19.847  0.00  0.00    +0.002 A 
ATOM     31  C   UNL     1      -4.476 -11.805  19.485  0.00  0.00    +0.000 A 
ENDBRANCH   1  23
ENDBRANCH   9   1
ENDBRANCH  16   9
ENDBRANCH  11  16
BRANCH  13  19
ATOM     19  C   UNL     1     -10.089 -11.081  19.936  0.00  0.00    +0.190 C 
BRANCH  19   4
ATOM      4  O   UNL     1     -10.206  -9.999  20.845  0.00  0.00    -0.392 OA
ATOM     34  H   UNL     1     -11.154  -9.808  20.943  0.00  0.00    +0.210 HD
ENDBRANCH  19   4
ENDBRANCH  13  19
TORSDOF 9
ENDMDL
MODEL 5
REMARK VINA RESULT:      -6.2     26.910     29.759
REMARK  Name = 28961362
REMARK  9 active torsions:
REMARK  status: ('A' for Active; 'I' for Inactive)
REMARK    1  A    between atoms: S_1  and  N_9
REMARK    2  A    between atoms: S_1  and  C_23
REMARK    3  A    between atoms: O_3  and  C_12
REMARK    4  A    between atoms: O_4  and  C_19
REMARK    5  A    between atoms: N_7  and  C_10
REMARK    6  A    between atoms: N_8  and  C_20
REMARK    7  A    between atoms: N_9  and  C_16
REMARK    8  A    between atoms: C_11  and  C_16
REMARK    9  A    between atoms: C_13  and  C_19
REMARK                            x       y       z     vdW  Elec       q    Type
REMARK                         _______ _______ _______ _____ _____    ______ ____
ROOT
ATOM      2  O   UNL     1      12.431   9.820  20.662  0.00  0.00    -0.366 OA
ATOM     10  C   UNL     1      14.440   8.660  21.199  0.00  0.00    +0.118 C 
ATOM     11  C   UNL     1      13.867   9.919  20.535  0.00  0.00    +0.154 C 
ATOM     12  C   UNL     1      13.304   7.657  21.067  0.00  0.00    +0.165 C 
ATOM     13  C   UNL     1      12.100   8.565  21.287  0.00  0.00    +0.174 C 
ENDROOT
BRANCH  10   7
ATOM      7  N   UNL     1      15.728   8.205  20.707  0.00  0.00    -0.292 NA
ATOM      8  N   UNL     1      18.332   7.046  20.900  0.00  0.00    -0.327 N 
ATOM     14  C   UNL     1      16.819   8.934  21.367  0.00  0.00    +0.104 C 
ATOM     15  C   UNL     1      15.885   6.763  20.930  0.00  0.00    +0.104 C 
ATOM     17  C   UNL     1      18.180   8.504  20.816  0.00  0.00    +0.120 C 
ATOM     18  C   UNL     1      17.216   6.260  20.365  0.00  0.00    +0.120 C 
BRANCH   8  20
ATOM     20  C   UNL     1      19.627   6.517  20.876  0.00  0.00    +0.030 A 
ATOM     21  C   UNL     1      20.712   7.313  21.244  0.00  0.00    +0.023 A 
ATOM     22  C   UNL     1      19.833   5.195  20.483  0.00  0.00    +0.023 A 
ATOM     24  C   UNL     1      22.003   6.785  21.219  0.00  0.00    +0.002 A 
ATOM     25  C   UNL     1      21.125   4.668  20.458  0.00  0.00    +0.002 A 
ATOM     26  C   UNL     1      22.210   5.463  20.828  0.00  0.00    +0.000 A 
ENDBRANCH   8  20
ENDBRANCH  10   7
BRANCH  12   3
ATOM      3  O   UNL     1      13.262   7.086  19.765  0.00  0.00    -0.388 OA
ATOM     32  H   UNL     1      13.759   6.251  19.794  0.00  0.00    +0.210 HD
ENDBRANCH  12   3
BRANCH  11  16
ATOM     16  C   UNL     1      14.178  10.114  19.055  0.00  0.00    +0.139 C 
BRANCH  16   9
ATOM      9  N   UNL     1      12.948   9.915  18.268  0.00  0.00    -0.187 NA
ATOM     33  H   UNL     1      12.069   9.923  18.801  0.00  0.00    +0.148 HD
BRANCH   9   1
ATOM      1  S   UNL     1      13.002   9.042  16.807  0.00  0.00    +0.058 S 
ATOM      5  O   UNL     1      11.655   8.883  16.294  0.00  0.00    -0.153 OA
ATOM      6  O   UNL     1      13.858   7.883  16.979  0.00  0.00    -0.153 OA
BRANCH   1  23
ATOM     23  C   UNL     1      13.861  10.166  15.747  0.00  0.00    +0.105 A 
ATOM     27  C   UNL     1      13.323  11.426  15.484  0.00  0.00    +0.028 A 
ATOM     28  C   UNL     1      15.077   9.794  15.175  0.00  0.00    +0.028 A 
ATOM     29  C   UNL     1      14.000  12.313  14.649  0.00  0.00    +0.002 A 
ATOM     30  C   UNL     1      15.755  10.681  14.339  0.00  0.00    +0.002 A 
ATOM     31  C   UNL     1      15.217  11.941  14.076  0.00  0.00    +0.000 A 
ENDBRANCH   1  23
ENDBRANCH   9   1
ENDBRANCH  16   9
ENDBRANCH  11  16
BRANCH  13  19
ATOM     19  C   UNL     1      10.786   8.056  20.723  0.00  0.00    +0.190 C 
BRANCH  19   4
ATOM      4  O   UNL     1      10.693   8.438  19.361  0.00  0.00    -0.392 OA
ATOM     34  H   UNL     1       9.778   8.731  19.207  0.00  0.00    +0.210 HD
ENDBRANCH  19   4
ENDBRANCH  13  19
TORSDOF 9
ENDMDL
MODEL 6
REMARK VINA RESULT:      -6.2     27.205     29.970
REMARK  Name = 28961362
REMARK  9 active torsions:
REMARK  status: ('A' for Active; 'I' for Inactive)
REMARK    1  A    between atoms: S_1  and  N_9
REMARK    2  A    between atoms: S_1  and  C_23
REMARK    3  A    between atoms: O_3  and  C_12
REMARK    4  A    between atoms: O_4  and  C_19
REMARK    5  A    between atoms: N_7  and  C_10
REMARK    6  A    between atoms: N_8  and  C_20
REMARK    7  A    between atoms: N_9  and  C_16
REMARK    8  A    between atoms: C_11  and  C_16
REMARK    9  A    between atoms: C_13  and  C_19
REMARK                            x       y       z     vdW  Elec       q    Type
REMARK                         _______ _______ _______ _____ _____    ______ ____
ROOT
ATOM      2  O   UNL     1      12.861   7.857  21.827  0.00  0.00    -0.366 OA
ATOM     10  C   UNL     1      13.434   8.323  19.564  0.00  0.00    +0.118 C 
ATOM     11  C   UNL     1      13.457   8.876  20.995  0.00  0.00    +0.154 C 
ATOM     12  C   UNL     1      12.266   7.349  19.593  0.00  0.00    +0.165 C 
ATOM     13  C   UNL     1      12.419   6.768  20.993  0.00  0.00    +0.174 C 
ENDROOT
BRANCH  10   7
ATOM      7  N   UNL     1      13.394   9.307  18.497  0.00  0.00    -0.292 NA
ATOM      8  N   UNL     1      14.174  10.504  16.023  0.00  0.00    -0.327 N 
ATOM     14  C   UNL     1      14.688   9.992  18.378  0.00  0.00    +0.104 C 
ATOM     15  C   UNL     1      13.047   8.669  17.221  0.00  0.00    +0.104 C 
ATOM     17  C   UNL     1      14.640  11.070  17.294  0.00  0.00    +0.120 C 
ATOM     18  C   UNL     1      12.947   9.704  16.097  0.00  0.00    +0.120 C 
BRANCH   8  20
ATOM     20  C   UNL     1      14.484  11.189  14.843  0.00  0.00    +0.030 A 
ATOM     21  C   UNL     1      13.496  11.917  14.179  0.00  0.00    +0.023 A 
ATOM     22  C   UNL     1      15.780  11.144  14.330  0.00  0.00    +0.023 A 
ATOM     24  C   UNL     1      13.805  12.599  13.003  0.00  0.00    +0.002 A 
ATOM     25  C   UNL     1      16.089  11.826  13.154  0.00  0.00    +0.002 A 
ATOM     26  C   UNL     1      15.102  12.555  12.490  0.00  0.00    +0.000 A 
ENDBRANCH   8  20
ENDBRANCH  10   7
BRANCH  12   3
ATOM      3  O   UNL     1      11.021   8.025  19.471  0.00  0.00    -0.388 OA
ATOM     32  H   UNL     1      10.461   7.745  20.215  0.00  0.00    +0.210 HD
ENDBRANCH  12   3
BRANCH  11  16
ATOM     16  C   UNL     1      12.688  10.169  21.242  0.00  0.00    +0.139 C 
BRANCH  16   9
ATOM      9  N   UNL     1      13.633  11.298  21.296  0.00  0.00    -0.187 NA
ATOM     33  H   UNL     1      14.271  11.386  20.494  0.00  0.00    +0.148 HD
BRANCH   9   1
ATOM      1  S   UNL     1      14.129  11.926  22.798  0.00  0.00    +0.058 S 
ATOM      5  O   UNL     1      14.950  13.101  22.579  0.00  0.00    -0.153 OA
ATOM      6  O   UNL     1      14.615  10.840  23.628  0.00  0.00    -0.153 OA
BRANCH   1  23
ATOM     23  C   UNL     1      12.592  12.457  23.492  0.00  0.00    +0.105 A 
ATOM     27  C   UNL     1      12.145  11.912  24.696  0.00  0.00    +0.028 A 
ATOM     28  C   UNL     1      11.827  13.421  22.837  0.00  0.00    +0.028 A 
ATOM     29  C   UNL     1      10.934  12.330  25.245  0.00  0.00    +0.002 A 
ATOM     30  C   UNL     1      10.614  13.840  23.385  0.00  0.00    +0.002 A 
ATOM     31  C   UNL     1      10.168  13.295  24.589  0.00  0.00    +0.000 A 
ENDBRANCH   1  23
ENDBRANCH   9   1
ENDBRANCH  16   9
ENDBRANCH  11  16
BRANCH  13  19
ATOM     19  C   UNL     1      11.162   6.159  21.589  0.00  0.00    +0.190 C 
BRANCH  19   4
ATOM      4  O   UNL     1      10.917   4.910  20.966  0.00  0.00    -0.392 OA
ATOM     34  H   UNL     1      10.789   4.256  21.674  0.00  0.00    +0.210 HD
ENDBRANCH  19   4
ENDBRANCH  13  19
TORSDOF 9
ENDMDL
MODEL 7
REMARK VINA RESULT:      -6.2     24.039     25.802
REMARK  Name = 28961362
REMARK  9 active torsions:
REMARK  status: ('A' for Active; 'I' for Inactive)
REMARK    1  A    between atoms: S_1  and  N_9
REMARK    2  A    between atoms: S_1  and  C_23
REMARK    3  A    between atoms: O_3  and  C_12
REMARK    4  A    between atoms: O_4  and  C_19
REMARK    5  A    between atoms: N_7  and  C_10
REMARK    6  A    between atoms: N_8  and  C_20
REMARK    7  A    between atoms: N_9  and  C_16
REMARK    8  A    between atoms: C_11  and  C_16
REMARK    9  A    between atoms: C_13  and  C_19
REMARK                            x       y       z     vdW  Elec       q    Type
REMARK                         _______ _______ _______ _____ _____    ______ ____
ROOT
ATOM      2  O   UNL     1      13.946   8.710   4.919  0.00  0.00    -0.366 OA
ATOM     10  C   UNL     1      13.819   7.579   2.828  0.00  0.00    +0.118 C 
ATOM     11  C   UNL     1      13.006   8.051   4.041  0.00  0.00    +0.154 C 
ATOM     12  C   UNL     1      15.222   7.425   3.393  0.00  0.00    +0.165 C 
ATOM     13  C   UNL     1      15.268   8.606   4.355  0.00  0.00    +0.174 C 
ENDROOT
BRANCH  10   7
ATOM      7  N   UNL     1      13.303   6.419   2.123  0.00  0.00    -0.292 NA
ATOM      8  N   UNL     1      12.340   4.951  -0.131  0.00  0.00    -0.327 N 
ATOM     14  C   UNL     1      11.974   6.701   1.566  0.00  0.00    +0.104 C 
ATOM     15  C   UNL     1      14.221   6.019   1.049  0.00  0.00    +0.104 C 
ATOM     17  C   UNL     1      11.397   5.467   0.870  0.00  0.00    +0.120 C 
ATOM     18  C   UNL     1      13.718   4.763   0.334  0.00  0.00    +0.120 C 
BRANCH   8  20
ATOM     20  C   UNL     1      11.836   4.141  -1.154  0.00  0.00    +0.030 A 
ATOM     21  C   UNL     1      10.744   4.569  -1.909  0.00  0.00    +0.023 A 
ATOM     22  C   UNL     1      12.425   2.905  -1.419  0.00  0.00    +0.023 A 
ATOM     24  C   UNL     1      10.241   3.761  -2.928  0.00  0.00    +0.002 A 
ATOM     25  C   UNL     1      11.922   2.097  -2.439  0.00  0.00    +0.002 A 
ATOM     26  C   UNL     1      10.831   2.525  -3.194  0.00  0.00    +0.000 A 
ENDBRANCH   8  20
ENDBRANCH  10   7
BRANCH  12   3
ATOM      3  O   UNL     1      15.365   6.202   4.105  0.00  0.00    -0.388 OA
ATOM     32  H   UNL     1      14.578   5.661   3.920  0.00  0.00    +0.210 HD
ENDBRANCH  12   3
BRANCH  11  16
ATOM     16  C   UNL     1      12.307   6.970   4.858  0.00  0.00    +0.139 C 
BRANCH  16   9
ATOM      9  N   UNL     1      10.897   7.349   5.064  0.00  0.00    -0.187 NA
ATOM     33  H   UNL     1      10.738   8.191   5.633  0.00  0.00    +0.148 HD
BRANCH   9   1
ATOM      1  S   UNL     1       9.678   6.161   5.016  0.00  0.00    +0.058 S 
ATOM      5  O   UNL     1      10.164   5.005   4.288  0.00  0.00    -0.153 OA
ATOM      6  O   UNL     1       8.423   6.786   4.642  0.00  0.00    -0.153 OA
BRANCH   1  23
ATOM     23  C   UNL     1       9.544   5.715   6.722  0.00  0.00    +0.105 A 
ATOM     27  C   UNL     1       9.129   6.661   7.659  0.00  0.00    +0.028 A 
ATOM     28  C   UNL     1       9.850   4.417   7.129  0.00  0.00    +0.028 A 
ATOM     29  C   UNL     1       9.022   6.310   9.004  0.00  0.00    +0.002 A 
ATOM     30  C   UNL     1       9.743   4.065   8.474  0.00  0.00    +0.002 A 
ATOM     31  C   UNL     1       9.328   5.011   9.412  0.00  0.00    +0.000 A 
ENDBRANCH   1  23
ENDBRANCH   9   1
ENDBRANCH  16   9
ENDBRANCH  11  16
BRANCH  13  19
ATOM     19  C   UNL     1      16.283   8.495   5.479  0.00  0.00    +0.190 C 
BRANCH  19   4
ATOM      4  O   UNL     1      15.708   7.759   6.545  0.00  0.00    -0.392 OA
ATOM     34  H   UNL     1      16.405   7.184   6.905  0.00  0.00    +0.210 HD
ENDBRANCH  19   4
ENDBRANCH  13  19
TORSDOF 9
ENDMDL
MODEL 8
REMARK VINA RESULT:      -6.1      5.410      8.651
REMARK  Name = 28961362
REMARK  9 active torsions:
REMARK  status: ('A' for Active; 'I' for Inactive)
REMARK    1  A    between atoms: S_1  and  N_9
REMARK    2  A    between atoms: S_1  and  C_23
REMARK    3  A    between atoms: O_3  and  C_12
REMARK    4  A    between atoms: O_4  and  C_19
REMARK    5  A    between atoms: N_7  and  C_10
REMARK    6  A    between atoms: N_8  and  C_20
REMARK    7  A    between atoms: N_9  and  C_16
REMARK    8  A    between atoms: C_11  and  C_16
REMARK    9  A    between atoms: C_13  and  C_19
REMARK                            x       y       z     vdW  Elec       q    Type
REMARK                         _______ _______ _______ _____ _____    ______ ____
ROOT
ATOM      2  O   UNL     1      -2.631 -12.060  15.081  0.00  0.00    -0.366 OA
ATOM     10  C   UNL     1      -4.490 -11.841  16.553  0.00  0.00    +0.118 C 
ATOM     11  C   UNL     1      -4.051 -12.317  15.162  0.00  0.00    +0.154 C 
ATOM     12  C   UNL     1      -3.457 -10.779  16.894  0.00  0.00    +0.165 C 
ATOM     13  C   UNL     1      -2.204 -11.403  16.290  0.00  0.00    +0.174 C 
ENDROOT
BRANCH  10   7
ATOM      7  N   UNL     1      -5.875 -11.422  16.679  0.00  0.00    -0.292 NA
ATOM      8  N   UNL     1      -8.361 -11.005  18.023  0.00  0.00    -0.327 N 
ATOM     14  C   UNL     1      -6.729 -12.563  17.031  0.00  0.00    +0.104 C 
ATOM     15  C   UNL     1      -6.003 -10.369  17.694  0.00  0.00    +0.104 C 
ATOM     17  C   UNL     1      -8.199 -12.144  17.112  0.00  0.00    +0.120 C 
ATOM     18  C   UNL     1      -7.449  -9.879  17.799  0.00  0.00    +0.120 C 
BRANCH   8  20
ATOM     20  C   UNL     1      -9.628 -10.773  18.569  0.00  0.00    +0.030 A 
ATOM     21  C   UNL     1     -10.074 -11.539  19.646  0.00  0.00    +0.023 A 
ATOM     22  C   UNL     1     -10.446  -9.777  18.035  0.00  0.00    +0.023 A 
ATOM     24  C   UNL     1     -11.338 -11.309  20.189  0.00  0.00    +0.002 A 
ATOM     25  C   UNL     1     -11.709  -9.547  18.579  0.00  0.00    +0.002 A 
ATOM     26  C   UNL     1     -12.156 -10.311  19.656  0.00  0.00    +0.000 A 
ENDBRANCH   8  20
ENDBRANCH  10   7
BRANCH  12   3
ATOM      3  O   UNL     1      -3.750  -9.543  16.256  0.00  0.00    -0.388 OA
ATOM     32  H   UNL     1      -3.979  -9.737  15.331  0.00  0.00    +0.210 HD
ENDBRANCH  12   3
BRANCH  11  16
ATOM     16  C   UNL     1      -4.703 -11.631  13.966  0.00  0.00    +0.139 C 
BRANCH  16   9
ATOM      9  N   UNL     1      -3.717 -10.753  13.310  0.00  0.00    -0.187 NA
ATOM     33  H   UNL     1      -3.911  -9.744  13.364  0.00  0.00    +0.148 HD
BRANCH   9   1
ATOM      1  S   UNL     1      -2.796 -11.332  12.000  0.00  0.00    +0.058 S 
ATOM      5  O   UNL     1      -2.917 -12.776  11.932  0.00  0.00    -0.153 OA
ATOM      6  O   UNL     1      -1.486 -10.709  12.031  0.00  0.00    -0.153 OA
BRANCH   1  23
ATOM     23  C   UNL     1      -3.662 -10.647  10.619  0.00  0.00    +0.105 A 
ATOM     27  C   UNL     1      -3.401  -9.338  10.213  0.00  0.00    +0.028 A 
ATOM     28  C   UNL     1      -4.602 -11.415   9.935  0.00  0.00    +0.028 A 
ATOM     29  C   UNL     1      -4.082  -8.797   9.124  0.00  0.00    +0.002 A 
ATOM     30  C   UNL     1      -5.284 -10.875   8.845  0.00  0.00    +0.002 A 
ATOM     31  C   UNL     1      -5.024  -9.566   8.439  0.00  0.00    +0.000 A 
ENDBRANCH   1  23
ENDBRANCH   9   1
ENDBRANCH  16   9
ENDBRANCH  11  16
BRANCH  13  19
ATOM     19  C   UNL     1      -1.084 -10.432  15.963  0.00  0.00    +0.190 C 
BRANCH  19   4
ATOM      4  O   UNL     1      -1.457  -9.666  14.829  0.00  0.00    -0.392 OA
ATOM     34  H   UNL     1      -0.691  -9.116  14.590  0.00  0.00    +0.210 HD
ENDBRANCH  19   4
ENDBRANCH  13  19
TORSDOF 9
ENDMDL
MODEL 9
REMARK VINA RESULT:      -6.0      4.650      9.070
REMARK  Name = 28961362
REMARK  9 active torsions:
REMARK  status: ('A' for Active; 'I' for Inactive)
REMARK    1  A    between atoms: S_1  and  N_9
REMARK    2  A    between atoms: S_1  and  C_23
REMARK    3  A    between atoms: O_3  and  C_12
REMARK    4  A    between atoms: O_4  and  C_19
REMARK    5  A    between atoms: N_7  and  C_10
REMARK    6  A    between atoms: N_8  and  C_20
REMARK    7  A    between atoms: N_9  and  C_16
REMARK    8  A    between atoms: C_11  and  C_16
REMARK    9  A    between atoms: C_13  and  C_19
REMARK                            x       y       z     vdW  Elec       q    Type
REMARK                         _______ _______ _______ _____ _____    ______ ____
ROOT
ATOM      2  O   UNL     1      -1.811 -12.279  13.921  0.00  0.00    -0.366 OA
ATOM     10  C   UNL     1      -2.808 -11.818  11.809  0.00  0.00    +0.118 C 
ATOM     11  C   UNL     1      -2.423 -11.211  13.165  0.00  0.00    +0.154 C 
ATOM     12  C   UNL     1      -2.983 -13.293  12.131  0.00  0.00    +0.165 C 
ATOM     13  C   UNL     1      -1.865 -13.494  13.147  0.00  0.00    +0.174 C 
ENDROOT
BRANCH  10   7
ATOM      7  N   UNL     1      -3.927 -11.196  11.123  0.00  0.00    -0.292 NA
ATOM      8  N   UNL     1      -5.336 -10.101   8.892  0.00  0.00    -0.327 N 
ATOM     14  C   UNL     1      -3.530  -9.900  10.557  0.00  0.00    +0.104 C 
ATOM     15  C   UNL     1      -4.430 -12.073  10.059  0.00  0.00    +0.104 C 
ATOM     17  C   UNL     1      -4.716  -9.210   9.881  0.00  0.00    +0.120 C 
ATOM     18  C   UNL     1      -5.646 -11.454   9.364  0.00  0.00    +0.120 C 
BRANCH   8  20
ATOM     20  C   UNL     1      -6.113  -9.525   7.882  0.00  0.00    +0.030 A 
ATOM     21  C   UNL     1      -5.933  -9.916   6.555  0.00  0.00    +0.023 A 
ATOM     22  C   UNL     1      -7.067  -8.558   8.201  0.00  0.00    +0.023 A 
ATOM     24  C   UNL     1      -6.707  -9.340   5.547  0.00  0.00    +0.002 A 
ATOM     25  C   UNL     1      -7.840  -7.983   7.193  0.00  0.00    +0.002 A 
ATOM     26  C   UNL     1      -7.662  -8.375   5.866  0.00  0.00    +0.000 A 
ENDBRANCH   8  20
ENDBRANCH  10   7
BRANCH  12   3
ATOM      3  O   UNL     1      -4.247 -13.549  12.731  0.00  0.00    -0.388 OA
ATOM     32  H   UNL     1      -4.898 -13.646  12.014  0.00  0.00    +0.210 HD
ENDBRANCH  12   3
BRANCH  11  16
ATOM     16  C   UNL     1      -3.560 -10.652  14.012  0.00  0.00    +0.139 C 
BRANCH  16   9
ATOM      9  N   UNL     1      -3.893 -11.613  15.079  0.00  0.00    -0.187 NA
ATOM     33  H   UNL     1      -3.198 -12.351  15.249  0.00  0.00    +0.148 HD
BRANCH   9   1
ATOM      1  S   UNL     1      -5.520 -11.927  15.468  0.00  0.00    +0.058 S 
ATOM      5  O   UNL     1      -5.801 -13.334  15.256  0.00  0.00    -0.153 OA
ATOM      6  O   UNL     1      -6.358 -10.914  14.853  0.00  0.00    -0.153 OA
BRANCH   1  23
ATOM     23  C   UNL     1      -5.539 -11.624  17.210  0.00  0.00    +0.105 A 
ATOM     27  C   UNL     1      -6.628 -10.975  17.793  0.00  0.00    +0.028 A 
ATOM     28  C   UNL     1      -4.468 -12.035  18.001  0.00  0.00    +0.028 A 
ATOM     29  C   UNL     1      -6.645 -10.737  19.167  0.00  0.00    +0.002 A 
ATOM     30  C   UNL     1      -4.483 -11.797  19.375  0.00  0.00    +0.002 A 
ATOM     31  C   UNL     1      -5.572 -11.149  19.958  0.00  0.00    +0.000 A 
ENDBRANCH   1  23
ENDBRANCH   9   1
ENDBRANCH  16   9
ENDBRANCH  11  16
BRANCH  13  19
ATOM     19  C   UNL     1      -2.037 -14.676  14.084  0.00  0.00    +0.190 C 
BRANCH  19   4
ATOM      4  O   UNL     1      -2.957 -14.324  15.104  0.00  0.00    -0.392 OA
ATOM     34  H   UNL     1      -3.040 -13.355  15.093  0.00  0.00    +0.210 HD
ENDBRANCH  19   4
ENDBRANCH  13  19
TORSDOF 9
ENDMDL
MODEL 10
REMARK VINA RESULT:      -6.0     30.705     32.540
REMARK  Name = 28961362
REMARK  9 active torsions:
REMARK  status: ('A' for Active; 'I' for Inactive)
REMARK    1  A    between atoms: S_1  and  N_9
REMARK    2  A    between atoms: S_1  and  C_23
REMARK    3  A    between atoms: O_3  and  C_12
REMARK    4  A    between atoms: O_4  and  C_19
REMARK    5  A    between atoms: N_7  and  C_10
REMARK    6  A    between atoms: N_8  and  C_20
REMARK    7  A    between atoms: N_9  and  C_16
REMARK    8  A    between atoms: C_11  and  C_16
REMARK    9  A    between atoms: C_13  and  C_19
REMARK                            x       y       z     vdW  Elec       q    Type
REMARK                         _______ _______ _______ _____ _____    ______ ____
ROOT
ATOM      2  O   UNL     1      -4.420  13.869  33.517  0.00  0.00    -0.366 OA
ATOM     10  C   UNL     1      -6.566  12.863  33.742  0.00  0.00    +0.118 C 
ATOM     11  C   UNL     1      -5.198  13.046  34.413  0.00  0.00    +0.154 C 
ATOM     12  C   UNL     1      -6.248  13.034  32.265  0.00  0.00    +0.165 C 
ATOM     13  C   UNL     1      -5.194  14.133  32.330  0.00  0.00    +0.174 C 
ENDROOT
BRANCH  10   7
ATOM      7  N   UNL     1      -7.290  11.651  34.083  0.00  0.00    -0.292 NA
ATOM      8  N   UNL     1      -9.500  10.118  35.048  0.00  0.00    -0.327 N 
ATOM     14  C   UNL     1      -7.609  11.627  35.517  0.00  0.00    +0.104 C 
ATOM     15  C   UNL     1      -8.525  11.551  33.296  0.00  0.00    +0.104 C 
ATOM     17  C   UNL     1      -8.323  10.329  35.899  0.00  0.00    +0.120 C 
ATOM     18  C   UNL     1      -9.271  10.250  33.605  0.00  0.00    +0.120 C 
BRANCH   8  20
ATOM     20  C   UNL     1     -10.506   9.267  35.515  0.00  0.00    +0.030 A 
ATOM     21  C   UNL     1     -11.697   9.137  34.800  0.00  0.00    +0.023 A 
ATOM     22  C   UNL     1     -10.320   8.548  36.696  0.00  0.00    +0.023 A 
ATOM     24  C   UNL     1     -12.701   8.288  35.266  0.00  0.00    +0.002 A 
ATOM     25  C   UNL     1     -11.324   7.700  37.162  0.00  0.00    +0.002 A 
ATOM     26  C   UNL     1     -12.514   7.568  36.447  0.00  0.00    +0.000 A 
ENDBRANCH   8  20
ENDBRANCH  10   7
BRANCH  12   3
ATOM      3  O   UNL     1      -5.692  11.848  31.710  0.00  0.00    -0.388 OA
ATOM     32  H   UNL     1      -6.033  11.096  32.225  0.00  0.00    +0.210 HD
ENDBRANCH  12   3
BRANCH  11  16
ATOM     16  C   UNL     1      -4.391  11.780  34.679  0.00  0.00    +0.139 C 
BRANCH  16   9
ATOM      9  N   UNL     1      -3.829  11.835  36.041  0.00  0.00    -0.187 NA
ATOM     33  H   UNL     1      -4.417  12.293  36.749  0.00  0.00    +0.148 HD
BRANCH   9   1
ATOM      1  S   UNL     1      -2.142  11.829  36.269  0.00  0.00    +0.058 S 
ATOM      5  O   UNL     1      -1.805  12.703  37.376  0.00  0.00    -0.153 OA
ATOM      6  O   UNL     1      -1.490  11.994  34.983  0.00  0.00    -0.153 OA
BRANCH   1  23
ATOM     23  C   UNL     1      -1.854  10.162  36.784  0.00  0.00    +0.105 A 
ATOM     27  C   UNL     1      -2.932   9.305  37.007  0.00  0.00    +0.028 A 
ATOM     28  C   UNL     1      -0.550   9.703  36.965  0.00  0.00    +0.028 A 
ATOM     29  C   UNL     1      -2.707   7.990  37.412  0.00  0.00    +0.002 A 
ATOM     30  C   UNL     1      -0.323   8.388  37.370  0.00  0.00    +0.002 A 
ATOM     31  C   UNL     1      -1.402   7.531  37.593  0.00  0.00    +0.000 A 
ENDBRANCH   1  23
ENDBRANCH   9   1
ENDBRANCH  16   9
ENDBRANCH  11  16
BRANCH  13  19
ATOM     19  C   UNL     1      -4.262  14.217  31.134  0.00  0.00    +0.190 C 
BRANCH  19   4
ATOM      4  O   UNL     1      -3.202  13.293  31.312  0.00  0.00    -0.392 OA
ATOM     34  H   UNL     1      -2.910  13.365  32.237  0.00  0.00    +0.210 HD
ENDBRANCH  19   4
ENDBRANCH  13  19
TORSDOF 9
ENDMDL
