REMARK  Name = 38030122
REMARK  11 active torsions:
REMARK  status: ('A' for Active; 'I' for Inactive)
REMARK    1  A    between atoms: O_1  and  C_14
REMARK    2  A    between atoms: O_3  and  C_24
REMARK    3  A    between atoms: O_3  and  C_29
REMARK    4  A    between atoms: N_5  and  C_23
REMARK    5  A    between atoms: C_6  and  C_10
REMARK    6  A    between atoms: C_8  and  C_14
REMARK    7  A    between atoms: C_9  and  C_13
REMARK    8  A    between atoms: C_10  and  C_15
REMARK    9  A    between atoms: C_10  and  C_16
REMARK   10  A    between atoms: C_11  and  C_17
REMARK   11  A    between atoms: C_13  and  C_18
REMARK                            x       y       z     vdW  Elec       q    Type
REMARK                         _______ _______ _______ _____ _____    ______ ____
ROOT
ATOM      2  O   UNL     1      -0.970  -1.820  -1.830  0.00  0.00    -0.276 OA
ATOM      4  N   UNL     1       0.672  -1.428  -0.236  0.00  0.00    -0.298 N 
ATOM      5  N   UNL     1       3.131  -0.099   0.153  0.00  0.00    -0.324 N 
ATOM     18  C   UNL     1      -0.646  -1.534  -0.675  0.00  0.00    +0.216 C 
ATOM     19  C   UNL     1       1.097  -1.091   1.124  0.00  0.00    +0.126 C 
ATOM     20  C   UNL     1       1.777  -1.685  -1.156  0.00  0.00    +0.126 C 
ATOM     21  C   UNL     1       2.039   0.112   1.113  0.00  0.00    +0.124 C 
ATOM     22  C   UNL     1       2.727  -0.490  -1.207  0.00  0.00    +0.124 C 
ENDROOT
BRANCH   5  23
ATOM     23  C   UNL     1       4.325   0.617   0.296  0.00  0.00    +0.072 A 
ATOM     24  C   UNL     1       5.536   0.068  -0.127  0.00  0.00    +0.141 A 
ATOM     25  C   UNL     1       4.297   1.889   0.866  0.00  0.00    +0.027 A 
ATOM     26  C   UNL     1       6.719   0.792   0.021  0.00  0.00    +0.047 A 
ATOM     27  C   UNL     1       5.480   2.613   1.014  0.00  0.00    +0.002 A 
ATOM     28  C   UNL     1       6.691   2.065   0.592  0.00  0.00    +0.004 A 
BRANCH  24   3
ATOM      3  O   UNL     1       5.585  -1.173  -0.686  0.00  0.00    -0.493 OA
ATOM     29  C   UNL     1       5.778  -2.275   0.199  0.00  0.00    +0.277 C 
ENDBRANCH  24   3
ENDBRANCH   5  23
BRANCH  18  13
ATOM     13  C   UNL     1      -1.720  -1.275   0.351  0.00  0.00    +0.103 C 
BRANCH  13   9
ATOM      6  C   UNL     1      -3.858   1.018  -0.369  0.00  0.00    +0.001 C 
ATOM      7  C   UNL     1      -3.429  -0.209  -1.188  0.00  0.00    +0.012 C 
ATOM      8  C   UNL     1      -5.108   0.688   0.485  0.00  0.00    +0.040 C 
ATOM      9  C   UNL     1      -3.103  -1.421  -0.294  0.00  0.00    +0.023 C 
ATOM     11  C   UNL     1      -4.170  -1.648   0.757  0.00  0.00    -0.073 C 
ATOM     12  C   UNL     1      -5.066  -0.700   1.082  0.00  0.00    -0.022 C 
ATOM     17  C   UNL     1      -4.214  -3.009   1.394  0.00  0.00    +0.039 C 
BRANCH   6  10
ATOM     10  C   UNL     1      -4.107   2.205  -1.305  0.00  0.00    -0.013 C 
ATOM     15  C   UNL     1      -2.789   2.882  -1.667  0.00  0.00    +0.007 C 
ATOM     16  C   UNL     1      -4.842   1.748  -2.561  0.00  0.00    +0.007 C 
ENDBRANCH   6  10
BRANCH   8  14
ATOM     14  C   UNL     1      -5.303   1.719   1.602  0.00  0.00    +0.163 C 
BRANCH  14   1
ATOM      1  O   UNL     1      -6.528   1.443   2.251  0.00  0.00    -0.394 OA
ATOM     30  H   UNL     1      -6.632   2.099   2.961  0.00  0.00    +0.209 HD
ENDBRANCH  14   1
ENDBRANCH   8  14
ENDBRANCH  13   9
ENDBRANCH  18  13
TORSDOF 7
