REMARK  Name = 26745072
REMARK  6 active torsions:
REMARK  status: ('A' for Active; 'I' for Inactive)
REMARK    1  A    between atoms: O_3  and  C_27
REMARK    2  A    between atoms: C_10  and  C_15
REMARK    3  A    between atoms: C_16  and  C_18
REMARK    4  A    between atoms: C_19  and  C_22
REMARK    5  A    between atoms: C_20  and  C_27
REMARK    6  A    between atoms: C_29  and  C_32
REMARK                            x       y       z     vdW  Elec       q    Type
REMARK                         _______ _______ _______ _____ _____    ______ ____
ROOT
ATOM      2  O   UNL     1      -2.772  -0.630  -2.270  0.00  0.00    -0.270 OA
ATOM      5  N   UNL     1      -1.549   0.639  -0.725  0.00  0.00    -0.280 N 
ATOM      6  N   UNL     1      -0.685   3.423   1.602  0.00  0.00    -0.347 N 
ATOM      7  N   UNL     1       0.196   4.376  -0.217  0.00  0.00    -0.240 NA
ATOM     10  C   UNL     1      -0.449   0.937  -1.703  0.00  0.00    +0.171 C 
ATOM     11  C   UNL     1      -0.213   2.472  -1.838  0.00  0.00    +0.089 C 
ATOM     12  C   UNL     1      -1.411   1.169   0.661  0.00  0.00    +0.163 C 
ATOM     13  C   UNL     1      -0.270   3.126  -0.511  0.00  0.00    +0.066 A 
ATOM     14  C   UNL     1      -0.820   2.519   0.591  0.00  0.00    +0.056 A 
ATOM     16  C   UNL     1      -2.618  -0.171  -1.139  0.00  0.00    +0.248 C 
ATOM     17  C   UNL     1      -0.068   4.526   1.066  0.00  0.00    +0.197 A 
ATOM     33  H   UNL     1      -0.979   3.308   2.563  0.00  0.00    +0.167 HD
ENDROOT
BRANCH  16  18
ATOM     18  C   UNL     1      -3.644  -0.529  -0.149  0.00  0.00    +0.051 A 
ATOM     20  C   UNL     1      -3.526  -1.679   0.633  0.00  0.00    +0.071 A 
ATOM     21  C   UNL     1      -4.751   0.306   0.002  0.00  0.00    +0.014 A 
ATOM     23  C   UNL     1      -4.516  -1.993   1.565  0.00  0.00    +0.016 A 
ATOM     24  C   UNL     1      -5.740  -0.008   0.933  0.00  0.00    +0.001 A 
ATOM     25  C   UNL     1      -5.623  -1.157   1.715  0.00  0.00    +0.001 A 
BRANCH  20  27
ATOM      4  O   UNL     1      -1.738  -2.756  -0.536  0.00  0.00    -0.245 OA
ATOM     27  C   UNL     1      -2.382  -2.571   0.500  0.00  0.00    +0.338 C 
BRANCH  27   3
ATOM      3  O   UNL     1      -2.080  -3.203   1.666  0.00  0.00    -0.477 OA
ATOM     34  H   UNL     1      -1.309  -3.801   1.567  0.00  0.00    +0.295 HD
ENDBRANCH  27   3
ENDBRANCH  20  27
ENDBRANCH  16  18
BRANCH  10  15
ATOM      1  O   UNL     1       0.782  -1.174  -1.934  0.00  0.00    -0.336 OA
ATOM      8  N   UNL     1       1.843   0.367  -0.704  0.00  0.00    -0.190 NA
ATOM      9  N   UNL     1       1.988  -1.761  -1.530  0.00  0.00    -0.056 NA
ATOM     15  C   UNL     1       0.777   0.078  -1.405  0.00  0.00    +0.249 A 
ATOM     19  C   UNL     1       2.557  -0.791  -0.809  0.00  0.00    +0.202 A 
BRANCH  19  22
ATOM     22  C   UNL     1       3.838  -0.946  -0.182  0.00  0.00    +0.023 A 
ATOM     26  C   UNL     1       4.384   0.102   0.560  0.00  0.00    +0.015 A 
ATOM     28  C   UNL     1       4.537  -2.146  -0.312  0.00  0.00    +0.012 A 
ATOM     29  C   UNL     1       5.629  -0.049   1.171  0.00  0.00    -0.050 A 
ATOM     30  C   UNL     1       5.782  -2.297   0.298  0.00  0.00    +0.001 A 
ATOM     31  C   UNL     1       6.328  -1.249   1.040  0.00  0.00    +0.003 A 
ATOM     32  C   UNL     1       6.213   1.071   1.963  0.00  0.00    +0.044 C 
ENDBRANCH  19  22
ENDBRANCH  10  15
TORSDOF 5
