MODEL 1
REMARK VINA RESULT:      -6.0      0.000      0.000
REMARK  Name = 11884350
REMARK  9 active torsions:
REMARK  status: ('A' for Active; 'I' for Inactive)
REMARK    1  A    between atoms: O_3  and  C_12
REMARK    2  A    between atoms: O_5  and  C_19
REMARK    3  A    between atoms: O_5  and  C_22
REMARK    4  A    between atoms: O_6  and  C_20
REMARK    5  A    between atoms: O_6  and  C_23
REMARK    6  A    between atoms: O_7  and  C_21
REMARK    7  A    between atoms: O_7  and  C_24
REMARK    8  A    between atoms: N_8  and  C_11
REMARK    9  A    between atoms: C_15  and  C_16
REMARK                            x       y       z     vdW  Elec       q    Type
REMARK                         _______ _______ _______ _____ _____    ______ ____
ROOT
ATOM      4  O   UNL     1      16.921   5.471  18.645  0.00  0.00    -0.270 OA
ATOM      8  N   UNL     1      15.953   7.058  20.032  0.00  0.00    -0.304 N 
ATOM     15  C   UNL     1      16.994   6.254  19.590  0.00  0.00    +0.245 C 
ATOM     25  H   UNL     1      16.049   7.596  20.887  0.00  0.00    +0.149 HD
ENDROOT
BRANCH   8  11
ATOM      1  O   UNL     1      13.791   9.271  19.645  0.00  0.00    -0.369 OA
ATOM      2  O   UNL     1      13.506   7.359  17.279  0.00  0.00    -0.369 OA
ATOM      9  C   UNL     1      14.660   7.746  18.055  0.00  0.00    +0.172 C 
ATOM     10  C   UNL     1      14.490   9.214  18.389  0.00  0.00    +0.179 C 
ATOM     11  C   UNL     1      14.634   7.055  19.401  0.00  0.00    +0.130 C 
ATOM     12  C   UNL     1      13.630   9.709  17.250  0.00  0.00    +0.171 C 
ATOM     13  C   UNL     1      13.683   7.946  20.187  0.00  0.00    +0.185 C 
ATOM     14  C   UNL     1      12.722   8.527  16.998  0.00  0.00    +0.194 C 
BRANCH  12   3
ATOM      3  O   UNL     1      12.907  10.879  17.559  0.00  0.00    -0.387 OA
ATOM     26  H   UNL     1      11.972  10.720  17.346  0.00  0.00    +0.210 HD
ENDBRANCH  12   3
ENDBRANCH   8  11
BRANCH  15  16
ATOM     16  C   UNL     1      18.264   6.354  20.353  0.00  0.00    +0.044 A 
ATOM     17  C   UNL     1      19.289   5.478  20.061  0.00  0.00    +0.062 A 
ATOM     18  C   UNL     1      18.379   7.321  21.330  0.00  0.00    +0.062 A 
ATOM     19  C   UNL     1      19.572   7.416  22.047  0.00  0.00    +0.166 A 
ATOM     20  C   UNL     1      20.483   5.574  20.776  0.00  0.00    +0.166 A 
ATOM     21  C   UNL     1      20.624   6.544  21.769  0.00  0.00    +0.204 A 
BRANCH  19   5
ATOM      5  O   UNL     1      19.698   8.369  23.013  0.00  0.00    -0.491 OA
ATOM     22  C   UNL     1      19.839   9.719  22.576  0.00  0.00    +0.277 C 
ENDBRANCH  19   5
BRANCH  20   6
ATOM      6  O   UNL     1      21.501   4.714  20.496  0.00  0.00    -0.491 OA
ATOM     23  C   UNL     1      21.406   3.398  21.036  0.00  0.00    +0.277 C 
ENDBRANCH  20   6
BRANCH  21   7
ATOM      7  O   UNL     1      21.790   6.636  22.469  0.00  0.00    -0.488 OA
ATOM     24  C   UNL     1      21.870   5.906  23.691  0.00  0.00    +0.277 C 
ENDBRANCH  21   7
ENDBRANCH  15  16
TORSDOF 6
ENDMDL
MODEL 2
REMARK VINA RESULT:      -5.9     33.610     34.626
REMARK  Name = 11884350
REMARK  9 active torsions:
REMARK  status: ('A' for Active; 'I' for Inactive)
REMARK    1  A    between atoms: O_3  and  C_12
REMARK    2  A    between atoms: O_5  and  C_19
REMARK    3  A    between atoms: O_5  and  C_22
REMARK    4  A    between atoms: O_6  and  C_20
REMARK    5  A    between atoms: O_6  and  C_23
REMARK    6  A    between atoms: O_7  and  C_21
REMARK    7  A    between atoms: O_7  and  C_24
REMARK    8  A    between atoms: N_8  and  C_11
REMARK    9  A    between atoms: C_15  and  C_16
REMARK                            x       y       z     vdW  Elec       q    Type
REMARK                         _______ _______ _______ _____ _____    ______ ____
ROOT
ATOM      4  O   UNL     1     -17.264   5.279  28.352  0.00  0.00    -0.270 OA
ATOM      8  N   UNL     1     -16.097   3.833  26.965  0.00  0.00    -0.304 N 
ATOM     15  C   UNL     1     -16.441   4.381  28.193  0.00  0.00    +0.245 C 
ATOM     25  H   UNL     1     -15.328   3.174  26.895  0.00  0.00    +0.149 HD
ENDROOT
BRANCH   8  11
ATOM      1  O   UNL     1     -15.846   2.819  24.027  0.00  0.00    -0.369 OA
ATOM      2  O   UNL     1     -18.645   4.014  24.295  0.00  0.00    -0.369 OA
ATOM      9  C   UNL     1     -17.800   3.348  25.257  0.00  0.00    +0.172 C 
ATOM     10  C   UNL     1     -17.074   2.246  24.512  0.00  0.00    +0.179 C 
ATOM     11  C   UNL     1     -16.695   4.279  25.709  0.00  0.00    +0.130 C 
ATOM     12  C   UNL     1     -18.027   1.934  23.383  0.00  0.00    +0.171 C 
ATOM     13  C   UNL     1     -15.688   4.136  24.576  0.00  0.00    +0.185 C 
ATOM     14  C   UNL     1     -18.589   3.299  23.052  0.00  0.00    +0.194 C 
BRANCH  12   3
ATOM      3  O   UNL     1     -17.403   1.333  22.270  0.00  0.00    -0.387 OA
ATOM     26  H   UNL     1     -17.458   1.953  21.524  0.00  0.00    +0.210 HD
ENDBRANCH  12   3
ENDBRANCH   8  11
BRANCH  15  16
ATOM     16  C   UNL     1     -15.724   3.837  29.373  0.00  0.00    +0.044 A 
ATOM     17  C   UNL     1     -15.021   2.657  29.242  0.00  0.00    +0.062 A 
ATOM     18  C   UNL     1     -15.782   4.529  30.566  0.00  0.00    +0.062 A 
ATOM     19  C   UNL     1     -15.108   4.019  31.675  0.00  0.00    +0.166 A 
ATOM     20  C   UNL     1     -14.346   2.148  30.351  0.00  0.00    +0.166 A 
ATOM     21  C   UNL     1     -14.389   2.829  31.568  0.00  0.00    +0.204 A 
BRANCH  19   5
ATOM      5  O   UNL     1     -15.157   4.695  32.857  0.00  0.00    -0.491 OA
ATOM     22  C   UNL     1     -14.257   5.790  33.014  0.00  0.00    +0.277 C 
ENDBRANCH  19   5
BRANCH  20   6
ATOM      6  O   UNL     1     -13.649   0.983  30.233  0.00  0.00    -0.491 OA
ATOM     23  C   UNL     1     -14.409  -0.219  30.118  0.00  0.00    +0.277 C 
ENDBRANCH  20   6
BRANCH  21   7
ATOM      7  O   UNL     1     -13.730   2.330  32.651  0.00  0.00    -0.488 OA
ATOM     24  C   UNL     1     -14.494   1.555  33.573  0.00  0.00    +0.277 C 
ENDBRANCH  21   7
ENDBRANCH  15  16
TORSDOF 6
ENDMDL
MODEL 3
REMARK VINA RESULT:      -5.9     33.590     34.731
REMARK  Name = 11884350
REMARK  9 active torsions:
REMARK  status: ('A' for Active; 'I' for Inactive)
REMARK    1  A    between atoms: O_3  and  C_12
REMARK    2  A    between atoms: O_5  and  C_19
REMARK    3  A    between atoms: O_5  and  C_22
REMARK    4  A    between atoms: O_6  and  C_20
REMARK    5  A    between atoms: O_6  and  C_23
REMARK    6  A    between atoms: O_7  and  C_21
REMARK    7  A    between atoms: O_7  and  C_24
REMARK    8  A    between atoms: N_8  and  C_11
REMARK    9  A    between atoms: C_15  and  C_16
REMARK                            x       y       z     vdW  Elec       q    Type
REMARK                         _______ _______ _______ _____ _____    ______ ____
ROOT
ATOM      4  O   UNL     1     -17.366   5.180  28.345  0.00  0.00    -0.270 OA
ATOM      8  N   UNL     1     -16.086   3.839  26.951  0.00  0.00    -0.304 N 
ATOM     15  C   UNL     1     -16.485   4.338  28.183  0.00  0.00    +0.245 C 
ATOM     25  H   UNL     1     -15.276   3.231  26.883  0.00  0.00    +0.149 HD
ENDROOT
BRANCH   8  11
ATOM      1  O   UNL     1     -15.841   2.803  24.021  0.00  0.00    -0.369 OA
ATOM      2  O   UNL     1     -18.642   3.994  24.287  0.00  0.00    -0.369 OA
ATOM      9  C   UNL     1     -17.792   3.337  25.252  0.00  0.00    +0.172 C 
ATOM     10  C   UNL     1     -17.066   2.231  24.513  0.00  0.00    +0.179 C 
ATOM     11  C   UNL     1     -16.689   4.274  25.693  0.00  0.00    +0.130 C 
ATOM     12  C   UNL     1     -18.021   1.909  23.389  0.00  0.00    +0.171 C 
ATOM     13  C   UNL     1     -15.685   4.125  24.559  0.00  0.00    +0.185 C 
ATOM     14  C   UNL     1     -18.587   3.269  23.049  0.00  0.00    +0.194 C 
BRANCH  12   3
ATOM      3  O   UNL     1     -17.399   1.300  22.279  0.00  0.00    -0.387 OA
ATOM     26  H   UNL     1     -18.064   0.760  21.821  0.00  0.00    +0.210 HD
ENDBRANCH  12   3
ENDBRANCH   8  11
BRANCH  15  16
ATOM     16  C   UNL     1     -15.757   3.814  29.366  0.00  0.00    +0.044 A 
ATOM     17  C   UNL     1     -15.844   4.497  30.561  0.00  0.00    +0.062 A 
ATOM     18  C   UNL     1     -15.015   2.657  29.233  0.00  0.00    +0.062 A 
ATOM     19  C   UNL     1     -14.331   2.163  30.344  0.00  0.00    +0.166 A 
ATOM     20  C   UNL     1     -15.160   4.003  31.672  0.00  0.00    +0.166 A 
ATOM     21  C   UNL     1     -14.405   2.835  31.563  0.00  0.00    +0.204 A 
BRANCH  19   5
ATOM      5  O   UNL     1     -13.598   1.021  30.225  0.00  0.00    -0.491 OA
ATOM     22  C   UNL     1     -14.320  -0.206  30.141  0.00  0.00    +0.277 C 
ENDBRANCH  19   5
BRANCH  20   6
ATOM      6  O   UNL     1     -15.240   4.671  32.856  0.00  0.00    -0.491 OA
ATOM     23  C   UNL     1     -14.385   5.801  33.022  0.00  0.00    +0.277 C 
ENDBRANCH  20   6
BRANCH  21   7
ATOM      7  O   UNL     1     -13.736   2.354  32.649  0.00  0.00    -0.488 OA
ATOM     24  C   UNL     1     -14.481   1.551  33.563  0.00  0.00    +0.277 C 
ENDBRANCH  21   7
ENDBRANCH  15  16
TORSDOF 6
ENDMDL
MODEL 4
REMARK VINA RESULT:      -5.7      2.386      4.177
REMARK  Name = 11884350
REMARK  9 active torsions:
REMARK  status: ('A' for Active; 'I' for Inactive)
REMARK    1  A    between atoms: O_3  and  C_12
REMARK    2  A    between atoms: O_5  and  C_19
REMARK    3  A    between atoms: O_5  and  C_22
REMARK    4  A    between atoms: O_6  and  C_20
REMARK    5  A    between atoms: O_6  and  C_23
REMARK    6  A    between atoms: O_7  and  C_21
REMARK    7  A    between atoms: O_7  and  C_24
REMARK    8  A    between atoms: N_8  and  C_11
REMARK    9  A    between atoms: C_15  and  C_16
REMARK                            x       y       z     vdW  Elec       q    Type
REMARK                         _______ _______ _______ _____ _____    ______ ____
ROOT
ATOM      4  O   UNL     1      16.173  10.317  22.132  0.00  0.00    -0.270 OA
ATOM      8  N   UNL     1      14.990   8.811  20.824  0.00  0.00    -0.304 N 
ATOM     15  C   UNL     1      16.126   9.287  21.463  0.00  0.00    +0.245 C 
ATOM     25  H   UNL     1      15.051   8.017  20.196  0.00  0.00    +0.149 HD
ENDROOT
BRANCH   8  11
ATOM      1  O   UNL     1      12.065   7.889  20.261  0.00  0.00    -0.369 OA
ATOM      2  O   UNL     1      11.890  10.077  22.387  0.00  0.00    -0.369 OA
ATOM      9  C   UNL     1      12.914   9.097  22.113  0.00  0.00    +0.172 C 
ATOM     10  C   UNL     1      12.203   7.827  21.692  0.00  0.00    +0.179 C 
ATOM     11  C   UNL     1      13.704   9.503  20.887  0.00  0.00    +0.130 C 
ATOM     12  C   UNL     1      10.868   7.957  22.386  0.00  0.00    +0.171 C 
ATOM     13  C   UNL     1      12.800   9.017  19.763  0.00  0.00    +0.185 C 
ATOM     14  C   UNL     1      10.605   9.443  22.300  0.00  0.00    +0.194 C 
BRANCH  12   3
ATOM      3  O   UNL     1       9.844   7.200  21.781  0.00  0.00    -0.387 OA
ATOM     26  H   UNL     1       9.527   7.690  21.003  0.00  0.00    +0.210 HD
ENDBRANCH  12   3
ENDBRANCH   8  11
BRANCH  15  16
ATOM     16  C   UNL     1      17.362   8.484  21.281  0.00  0.00    +0.044 A 
ATOM     17  C   UNL     1      18.519   8.885  21.915  0.00  0.00    +0.062 A 
ATOM     18  C   UNL     1      17.313   7.359  20.482  0.00  0.00    +0.062 A 
ATOM     19  C   UNL     1      18.472   6.602  20.312  0.00  0.00    +0.166 A 
ATOM     20  C   UNL     1      19.678   8.128  21.746  0.00  0.00    +0.166 A 
ATOM     21  C   UNL     1      19.654   6.986  20.944  0.00  0.00    +0.204 A 
BRANCH  19   5
ATOM      5  O   UNL     1      18.435   5.489  19.528  0.00  0.00    -0.491 OA
ATOM     22  C   UNL     1      17.393   5.415  18.558  0.00  0.00    +0.277 C 
ENDBRANCH  19   5
BRANCH  20   6
ATOM      6  O   UNL     1      20.826   8.515  22.368  0.00  0.00    -0.491 OA
ATOM     23  C   UNL     1      20.871   8.385  23.787  0.00  0.00    +0.277 C 
ENDBRANCH  20   6
BRANCH  21   7
ATOM      7  O   UNL     1      20.788   6.248  20.778  0.00  0.00    -0.488 OA
ATOM     24  C   UNL     1      21.055   5.244  21.754  0.00  0.00    +0.277 C 
ENDBRANCH  21   7
ENDBRANCH  15  16
TORSDOF 6
ENDMDL
MODEL 5
REMARK VINA RESULT:      -5.5     28.485     29.766
REMARK  Name = 11884350
REMARK  9 active torsions:
REMARK  status: ('A' for Active; 'I' for Inactive)
REMARK    1  A    between atoms: O_3  and  C_12
REMARK    2  A    between atoms: O_5  and  C_19
REMARK    3  A    between atoms: O_5  and  C_22
REMARK    4  A    between atoms: O_6  and  C_20
REMARK    5  A    between atoms: O_6  and  C_23
REMARK    6  A    between atoms: O_7  and  C_21
REMARK    7  A    between atoms: O_7  and  C_24
REMARK    8  A    between atoms: N_8  and  C_11
REMARK    9  A    between atoms: C_15  and  C_16
REMARK                            x       y       z     vdW  Elec       q    Type
REMARK                         _______ _______ _______ _____ _____    ______ ____
ROOT
ATOM      4  O   UNL     1      -3.169 -10.627  14.681  0.00  0.00    -0.270 OA
ATOM      8  N   UNL     1      -5.170 -10.772  13.517  0.00  0.00    -0.304 N 
ATOM     15  C   UNL     1      -4.398 -10.656  14.664  0.00  0.00    +0.245 C 
ATOM     25  H   UNL     1      -6.174 -10.903  13.587  0.00  0.00    +0.149 HD
ENDROOT
BRANCH   8  11
ATOM      1  O   UNL     1      -6.308 -10.230  10.666  0.00  0.00    -0.369 OA
ATOM      2  O   UNL     1      -3.315  -9.637  10.530  0.00  0.00    -0.369 OA
ATOM      9  C   UNL     1      -4.261  -9.508  11.612  0.00  0.00    +0.172 C 
ATOM     10  C   UNL     1      -5.566  -9.043  10.999  0.00  0.00    +0.179 C 
ATOM     11  C   UNL     1      -4.585 -10.873  12.182  0.00  0.00    +0.130 C 
ATOM     12  C   UNL     1      -5.101  -8.312   9.762  0.00  0.00    +0.171 C 
ATOM     13  C   UNL     1      -5.630 -11.378  11.197  0.00  0.00    +0.185 C 
ATOM     14  C   UNL     1      -3.916  -9.143   9.325  0.00  0.00    +0.194 C 
BRANCH  12   3
ATOM      3  O   UNL     1      -6.087  -8.223   8.758  0.00  0.00    -0.387 OA
ATOM     26  H   UNL     1      -6.763  -8.898   8.939  0.00  0.00    +0.210 HD
ENDBRANCH  12   3
ENDBRANCH   8  11
BRANCH  15  16
ATOM     16  C   UNL     1      -5.142 -10.590  15.947  0.00  0.00    +0.044 A 
ATOM     17  C   UNL     1      -6.279  -9.812  16.021  0.00  0.00    +0.062 A 
ATOM     18  C   UNL     1      -4.674 -11.310  17.027  0.00  0.00    +0.062 A 
ATOM     19  C   UNL     1      -5.373 -11.250  18.233  0.00  0.00    +0.166 A 
ATOM     20  C   UNL     1      -6.979  -9.752  17.226  0.00  0.00    +0.166 A 
ATOM     21  C   UNL     1      -6.526 -10.472  18.331  0.00  0.00    +0.204 A 
BRANCH  19   5
ATOM      5  O   UNL     1      -4.921 -11.959  19.305  0.00  0.00    -0.491 OA
ATOM     22  C   UNL     1      -3.516 -12.194  19.379  0.00  0.00    +0.277 C 
ENDBRANCH  19   5
BRANCH  20   6
ATOM      6  O   UNL     1      -8.102  -8.987  17.309  0.00  0.00    -0.491 OA
ATOM     23  C   UNL     1      -8.989  -9.013  16.192  0.00  0.00    +0.277 C 
ENDBRANCH  20   6
BRANCH  21   7
ATOM      7  O   UNL     1      -7.210 -10.412  19.509  0.00  0.00    -0.488 OA
ATOM     24  C   UNL     1      -8.313 -11.304  19.663  0.00  0.00    +0.277 C 
ENDBRANCH  21   7
ENDBRANCH  15  16
TORSDOF 6
ENDMDL
MODEL 6
REMARK VINA RESULT:      -5.5      1.688      7.829
REMARK  Name = 11884350
REMARK  9 active torsions:
REMARK  status: ('A' for Active; 'I' for Inactive)
REMARK    1  A    between atoms: O_3  and  C_12
REMARK    2  A    between atoms: O_5  and  C_19
REMARK    3  A    between atoms: O_5  and  C_22
REMARK    4  A    between atoms: O_6  and  C_20
REMARK    5  A    between atoms: O_6  and  C_23
REMARK    6  A    between atoms: O_7  and  C_21
REMARK    7  A    between atoms: O_7  and  C_24
REMARK    8  A    between atoms: N_8  and  C_11
REMARK    9  A    between atoms: C_15  and  C_16
REMARK                            x       y       z     vdW  Elec       q    Type
REMARK                         _______ _______ _______ _____ _____    ______ ____
ROOT
ATOM      4  O   UNL     1      17.741   5.725  19.206  0.00  0.00    -0.270 OA
ATOM      8  N   UNL     1      18.228   6.865  21.166  0.00  0.00    -0.304 N 
ATOM     15  C   UNL     1      17.419   6.509  20.096  0.00  0.00    +0.245 C 
ATOM     25  H   UNL     1      17.943   7.604  21.801  0.00  0.00    +0.149 HD
ENDROOT
BRANCH   8  11
ATOM      1  O   UNL     1      20.999   8.221  21.623  0.00  0.00    -0.369 OA
ATOM      2  O   UNL     1      21.122   5.507  23.021  0.00  0.00    -0.369 OA
ATOM      9  C   UNL     1      20.018   6.410  22.791  0.00  0.00    +0.172 C 
ATOM     10  C   UNL     1      20.566   7.815  22.933  0.00  0.00    +0.179 C 
ATOM     11  C   UNL     1      19.576   6.329  21.346  0.00  0.00    +0.130 C 
ATOM     12  C   UNL     1      21.735   7.616  23.869  0.00  0.00    +0.171 C 
ATOM     13  C   UNL     1      20.589   7.236  20.662  0.00  0.00    +0.185 C 
ATOM     14  C   UNL     1      22.266   6.268  23.434  0.00  0.00    +0.194 C 
BRANCH  12   3
ATOM      3  O   UNL     1      22.711   8.628  23.772  0.00  0.00    -0.387 OA
ATOM     26  H   UNL     1      23.406   8.319  23.167  0.00  0.00    +0.210 HD
ENDBRANCH  12   3
ENDBRANCH   8  11
BRANCH  15  16
ATOM     16  C   UNL     1      16.086   7.161  20.042  0.00  0.00    +0.044 A 
ATOM     17  C   UNL     1      15.609   7.800  21.168  0.00  0.00    +0.062 A 
ATOM     18  C   UNL     1      15.366   7.109  18.866  0.00  0.00    +0.062 A 
ATOM     19  C   UNL     1      14.115   7.723  18.813  0.00  0.00    +0.166 A 
ATOM     20  C   UNL     1      14.358   8.415  21.115  0.00  0.00    +0.166 A 
ATOM     21  C   UNL     1      13.611   8.376  19.938  0.00  0.00    +0.204 A 
BRANCH  19   5
ATOM      5  O   UNL     1      13.396   7.679  17.657  0.00  0.00    -0.491 OA
ATOM     22  C   UNL     1      13.869   8.473  16.571  0.00  0.00    +0.277 C 
ENDBRANCH  19   5
BRANCH  20   6
ATOM      6  O   UNL     1      13.878   9.048  22.221  0.00  0.00    -0.491 OA
ATOM     23  C   UNL     1      14.558  10.230  22.639  0.00  0.00    +0.277 C 
ENDBRANCH  20   6
BRANCH  21   7
ATOM      7  O   UNL     1      12.388   8.976  19.888  0.00  0.00    -0.488 OA
ATOM     24  C   UNL     1      11.267   8.194  20.295  0.00  0.00    +0.277 C 
ENDBRANCH  21   7
ENDBRANCH  15  16
TORSDOF 6
ENDMDL
MODEL 7
REMARK VINA RESULT:      -5.4     28.580     29.823
REMARK  Name = 11884350
REMARK  9 active torsions:
REMARK  status: ('A' for Active; 'I' for Inactive)
REMARK    1  A    between atoms: O_3  and  C_12
REMARK    2  A    between atoms: O_5  and  C_19
REMARK    3  A    between atoms: O_5  and  C_22
REMARK    4  A    between atoms: O_6  and  C_20
REMARK    5  A    between atoms: O_6  and  C_23
REMARK    6  A    between atoms: O_7  and  C_21
REMARK    7  A    between atoms: O_7  and  C_24
REMARK    8  A    between atoms: N_8  and  C_11
REMARK    9  A    between atoms: C_15  and  C_16
REMARK                            x       y       z     vdW  Elec       q    Type
REMARK                         _______ _______ _______ _____ _____    ______ ____
ROOT
ATOM      4  O   UNL     1      -3.251 -10.648  14.487  0.00  0.00    -0.270 OA
ATOM      8  N   UNL     1      -5.265 -10.819  13.349  0.00  0.00    -0.304 N 
ATOM     15  C   UNL     1      -4.479 -10.692  14.486  0.00  0.00    +0.245 C 
ATOM     25  H   UNL     1      -6.266 -10.964  13.432  0.00  0.00    +0.149 HD
ENDROOT
BRANCH   8  11
ATOM      1  O   UNL     1      -6.428 -10.237  10.516  0.00  0.00    -0.369 OA
ATOM      2  O   UNL     1      -3.430  -9.674  10.353  0.00  0.00    -0.369 OA
ATOM      9  C   UNL     1      -4.364  -9.546  11.447  0.00  0.00    +0.172 C 
ATOM     10  C   UNL     1      -5.670  -9.062  10.852  0.00  0.00    +0.179 C 
ATOM     11  C   UNL     1      -4.696 -10.913  12.006  0.00  0.00    +0.130 C 
ATOM     12  C   UNL     1      -5.211  -8.323   9.617  0.00  0.00    +0.171 C 
ATOM     13  C   UNL     1      -5.756 -11.398  11.028  0.00  0.00    +0.185 C 
ATOM     14  C   UNL     1      -4.040  -9.162   9.159  0.00  0.00    +0.194 C 
BRANCH  12   3
ATOM      3  O   UNL     1      -6.207  -8.214   8.625  0.00  0.00    -0.387 OA
ATOM     26  H   UNL     1      -6.356  -7.270   8.451  0.00  0.00    +0.210 HD
ENDBRANCH  12   3
ENDBRANCH   8  11
BRANCH  15  16
ATOM     16  C   UNL     1      -5.208 -10.635  15.779  0.00  0.00    +0.044 A 
ATOM     17  C   UNL     1      -4.772 -11.420  16.826  0.00  0.00    +0.062 A 
ATOM     18  C   UNL     1      -6.299  -9.798  15.892  0.00  0.00    +0.062 A 
ATOM     19  C   UNL     1      -6.984  -9.743  17.106  0.00  0.00    +0.166 A 
ATOM     20  C   UNL     1      -5.456 -11.364  18.041  0.00  0.00    +0.166 A 
ATOM     21  C   UNL     1      -6.562 -10.525  18.180  0.00  0.00    +0.204 A 
BRANCH  19   5
ATOM      5  O   UNL     1      -8.061  -8.918  17.230  0.00  0.00    -0.491 OA
ATOM     22  C   UNL     1      -9.281  -9.354  16.634  0.00  0.00    +0.277 C 
ENDBRANCH  19   5
BRANCH  20   6
ATOM      6  O   UNL     1      -5.034 -12.135  19.081  0.00  0.00    -0.491 OA
ATOM     23  C   UNL     1      -3.634 -12.148  19.353  0.00  0.00    +0.277 C 
ENDBRANCH  20   6
BRANCH  21   7
ATOM      7  O   UNL     1      -7.230 -10.473  19.368  0.00  0.00    -0.488 OA
ATOM     24  C   UNL     1      -8.276 -11.422  19.564  0.00  0.00    +0.277 C 
ENDBRANCH  21   7
ENDBRANCH  15  16
TORSDOF 6
ENDMDL
MODEL 8
REMARK VINA RESULT:      -5.4      5.286      8.060
REMARK  Name = 11884350
REMARK  9 active torsions:
REMARK  status: ('A' for Active; 'I' for Inactive)
REMARK    1  A    between atoms: O_3  and  C_12
REMARK    2  A    between atoms: O_5  and  C_19
REMARK    3  A    between atoms: O_5  and  C_22
REMARK    4  A    between atoms: O_6  and  C_20
REMARK    5  A    between atoms: O_6  and  C_23
REMARK    6  A    between atoms: O_7  and  C_21
REMARK    7  A    between atoms: O_7  and  C_24
REMARK    8  A    between atoms: N_8  and  C_11
REMARK    9  A    between atoms: C_15  and  C_16
REMARK                            x       y       z     vdW  Elec       q    Type
REMARK                         _______ _______ _______ _____ _____    ______ ____
ROOT
ATOM      4  O   UNL     1      13.581   8.041  16.422  0.00  0.00    -0.270 OA
ATOM      8  N   UNL     1      13.780   9.139  18.455  0.00  0.00    -0.304 N 
ATOM     15  C   UNL     1      13.807   9.060  17.069  0.00  0.00    +0.245 C 
ATOM     25  H   UNL     1      14.088   9.983  18.926  0.00  0.00    +0.149 HD
ENDROOT
BRANCH   8  11
ATOM      1  O   UNL     1      13.206   8.857  21.507  0.00  0.00    -0.369 OA
ATOM      2  O   UNL     1      11.637   6.631  20.121  0.00  0.00    -0.369 OA
ATOM      9  C   UNL     1      12.003   7.956  19.677  0.00  0.00    +0.172 C 
ATOM     10  C   UNL     1      11.909   8.864  20.886  0.00  0.00    +0.179 C 
ATOM     11  C   UNL     1      13.469   7.989  19.302  0.00  0.00    +0.130 C 
ATOM     12  C   UNL     1      10.879   8.162  21.740  0.00  0.00    +0.171 C 
ATOM     13  C   UNL     1      14.132   8.155  20.662  0.00  0.00    +0.185 C 
ATOM     14  C   UNL     1      11.189   6.705  21.483  0.00  0.00    +0.194 C 
BRANCH  12   3
ATOM      3  O   UNL     1      10.967   8.490  23.109  0.00  0.00    -0.387 OA
ATOM     26  H   UNL     1      11.035   9.457  23.183  0.00  0.00    +0.210 HD
ENDBRANCH  12   3
ENDBRANCH   8  11
BRANCH  15  16
ATOM     16  C   UNL     1      14.166  10.310  16.353  0.00  0.00    +0.044 A 
ATOM     17  C   UNL     1      13.668  10.518  15.083  0.00  0.00    +0.062 A 
ATOM     18  C   UNL     1      14.985  11.226  16.980  0.00  0.00    +0.062 A 
ATOM     19  C   UNL     1      15.321  12.402  16.308  0.00  0.00    +0.166 A 
ATOM     20  C   UNL     1      14.004  11.694  14.411  0.00  0.00    +0.166 A 
ATOM     21  C   UNL     1      14.830  12.635  15.024  0.00  0.00    +0.204 A 
BRANCH  19   5
ATOM      5  O   UNL     1      16.128  13.314  16.919  0.00  0.00    -0.491 OA
ATOM     22  C   UNL     1      17.497  12.954  17.093  0.00  0.00    +0.277 C 
ENDBRANCH  19   5
BRANCH  20   6
ATOM      6  O   UNL     1      13.518  11.908  13.157  0.00  0.00    -0.491 OA
ATOM     23  C   UNL     1      12.173  12.371  13.052  0.00  0.00    +0.277 C 
ENDBRANCH  20   6
BRANCH  21   7
ATOM      7  O   UNL     1      15.158  13.783  14.366  0.00  0.00    -0.488 OA
ATOM     24  C   UNL     1      16.330  13.751  13.554  0.00  0.00    +0.277 C 
ENDBRANCH  21   7
ENDBRANCH  15  16
TORSDOF 6
ENDMDL
MODEL 9
REMARK VINA RESULT:      -5.4     27.586     30.957
REMARK  Name = 11884350
REMARK  9 active torsions:
REMARK  status: ('A' for Active; 'I' for Inactive)
REMARK    1  A    between atoms: O_3  and  C_12
REMARK    2  A    between atoms: O_5  and  C_19
REMARK    3  A    between atoms: O_5  and  C_22
REMARK    4  A    between atoms: O_6  and  C_20
REMARK    5  A    between atoms: O_6  and  C_23
REMARK    6  A    between atoms: O_7  and  C_21
REMARK    7  A    between atoms: O_7  and  C_24
REMARK    8  A    between atoms: N_8  and  C_11
REMARK    9  A    between atoms: C_15  and  C_16
REMARK                            x       y       z     vdW  Elec       q    Type
REMARK                         _______ _______ _______ _____ _____    ______ ____
ROOT
ATOM      4  O   UNL     1      -5.496 -10.996  19.311  0.00  0.00    -0.270 OA
ATOM      8  N   UNL     1      -5.619 -11.248  17.009  0.00  0.00    -0.304 N 
ATOM     15  C   UNL     1      -6.126 -10.920  18.259  0.00  0.00    +0.245 C 
ATOM     25  H   UNL     1      -6.229 -11.270  16.198  0.00  0.00    +0.149 HD
ENDROOT
BRANCH   8  11
ATOM      1  O   UNL     1      -4.013 -12.087  14.472  0.00  0.00    -0.369 OA
ATOM      2  O   UNL     1      -1.974 -10.980  16.460  0.00  0.00    -0.369 OA
ATOM      9  C   UNL     1      -3.362 -10.648  16.236  0.00  0.00    +0.172 C 
ATOM     10  C   UNL     1      -3.597 -10.737  14.742  0.00  0.00    +0.179 C 
ATOM     11  C   UNL     1      -4.252 -11.727  16.816  0.00  0.00    +0.130 C 
ATOM     12  C   UNL     1      -2.224 -10.453  14.180  0.00  0.00    +0.171 C 
ATOM     13  C   UNL     1      -4.222 -12.776  15.714  0.00  0.00    +0.185 C 
ATOM     14  C   UNL     1      -1.320 -11.121  15.191  0.00  0.00    +0.194 C 
BRANCH  12   3
ATOM      3  O   UNL     1      -2.034 -10.963  12.879  0.00  0.00    -0.387 OA
ATOM     26  H   UNL     1      -1.515 -10.314  12.375  0.00  0.00    +0.210 HD
ENDBRANCH  12   3
ENDBRANCH   8  11
BRANCH  15  16
ATOM     16  C   UNL     1      -7.542 -10.474  18.291  0.00  0.00    +0.044 A 
ATOM     17  C   UNL     1      -8.402 -11.047  19.205  0.00  0.00    +0.062 A 
ATOM     18  C   UNL     1      -7.953  -9.498  17.406  0.00  0.00    +0.062 A 
ATOM     19  C   UNL     1      -9.283  -9.078  17.436  0.00  0.00    +0.166 A 
ATOM     20  C   UNL     1      -9.731 -10.626  19.236  0.00  0.00    +0.166 A 
ATOM     21  C   UNL     1     -10.171  -9.641  18.351  0.00  0.00    +0.204 A 
BRANCH  19   5
ATOM      5  O   UNL     1      -9.700  -8.114  16.568  0.00  0.00    -0.491 OA
ATOM     22  C   UNL     1      -9.813  -8.485  15.196  0.00  0.00    +0.277 C 
ENDBRANCH  19   5
BRANCH  20   6
ATOM      6  O   UNL     1     -10.588 -11.186  20.134  0.00  0.00    -0.491 OA
ATOM     23  C   UNL     1     -10.424 -12.576  20.408  0.00  0.00    +0.277 C 
ENDBRANCH  20   6
BRANCH  21   7
ATOM      7  O   UNL     1     -11.471  -9.231  18.382  0.00  0.00    -0.488 OA
ATOM     24  C   UNL     1     -12.389  -9.929  17.543  0.00  0.00    +0.277 C 
ENDBRANCH  21   7
ENDBRANCH  15  16
TORSDOF 6
ENDMDL
MODEL 10
REMARK VINA RESULT:      -5.4     30.684     33.413
REMARK  Name = 11884350
REMARK  9 active torsions:
REMARK  status: ('A' for Active; 'I' for Inactive)
REMARK    1  A    between atoms: O_3  and  C_12
REMARK    2  A    between atoms: O_5  and  C_19
REMARK    3  A    between atoms: O_5  and  C_22
REMARK    4  A    between atoms: O_6  and  C_20
REMARK    5  A    between atoms: O_6  and  C_23
REMARK    6  A    between atoms: O_7  and  C_21
REMARK    7  A    between atoms: O_7  and  C_24
REMARK    8  A    between atoms: N_8  and  C_11
REMARK    9  A    between atoms: C_15  and  C_16
REMARK                            x       y       z     vdW  Elec       q    Type
REMARK                         _______ _______ _______ _____ _____    ______ ____
ROOT
ATOM      4  O   UNL     1     -15.364   6.273  33.993  0.00  0.00    -0.270 OA
ATOM      8  N   UNL     1     -13.970   5.141  32.526  0.00  0.00    -0.304 N 
ATOM     15  C   UNL     1     -14.314   6.196  33.358  0.00  0.00    +0.245 C 
ATOM     25  H   UNL     1     -13.140   5.197  31.945  0.00  0.00    +0.149 HD
ENDROOT
BRANCH   8  11
ATOM      1  O   UNL     1     -14.357   3.192  30.123  0.00  0.00    -0.369 OA
ATOM      2  O   UNL     1     -14.989   1.591  32.647  0.00  0.00    -0.369 OA
ATOM      9  C   UNL     1     -14.075   2.685  32.419  0.00  0.00    +0.172 C 
ATOM     10  C   UNL     1     -13.494   2.488  31.034  0.00  0.00    +0.179 C 
ATOM     11  C   UNL     1     -14.842   3.987  32.317  0.00  0.00    +0.130 C 
ATOM     12  C   UNL     1     -13.591   0.992  30.850  0.00  0.00    +0.171 C 
ATOM     13  C   UNL     1     -15.318   3.952  30.872  0.00  0.00    +0.185 C 
ATOM     14  C   UNL     1     -14.890   0.668  31.553  0.00  0.00    +0.194 C 
BRANCH  12   3
ATOM      3  O   UNL     1     -13.604   0.592  29.498  0.00  0.00    -0.387 OA
ATOM     26  H   UNL     1     -14.480   0.218  29.304  0.00  0.00    +0.210 HD
ENDBRANCH  12   3
ENDBRANCH   8  11
BRANCH  15  16
ATOM     16  C   UNL     1     -13.332   7.307  33.443  0.00  0.00    +0.044 A 
ATOM     17  C   UNL     1     -12.740   7.765  32.285  0.00  0.00    +0.062 A 
ATOM     18  C   UNL     1     -13.042   7.847  34.680  0.00  0.00    +0.062 A 
ATOM     19  C   UNL     1     -12.121   8.891  34.761  0.00  0.00    +0.166 A 
ATOM     20  C   UNL     1     -11.819   8.809  32.365  0.00  0.00    +0.166 A 
ATOM     21  C   UNL     1     -11.510   9.372  33.603  0.00  0.00    +0.204 A 
BRANCH  19   5
ATOM      5  O   UNL     1     -11.829   9.433  35.976  0.00  0.00    -0.491 OA
ATOM     22  C   UNL     1     -12.664   9.059  37.069  0.00  0.00    +0.277 C 
ENDBRANCH  19   5
BRANCH  20   6
ATOM      6  O   UNL     1     -11.229   9.269  31.227  0.00  0.00    -0.491 OA
ATOM     23  C   UNL     1     -12.026  10.078  30.363  0.00  0.00    +0.277 C 
ENDBRANCH  20   6
BRANCH  21   7
ATOM      7  O   UNL     1     -10.609  10.392  33.681  0.00  0.00    -0.488 OA
ATOM     24  C   UNL     1      -9.241  10.034  33.869  0.00  0.00    +0.277 C 
ENDBRANCH  21   7
ENDBRANCH  15  16
TORSDOF 6
ENDMDL
