MODEL 1
REMARK VINA RESULT:      -6.5      0.000      0.000
REMARK  Name = 26742540
REMARK  9 active torsions:
REMARK  status: ('A' for Active; 'I' for Inactive)
REMARK    1  A    between atoms: O_3  and  C_22
REMARK    2  A    between atoms: O_3  and  C_28
REMARK    3  A    between atoms: O_4  and  C_25
REMARK    4  A    between atoms: O_4  and  C_29
REMARK    5  A    between atoms: N_6  and  C_17
REMARK    6  A    between atoms: N_7  and  C_21
REMARK    7  A    between atoms: C_17  and  C_19
REMARK    8  A    between atoms: C_19  and  C_20
REMARK    9  A    between atoms: C_21  and  C_24
REMARK                            x       y       z     vdW  Elec       q    Type
REMARK                         _______ _______ _______ _____ _____    ______ ____
ROOT
ATOM      1  O   UNL     1      -1.485 -10.250  14.761  0.00  0.00    -0.276 OA
ATOM      2  O   UNL     1      -7.475 -11.616  20.088  0.00  0.00    -0.253 OA
ATOM      5  N   UNL     1      -6.162 -11.925  18.196  0.00  0.00    -0.285 N 
ATOM      6  N   UNL     1      -2.578 -12.248  14.315  0.00  0.00    -0.301 N 
ATOM      7  N   UNL     1      -7.831 -13.487  18.810  0.00  0.00    -0.300 N 
ATOM      8  C   UNL     1      -5.461 -11.931  15.795  0.00  0.00    +0.011 C 
ATOM      9  C   UNL     1      -4.612 -10.663  16.032  0.00  0.00    +0.004 C 
ATOM     10  C   UNL     1      -5.261  -9.856  17.171  0.00  0.00    +0.023 C 
ATOM     11  C   UNL     1      -5.662 -12.753  17.085  0.00  0.00    +0.113 C 
ATOM     12  C   UNL     1      -4.973 -12.806  14.627  0.00  0.00    +0.024 C 
ATOM     13  C   UNL     1      -3.130 -10.942  16.336  0.00  0.00    +0.100 C 
ATOM     14  C   UNL     1      -5.423 -10.684  18.441  0.00  0.00    +0.109 C 
ATOM     15  C   UNL     1      -3.527 -13.283  14.726  0.00  0.00    +0.108 C 
ATOM     16  C   UNL     1      -2.315 -11.108  15.068  0.00  0.00    +0.216 C 
ATOM     18  C   UNL     1      -7.178 -12.294  19.098  0.00  0.00    +0.302 C 
ATOM     30  H   UNL     1      -7.623 -14.026  17.982  0.00  0.00    +0.150 HD
ENDROOT
BRANCH   7  21
ATOM     21  C   UNL     1      -8.891 -14.007  19.645  0.00  0.00    +0.102 C 
ATOM     24  C   UNL     1      -9.629 -15.140  18.964  0.00  0.00    +0.024 C 
ENDBRANCH   7  21
BRANCH   6  17
ATOM     17  C   UNL     1      -1.900 -12.453  13.041  0.00  0.00    +0.112 C 
BRANCH  17  19
ATOM     19  C   UNL     1      -2.873 -12.709  11.893  0.00  0.00    +0.058 C 
BRANCH  19  20
ATOM     20  C   UNL     1      -3.176 -11.467  11.093  0.00  0.00    -0.001 A 
ATOM     22  C   UNL     1      -4.238 -11.442  10.189  0.00  0.00    +0.165 A 
ATOM     23  C   UNL     1      -2.381 -10.334  11.266  0.00  0.00    +0.007 A 
ATOM     25  C   UNL     1      -4.505 -10.284   9.458  0.00  0.00    +0.162 A 
ATOM     26  C   UNL     1      -2.648  -9.176  10.535  0.00  0.00    +0.004 A 
ATOM     27  C   UNL     1      -3.710  -9.151   9.631  0.00  0.00    +0.049 A 
BRANCH  22   3
ATOM      3  O   UNL     1      -5.019 -12.547  10.017  0.00  0.00    -0.491 OA
ATOM     28  C   UNL     1      -6.243 -12.594  10.746  0.00  0.00    +0.277 C 
ENDBRANCH  22   3
BRANCH  25   4
ATOM      4  O   UNL     1      -5.539 -10.246   8.572  0.00  0.00    -0.491 OA
ATOM     29  C   UNL     1      -5.207 -10.311   7.186  0.00  0.00    +0.277 C 
ENDBRANCH  25   4
ENDBRANCH  19  20
ENDBRANCH  17  19
ENDBRANCH   6  17
TORSDOF 6
ENDMDL
MODEL 2
REMARK VINA RESULT:      -6.5      6.217      9.059
REMARK  Name = 26742540
REMARK  9 active torsions:
REMARK  status: ('A' for Active; 'I' for Inactive)
REMARK    1  A    between atoms: O_3  and  C_22
REMARK    2  A    between atoms: O_3  and  C_28
REMARK    3  A    between atoms: O_4  and  C_25
REMARK    4  A    between atoms: O_4  and  C_29
REMARK    5  A    between atoms: N_6  and  C_17
REMARK    6  A    between atoms: N_7  and  C_21
REMARK    7  A    between atoms: C_17  and  C_19
REMARK    8  A    between atoms: C_19  and  C_20
REMARK    9  A    between atoms: C_21  and  C_24
REMARK                            x       y       z     vdW  Elec       q    Type
REMARK                         _______ _______ _______ _____ _____    ______ ____
ROOT
ATOM      1  O   UNL     1     -11.232 -11.651  17.413  0.00  0.00    -0.276 OA
ATOM      2  O   UNL     1     -14.360  -5.420  13.228  0.00  0.00    -0.253 OA
ATOM      5  N   UNL     1     -12.789  -6.630  14.439  0.00  0.00    -0.285 N 
ATOM      6  N   UNL     1      -9.617 -10.054  16.936  0.00  0.00    -0.301 N 
ATOM      7  N   UNL     1     -12.232  -4.582  13.392  0.00  0.00    -0.300 N 
ATOM      8  C   UNL     1     -11.323  -7.346  16.335  0.00  0.00    +0.011 C 
ATOM      9  C   UNL     1     -12.288  -8.509  16.651  0.00  0.00    +0.004 C 
ATOM     10  C   UNL     1     -13.705  -8.090  16.220  0.00  0.00    +0.023 C 
ATOM     11  C   UNL     1     -11.403  -6.901  14.860  0.00  0.00    +0.113 C 
ATOM     12  C   UNL     1      -9.871  -7.592  16.781  0.00  0.00    +0.024 C 
ATOM     13  C   UNL     1     -11.896  -9.849  16.006  0.00  0.00    +0.100 C 
ATOM     14  C   UNL     1     -13.760  -7.680  14.752  0.00  0.00    +0.109 C 
ATOM     15  C   UNL     1      -9.215  -8.846  16.212  0.00  0.00    +0.108 C 
ATOM     16  C   UNL     1     -10.890 -10.609  16.849  0.00  0.00    +0.216 C 
ATOM     18  C   UNL     1     -13.207  -5.535  13.658  0.00  0.00    +0.302 C 
ATOM     30  H   UNL     1     -11.300  -4.647  13.773  0.00  0.00    +0.150 HD
ENDROOT
BRANCH   7  21
ATOM     21  C   UNL     1     -12.502  -3.404  12.597  0.00  0.00    +0.102 C 
ATOM     24  C   UNL     1     -12.114  -3.611  11.148  0.00  0.00    +0.024 C 
ENDBRANCH   7  21
BRANCH   6  17
ATOM     17  C   UNL     1      -8.607 -10.671  17.785  0.00  0.00    +0.112 C 
BRANCH  17  19
ATOM     19  C   UNL     1      -7.442  -9.733  18.088  0.00  0.00    +0.058 C 
BRANCH  19  20
ATOM     20  C   UNL     1      -6.104 -10.428  18.057  0.00  0.00    -0.001 A 
ATOM     22  C   UNL     1      -5.249 -10.282  16.964  0.00  0.00    +0.165 A 
ATOM     23  C   UNL     1      -5.724 -11.223  19.138  0.00  0.00    +0.007 A 
ATOM     25  C   UNL     1      -4.014 -10.931  16.953  0.00  0.00    +0.162 A 
ATOM     26  C   UNL     1      -4.490 -11.873  19.126  0.00  0.00    +0.004 A 
ATOM     27  C   UNL     1      -3.634 -11.727  18.034  0.00  0.00    +0.049 A 
BRANCH  22   3
ATOM      3  O   UNL     1      -5.616  -9.505  15.905  0.00  0.00    -0.491 OA
ATOM     28  C   UNL     1      -6.121 -10.177  14.754  0.00  0.00    +0.277 C 
ENDBRANCH  22   3
BRANCH  25   4
ATOM      4  O   UNL     1      -3.170 -10.797  15.892  0.00  0.00    -0.491 OA
ATOM     29  C   UNL     1      -1.778 -10.681  16.183  0.00  0.00    +0.277 C 
ENDBRANCH  25   4
ENDBRANCH  19  20
ENDBRANCH  17  19
ENDBRANCH   6  17
TORSDOF 6
ENDMDL
MODEL 3
REMARK VINA RESULT:      -6.4     22.894     26.886
REMARK  Name = 26742540
REMARK  9 active torsions:
REMARK  status: ('A' for Active; 'I' for Inactive)
REMARK    1  A    between atoms: O_3  and  C_22
REMARK    2  A    between atoms: O_3  and  C_28
REMARK    3  A    between atoms: O_4  and  C_25
REMARK    4  A    between atoms: O_4  and  C_29
REMARK    5  A    between atoms: N_6  and  C_17
REMARK    6  A    between atoms: N_7  and  C_21
REMARK    7  A    between atoms: C_17  and  C_19
REMARK    8  A    between atoms: C_19  and  C_20
REMARK    9  A    between atoms: C_21  and  C_24
REMARK                            x       y       z     vdW  Elec       q    Type
REMARK                         _______ _______ _______ _____ _____    ______ ____
ROOT
ATOM      1  O   UNL     1      12.476   6.964   4.750  0.00  0.00    -0.276 OA
ATOM      2  O   UNL     1      13.233   2.919  -2.264  0.00  0.00    -0.253 OA
ATOM      5  N   UNL     1      12.221   4.216  -0.623  0.00  0.00    -0.285 N 
ATOM      6  N   UNL     1      10.684   7.378   3.334  0.00  0.00    -0.301 N 
ATOM      7  N   UNL     1      11.195   3.864  -2.727  0.00  0.00    -0.300 N 
ATOM      8  C   UNL     1      10.707   4.869   1.258  0.00  0.00    +0.011 C 
ATOM      9  C   UNL     1      11.877   4.729   2.257  0.00  0.00    +0.004 C 
ATOM     10  C   UNL     1      12.852   3.671   1.711  0.00  0.00    +0.023 C 
ATOM     11  C   UNL     1      11.192   5.171  -0.175  0.00  0.00    +0.113 C 
ATOM     12  C   UNL     1       9.608   5.846   1.709  0.00  0.00    +0.024 C 
ATOM     13  C   UNL     1      12.613   6.046   2.557  0.00  0.00    +0.100 C 
ATOM     14  C   UNL     1      13.335   4.007   0.304  0.00  0.00    +0.109 C 
ATOM     15  C   UNL     1      10.075   7.267   2.007  0.00  0.00    +0.108 C 
ATOM     16  C   UNL     1      11.927   6.839   3.652  0.00  0.00    +0.216 C 
ATOM     18  C   UNL     1      12.281   3.616  -1.896  0.00  0.00    +0.302 C 
ATOM     30  H   UNL     1      10.395   4.398  -2.420  0.00  0.00    +0.150 HD
ENDROOT
BRANCH   7  21
ATOM     21  C   UNL     1      11.111   3.326  -4.067  0.00  0.00    +0.102 C 
ATOM     24  C   UNL     1       9.677   3.253  -4.547  0.00  0.00    +0.024 C 
ENDBRANCH   7  21
BRANCH   6  17
ATOM     17  C   UNL     1       9.915   8.090   4.346  0.00  0.00    +0.112 C 
BRANCH  17  19
ATOM     19  C   UNL     1       8.716   7.287   4.843  0.00  0.00    +0.058 C 
BRANCH  19  20
ATOM     20  C   UNL     1       9.092   6.230   5.851  0.00  0.00    -0.001 A 
ATOM     22  C   UNL     1       8.958   6.468   7.218  0.00  0.00    +0.165 A 
ATOM     23  C   UNL     1       9.578   5.002   5.400  0.00  0.00    +0.007 A 
ATOM     25  C   UNL     1       9.310   5.477   8.136  0.00  0.00    +0.162 A 
ATOM     26  C   UNL     1       9.930   4.012   6.318  0.00  0.00    +0.004 A 
ATOM     27  C   UNL     1       9.796   4.249   7.686  0.00  0.00    +0.049 A 
BRANCH  22   3
ATOM      3  O   UNL     1       8.483   7.666   7.663  0.00  0.00    -0.491 OA
ATOM     28  C   UNL     1       9.447   8.672   7.965  0.00  0.00    +0.277 C 
ENDBRANCH  22   3
BRANCH  25   4
ATOM      4  O   UNL     1       9.185   5.696   9.475  0.00  0.00    -0.491 OA
ATOM     29  C   UNL     1       8.902   4.562  10.293  0.00  0.00    +0.277 C 
ENDBRANCH  25   4
ENDBRANCH  19  20
ENDBRANCH  17  19
ENDBRANCH   6  17
TORSDOF 6
ENDMDL
MODEL 4
REMARK VINA RESULT:      -6.2      5.031      8.576
REMARK  Name = 26742540
REMARK  9 active torsions:
REMARK  status: ('A' for Active; 'I' for Inactive)
REMARK    1  A    between atoms: O_3  and  C_22
REMARK    2  A    between atoms: O_3  and  C_28
REMARK    3  A    between atoms: O_4  and  C_25
REMARK    4  A    between atoms: O_4  and  C_29
REMARK    5  A    between atoms: N_6  and  C_17
REMARK    6  A    between atoms: N_7  and  C_21
REMARK    7  A    between atoms: C_17  and  C_19
REMARK    8  A    between atoms: C_19  and  C_20
REMARK    9  A    between atoms: C_21  and  C_24
REMARK                            x       y       z     vdW  Elec       q    Type
REMARK                         _______ _______ _______ _____ _____    ______ ____
ROOT
ATOM      1  O   UNL     1      -8.908 -11.062  19.995  0.00  0.00    -0.276 OA
ATOM      2  O   UNL     1      -1.650 -10.928  16.330  0.00  0.00    -0.253 OA
ATOM      5  N   UNL     1      -3.964 -10.866  16.531  0.00  0.00    -0.285 N 
ATOM      6  N   UNL     1      -9.097 -10.469  17.759  0.00  0.00    -0.301 N 
ATOM      7  N   UNL     1      -2.890 -10.404  14.472  0.00  0.00    -0.300 N 
ATOM      8  C   UNL     1      -6.357 -11.585  16.400  0.00  0.00    +0.011 C 
ATOM      9  C   UNL     1      -6.352 -11.898  17.913  0.00  0.00    +0.004 C 
ATOM     10  C   UNL     1      -4.921 -12.292  18.319  0.00  0.00    +0.023 C 
ATOM     11  C   UNL     1      -5.302 -10.525  16.017  0.00  0.00    +0.113 C 
ATOM     12  C   UNL     1      -7.745 -11.244  15.831  0.00  0.00    +0.024 C 
ATOM     13  C   UNL     1      -6.874 -10.752  18.796  0.00  0.00    +0.100 C 
ATOM     14  C   UNL     1      -3.904 -11.216  17.951  0.00  0.00    +0.109 C 
ATOM     15  C   UNL     1      -8.459 -10.075  16.502  0.00  0.00    +0.108 C 
ATOM     16  C   UNL     1      -8.386 -10.774  18.915  0.00  0.00    +0.216 C 
ATOM     18  C   UNL     1      -2.758 -10.748  15.813  0.00  0.00    +0.302 C 
ATOM     30  H   UNL     1      -3.791 -10.295  14.033  0.00  0.00    +0.150 HD
ENDROOT
BRANCH   7  21
ATOM     21  C   UNL     1      -1.745 -10.236  13.604  0.00  0.00    +0.102 C 
ATOM     24  C   UNL     1      -2.090 -10.554  12.164  0.00  0.00    +0.024 C 
ENDBRANCH   7  21
BRANCH   6  17
ATOM     17  C   UNL     1     -10.553 -10.541  17.757  0.00  0.00    +0.112 C 
BRANCH  17  19
ATOM     19  C   UNL     1     -11.202  -9.278  18.315  0.00  0.00    +0.058 C 
BRANCH  19  20
ATOM     20  C   UNL     1     -11.583  -8.288  17.242  0.00  0.00    -0.001 A 
ATOM     22  C   UNL     1     -12.781  -8.421  16.541  0.00  0.00    +0.165 A 
ATOM     23  C   UNL     1     -10.719  -7.231  16.954  0.00  0.00    +0.007 A 
ATOM     25  C   UNL     1     -13.117  -7.495  15.552  0.00  0.00    +0.162 A 
ATOM     26  C   UNL     1     -11.055  -6.306  15.965  0.00  0.00    +0.004 A 
ATOM     27  C   UNL     1     -12.254  -6.438  15.264  0.00  0.00    +0.049 A 
BRANCH  22   3
ATOM      3  O   UNL     1     -13.628  -9.452  16.820  0.00  0.00    -0.491 OA
ATOM     28  C   UNL     1     -14.665  -9.201  17.765  0.00  0.00    +0.277 C 
ENDBRANCH  22   3
BRANCH  25   4
ATOM      4  O   UNL     1     -14.285  -7.612  14.860  0.00  0.00    -0.491 OA
ATOM     29  C   UNL     1     -15.250  -6.577  15.038  0.00  0.00    +0.277 C 
ENDBRANCH  25   4
ENDBRANCH  19  20
ENDBRANCH  17  19
ENDBRANCH   6  17
TORSDOF 6
ENDMDL
MODEL 5
REMARK VINA RESULT:      -6.2      3.048      5.239
REMARK  Name = 26742540
REMARK  9 active torsions:
REMARK  status: ('A' for Active; 'I' for Inactive)
REMARK    1  A    between atoms: O_3  and  C_22
REMARK    2  A    between atoms: O_3  and  C_28
REMARK    3  A    between atoms: O_4  and  C_25
REMARK    4  A    between atoms: O_4  and  C_29
REMARK    5  A    between atoms: N_6  and  C_17
REMARK    6  A    between atoms: N_7  and  C_21
REMARK    7  A    between atoms: C_17  and  C_19
REMARK    8  A    between atoms: C_19  and  C_20
REMARK    9  A    between atoms: C_21  and  C_24
REMARK                            x       y       z     vdW  Elec       q    Type
REMARK                         _______ _______ _______ _____ _____    ______ ____
ROOT
ATOM      1  O   UNL     1      -6.670  -9.291  16.539  0.00  0.00    -0.276 OA
ATOM      2  O   UNL     1     -13.481 -11.860  20.163  0.00  0.00    -0.253 OA
ATOM      5  N   UNL     1     -11.206 -11.693  19.723  0.00  0.00    -0.285 N 
ATOM      6  N   UNL     1      -6.201 -10.564  18.422  0.00  0.00    -0.301 N 
ATOM      7  N   UNL     1     -12.018 -12.908  21.586  0.00  0.00    -0.300 N 
ATOM      8  C   UNL     1      -8.916 -12.293  18.916  0.00  0.00    +0.011 C 
ATOM      9  C   UNL     1      -9.100 -11.374  17.688  0.00  0.00    +0.004 C 
ATOM     10  C   UNL     1     -10.601 -11.320  17.349  0.00  0.00    +0.023 C 
ATOM     11  C   UNL     1      -9.794 -11.862  20.109  0.00  0.00    +0.113 C 
ATOM     12  C   UNL     1      -7.449 -12.504  19.330  0.00  0.00    +0.024 C 
ATOM     13  C   UNL     1      -8.530  -9.957  17.868  0.00  0.00    +0.100 C 
ATOM     14  C   UNL     1     -11.441 -10.866  18.537  0.00  0.00    +0.109 C 
ATOM     15  C   UNL     1      -6.666 -11.232  19.639  0.00  0.00    +0.108 C 
ATOM     16  C   UNL     1      -7.050  -9.898  17.543  0.00  0.00    +0.216 C 
ATOM     18  C   UNL     1     -12.316 -12.136  20.468  0.00  0.00    +0.302 C 
ATOM     30  H   UNL     1     -11.073 -13.172  21.819  0.00  0.00    +0.150 HD
ENDROOT
BRANCH   7  21
ATOM     21  C   UNL     1     -13.047 -13.431  22.457  0.00  0.00    +0.102 C 
ATOM     24  C   UNL     1     -12.474 -13.882  23.784  0.00  0.00    +0.024 C 
ENDBRANCH   7  21
BRANCH   6  17
ATOM     17  C   UNL     1      -4.771 -10.628  18.148  0.00  0.00    +0.112 C 
BRANCH  17  19
ATOM     19  C   UNL     1      -4.421 -11.683  17.103  0.00  0.00    +0.058 C 
BRANCH  19  20
ATOM     20  C   UNL     1      -3.495 -11.165  16.031  0.00  0.00    -0.001 A 
ATOM     22  C   UNL     1      -3.922 -11.062  14.707  0.00  0.00    +0.165 A 
ATOM     23  C   UNL     1      -2.199 -10.785  16.377  0.00  0.00    +0.007 A 
ATOM     25  C   UNL     1      -3.052 -10.579  13.729  0.00  0.00    +0.162 A 
ATOM     26  C   UNL     1      -1.329 -10.302  15.399  0.00  0.00    +0.004 A 
ATOM     27  C   UNL     1      -1.755 -10.199  14.075  0.00  0.00    +0.049 A 
BRANCH  22   3
ATOM      3  O   UNL     1      -5.189 -11.432  14.364  0.00  0.00    -0.491 OA
ATOM     28  C   UNL     1      -5.367 -12.763  13.886  0.00  0.00    +0.277 C 
ENDBRANCH  22   3
BRANCH  25   4
ATOM      4  O   UNL     1      -3.456 -10.474  12.432  0.00  0.00    -0.491 OA
ATOM     29  C   UNL     1      -2.449 -10.195  11.461  0.00  0.00    +0.277 C 
ENDBRANCH  25   4
ENDBRANCH  19  20
ENDBRANCH  17  19
ENDBRANCH   6  17
TORSDOF 6
ENDMDL
MODEL 6
REMARK VINA RESULT:      -6.1      4.205      7.644
REMARK  Name = 26742540
REMARK  9 active torsions:
REMARK  status: ('A' for Active; 'I' for Inactive)
REMARK    1  A    between atoms: O_3  and  C_22
REMARK    2  A    between atoms: O_3  and  C_28
REMARK    3  A    between atoms: O_4  and  C_25
REMARK    4  A    between atoms: O_4  and  C_29
REMARK    5  A    between atoms: N_6  and  C_17
REMARK    6  A    between atoms: N_7  and  C_21
REMARK    7  A    between atoms: C_17  and  C_19
REMARK    8  A    between atoms: C_19  and  C_20
REMARK    9  A    between atoms: C_21  and  C_24
REMARK                            x       y       z     vdW  Elec       q    Type
REMARK                         _______ _______ _______ _____ _____    ______ ____
ROOT
ATOM      1  O   UNL     1      -5.248 -10.033   6.761  0.00  0.00    -0.276 OA
ATOM      2  O   UNL     1      -1.751 -10.724  14.071  0.00  0.00    -0.253 OA
ATOM      5  N   UNL     1      -3.436 -10.350  12.514  0.00  0.00    -0.285 N 
ATOM      6  N   UNL     1      -6.823  -9.971   8.465  0.00  0.00    -0.301 N 
ATOM      7  N   UNL     1      -3.900 -10.476  14.832  0.00  0.00    -0.300 N 
ATOM      8  C   UNL     1      -5.112  -9.138  11.107  0.00  0.00    +0.011 C 
ATOM      9  C   UNL     1      -4.170  -9.238   9.887  0.00  0.00    +0.004 C 
ATOM     10  C   UNL     1      -2.719  -9.271  10.401  0.00  0.00    +0.023 C 
ATOM     11  C   UNL     1      -4.857 -10.258  12.138  0.00  0.00    +0.113 C 
ATOM     12  C   UNL     1      -6.602  -9.021  10.745  0.00  0.00    +0.024 C 
ATOM     13  C   UNL     1      -4.451 -10.438   8.968  0.00  0.00    +0.100 C 
ATOM     14  C   UNL     1      -2.489 -10.402  11.398  0.00  0.00    +0.109 C 
ATOM     15  C   UNL     1      -7.156 -10.149   9.879  0.00  0.00    +0.108 C 
ATOM     16  C   UNL     1      -5.538 -10.132   7.956  0.00  0.00    +0.216 C 
ATOM     18  C   UNL     1      -2.946 -10.528  13.823  0.00  0.00    +0.302 C 
ATOM     30  H   UNL     1      -4.871 -10.276  14.643  0.00  0.00    +0.150 HD
ENDROOT
BRANCH   7  21
ATOM     21  C   UNL     1      -3.557 -10.648  16.227  0.00  0.00    +0.102 C 
ATOM     24  C   UNL     1      -4.711 -10.275  17.132  0.00  0.00    +0.024 C 
ENDBRANCH   7  21
BRANCH   6  17
ATOM     17  C   UNL     1      -7.918  -9.598   7.579  0.00  0.00    +0.112 C 
BRANCH  17  19
ATOM     19  C   UNL     1      -7.849  -8.136   7.145  0.00  0.00    +0.058 C 
BRANCH  19  20
ATOM     20  C   UNL     1      -8.250  -7.930   5.706  0.00  0.00    -0.001 A 
ATOM     22  C   UNL     1      -9.460  -7.315   5.383  0.00  0.00    +0.165 A 
ATOM     23  C   UNL     1      -7.395  -8.362   4.692  0.00  0.00    +0.007 A 
ATOM     25  C   UNL     1      -9.814  -7.131   4.046  0.00  0.00    +0.162 A 
ATOM     26  C   UNL     1      -7.749  -8.179   3.356  0.00  0.00    +0.004 A 
ATOM     27  C   UNL     1      -8.959  -7.563   3.032  0.00  0.00    +0.049 A 
BRANCH  22   3
ATOM      3  O   UNL     1     -10.299  -6.890   6.371  0.00  0.00    -0.491 OA
ATOM     28  C   UNL     1     -11.339  -7.782   6.763  0.00  0.00    +0.277 C 
ENDBRANCH  22   3
BRANCH  25   4
ATOM      4  O   UNL     1     -10.992  -6.532   3.716  0.00  0.00    -0.491 OA
ATOM     29  C   UNL     1     -11.925  -7.306   2.965  0.00  0.00    +0.277 C 
ENDBRANCH  25   4
ENDBRANCH  19  20
ENDBRANCH  17  19
ENDBRANCH   6  17
TORSDOF 6
ENDMDL
MODEL 7
REMARK VINA RESULT:      -5.9      7.312     10.441
REMARK  Name = 26742540
REMARK  9 active torsions:
REMARK  status: ('A' for Active; 'I' for Inactive)
REMARK    1  A    between atoms: O_3  and  C_22
REMARK    2  A    between atoms: O_3  and  C_28
REMARK    3  A    between atoms: O_4  and  C_25
REMARK    4  A    between atoms: O_4  and  C_29
REMARK    5  A    between atoms: N_6  and  C_17
REMARK    6  A    between atoms: N_7  and  C_21
REMARK    7  A    between atoms: C_17  and  C_19
REMARK    8  A    between atoms: C_19  and  C_20
REMARK    9  A    between atoms: C_21  and  C_24
REMARK                            x       y       z     vdW  Elec       q    Type
REMARK                         _______ _______ _______ _____ _____    ______ ____
ROOT
ATOM      1  O   UNL     1     -12.407  -9.960  17.730  0.00  0.00    -0.276 OA
ATOM      2  O   UNL     1     -15.710  -4.966  12.227  0.00  0.00    -0.253 OA
ATOM      5  N   UNL     1     -14.088  -5.846  13.639  0.00  0.00    -0.285 N 
ATOM      6  N   UNL     1     -10.813  -8.558  16.792  0.00  0.00    -0.301 N 
ATOM      7  N   UNL     1     -13.575  -4.140  12.081  0.00  0.00    -0.300 N 
ATOM      8  C   UNL     1     -12.541  -6.072  15.592  0.00  0.00    +0.011 C 
ATOM      9  C   UNL     1     -13.492  -7.104  16.235  0.00  0.00    +0.004 C 
ATOM     10  C   UNL     1     -14.927  -6.792  15.772  0.00  0.00    +0.023 C 
ATOM     11  C   UNL     1     -12.685  -6.017  14.057  0.00  0.00    +0.113 C 
ATOM     12  C   UNL     1     -11.072  -6.214  16.025  0.00  0.00    +0.024 C 
ATOM     13  C   UNL     1     -13.130  -8.569  15.938  0.00  0.00    +0.100 C 
ATOM     14  C   UNL     1     -15.046  -6.770  14.252  0.00  0.00    +0.109 C 
ATOM     15  C   UNL     1     -10.442  -7.580  15.768  0.00  0.00    +0.108 C 
ATOM     16  C   UNL     1     -12.089  -9.101  16.904  0.00  0.00    +0.216 C 
ATOM     18  C   UNL     1     -14.539  -4.981  12.623  0.00  0.00    +0.302 C 
ATOM     30  H   UNL     1     -12.628  -4.117  12.427  0.00  0.00    +0.150 HD
ENDROOT
BRANCH   7  21
ATOM     21  C   UNL     1     -13.879  -3.200  11.024  0.00  0.00    +0.102 C 
ATOM     24  C   UNL     1     -13.144  -3.546   9.746  0.00  0.00    +0.024 C 
ENDBRANCH   7  21
BRANCH   6  17
ATOM     17  C   UNL     1      -9.768  -8.950  17.728  0.00  0.00    +0.112 C 
BRANCH  17  19
ATOM     19  C   UNL     1      -9.175 -10.319  17.405  0.00  0.00    +0.058 C 
BRANCH  19  20
ATOM     20  C   UNL     1      -7.667 -10.324  17.414  0.00  0.00    -0.001 A 
ATOM     22  C   UNL     1      -6.961 -10.788  18.524  0.00  0.00    +0.165 A 
ATOM     23  C   UNL     1      -6.978  -9.858  16.294  0.00  0.00    +0.007 A 
ATOM     25  C   UNL     1      -5.566 -10.786  18.514  0.00  0.00    +0.162 A 
ATOM     26  C   UNL     1      -5.583  -9.856  16.284  0.00  0.00    +0.004 A 
ATOM     27  C   UNL     1      -4.877 -10.320  17.394  0.00  0.00    +0.049 A 
BRANCH  22   3
ATOM      3  O   UNL     1      -7.631 -11.244  19.621  0.00  0.00    -0.491 OA
ATOM     28  C   UNL     1      -7.832 -12.652  19.716  0.00  0.00    +0.277 C 
ENDBRANCH  22   3
BRANCH  25   4
ATOM      4  O   UNL     1      -4.864 -11.236  19.592  0.00  0.00    -0.491 OA
ATOM     29  C   UNL     1      -3.818 -12.172  19.338  0.00  0.00    +0.277 C 
ENDBRANCH  25   4
ENDBRANCH  19  20
ENDBRANCH  17  19
ENDBRANCH   6  17
TORSDOF 6
ENDMDL
MODEL 8
REMARK VINA RESULT:      -5.9      2.974      8.866
REMARK  Name = 26742540
REMARK  9 active torsions:
REMARK  status: ('A' for Active; 'I' for Inactive)
REMARK    1  A    between atoms: O_3  and  C_22
REMARK    2  A    between atoms: O_3  and  C_28
REMARK    3  A    between atoms: O_4  and  C_25
REMARK    4  A    between atoms: O_4  and  C_29
REMARK    5  A    between atoms: N_6  and  C_17
REMARK    6  A    between atoms: N_7  and  C_21
REMARK    7  A    between atoms: C_17  and  C_19
REMARK    8  A    between atoms: C_19  and  C_20
REMARK    9  A    between atoms: C_21  and  C_24
REMARK                            x       y       z     vdW  Elec       q    Type
REMARK                         _______ _______ _______ _____ _____    ______ ____
ROOT
ATOM      1  O   UNL     1      -2.077 -11.749  12.785  0.00  0.00    -0.276 OA
ATOM      2  O   UNL     1      -6.221  -9.780   6.071  0.00  0.00    -0.253 OA
ATOM      5  N   UNL     1      -5.809 -10.083   8.338  0.00  0.00    -0.285 N 
ATOM      6  N   UNL     1      -4.074 -10.685  13.302  0.00  0.00    -0.301 N 
ATOM      7  N   UNL     1      -7.777  -9.013   7.572  0.00  0.00    -0.300 N 
ATOM      8  C   UNL     1      -5.900 -11.071  10.634  0.00  0.00    +0.011 C 
ATOM      9  C   UNL     1      -4.517 -11.723  10.417  0.00  0.00    +0.004 C 
ATOM     10  C   UNL     1      -4.347 -12.001   8.912  0.00  0.00    +0.023 C 
ATOM     11  C   UNL     1      -6.103  -9.818   9.757  0.00  0.00    +0.113 C 
ATOM     12  C   UNL     1      -6.244 -10.800  12.109  0.00  0.00    +0.024 C 
ATOM     13  C   UNL     1      -3.337 -10.895  10.955  0.00  0.00    +0.100 C 
ATOM     14  C   UNL     1      -4.528 -10.741   8.072  0.00  0.00    +0.109 C 
ATOM     15  C   UNL     1      -5.247  -9.927  12.865  0.00  0.00    +0.108 C 
ATOM     16  C   UNL     1      -3.095 -11.150  12.430  0.00  0.00    +0.216 C 
ATOM     18  C   UNL     1      -6.579  -9.638   7.246  0.00  0.00    +0.302 C 
ATOM     30  H   UNL     1      -8.096  -8.929   8.526  0.00  0.00    +0.150 HD
ENDROOT
BRANCH   7  21
ATOM     21  C   UNL     1      -8.674  -8.494   6.564  0.00  0.00    +0.102 C 
ATOM     24  C   UNL     1      -8.822  -6.991   6.674  0.00  0.00    +0.024 C 
ENDBRANCH   7  21
BRANCH   6  17
ATOM     17  C   UNL     1      -3.965 -10.952  14.731  0.00  0.00    +0.112 C 
BRANCH  17  19
ATOM     19  C   UNL     1      -5.146 -10.395  15.522  0.00  0.00    +0.058 C 
BRANCH  19  20
ATOM     20  C   UNL     1      -5.169 -10.868  16.954  0.00  0.00    -0.001 A 
ATOM     22  C   UNL     1      -6.360 -10.887  17.680  0.00  0.00    +0.165 A 
ATOM     23  C   UNL     1      -3.981 -11.289  17.551  0.00  0.00    +0.007 A 
ATOM     25  C   UNL     1      -6.362 -11.328  19.004  0.00  0.00    +0.162 A 
ATOM     26  C   UNL     1      -3.984 -11.730  18.875  0.00  0.00    +0.004 A 
ATOM     27  C   UNL     1      -5.175 -11.750  19.601  0.00  0.00    +0.049 A 
BRANCH  22   3
ATOM      3  O   UNL     1      -7.524 -10.475  17.100  0.00  0.00    -0.491 OA
ATOM     28  C   UNL     1      -7.964  -9.154  17.402  0.00  0.00    +0.277 C 
ENDBRANCH  22   3
BRANCH  25   4
ATOM      4  O   UNL     1      -7.518 -11.352  19.725  0.00  0.00    -0.491 OA
ATOM     29  C   UNL     1      -8.207 -12.598  19.803  0.00  0.00    +0.277 C 
ENDBRANCH  25   4
ENDBRANCH  19  20
ENDBRANCH  17  19
ENDBRANCH   6  17
TORSDOF 6
ENDMDL
MODEL 9
REMARK VINA RESULT:      -5.8     28.080     30.779
REMARK  Name = 26742540
REMARK  9 active torsions:
REMARK  status: ('A' for Active; 'I' for Inactive)
REMARK    1  A    between atoms: O_3  and  C_22
REMARK    2  A    between atoms: O_3  and  C_28
REMARK    3  A    between atoms: O_4  and  C_25
REMARK    4  A    between atoms: O_4  and  C_29
REMARK    5  A    between atoms: N_6  and  C_17
REMARK    6  A    between atoms: N_7  and  C_21
REMARK    7  A    between atoms: C_17  and  C_19
REMARK    8  A    between atoms: C_19  and  C_20
REMARK    9  A    between atoms: C_21  and  C_24
REMARK                            x       y       z     vdW  Elec       q    Type
REMARK                         _______ _______ _______ _____ _____    ______ ____
ROOT
ATOM      1  O   UNL     1      17.762  10.454  21.654  0.00  0.00    -0.276 OA
ATOM      2  O   UNL     1      24.577   6.081  20.897  0.00  0.00    -0.253 OA
ATOM      5  N   UNL     1      22.296   6.518  21.002  0.00  0.00    -0.285 N 
ATOM      6  N   UNL     1      17.304   8.274  21.001  0.00  0.00    -0.301 N 
ATOM      7  N   UNL     1      23.119   4.382  20.398  0.00  0.00    -0.300 N 
ATOM      8  C   UNL     1      19.956   6.601  21.879  0.00  0.00    +0.011 C 
ATOM      9  C   UNL     1      20.137   8.092  22.241  0.00  0.00    +0.004 C 
ATOM     10  C   UNL     1      21.626   8.335  22.549  0.00  0.00    +0.023 C 
ATOM     11  C   UNL     1      20.893   6.156  20.737  0.00  0.00    +0.113 C 
ATOM     12  C   UNL     1      18.497   6.190  21.616  0.00  0.00    +0.024 C 
ATOM     13  C   UNL     1      19.636   9.069  21.164  0.00  0.00    +0.100 C 
ATOM     14  C   UNL     1      22.527   7.910  21.394  0.00  0.00    +0.109 C 
ATOM     15  C   UNL     1      17.781   6.976  20.522  0.00  0.00    +0.108 C 
ATOM     16  C   UNL     1      18.149   9.339  21.295  0.00  0.00    +0.216 C 
ATOM     18  C   UNL     1      23.411   5.687  20.776  0.00  0.00    +0.302 C 
ATOM     30  H   UNL     1      22.172   4.040  20.337  0.00  0.00    +0.150 HD
ENDROOT
BRANCH   7  21
ATOM     21  C   UNL     1      24.154   3.410  20.122  0.00  0.00    +0.102 C 
ATOM     24  C   UNL     1      23.834   2.067  20.745  0.00  0.00    +0.024 C 
ENDBRANCH   7  21
BRANCH   6  17
ATOM     17  C   UNL     1      15.864   8.416  21.173  0.00  0.00    +0.112 C 
BRANCH  17  19
ATOM     19  C   UNL     1      15.076   7.338  20.435  0.00  0.00    +0.058 C 
BRANCH  19  20
ATOM     20  C   UNL     1      13.642   7.728  20.179  0.00  0.00    -0.001 A 
ATOM     22  C   UNL     1      13.271   8.338  18.980  0.00  0.00    +0.165 A 
ATOM     23  C   UNL     1      12.681   7.471  21.157  0.00  0.00    +0.007 A 
ATOM     25  C   UNL     1      11.939   8.691  18.760  0.00  0.00    +0.162 A 
ATOM     26  C   UNL     1      11.350   7.825  20.937  0.00  0.00    +0.004 A 
ATOM     27  C   UNL     1      10.978   8.435  19.739  0.00  0.00    +0.049 A 
BRANCH  22   3
ATOM      3  O   UNL     1      14.207   8.590  18.021  0.00  0.00    -0.491 OA
ATOM     28  C   UNL     1      14.325   7.638  16.967  0.00  0.00    +0.277 C 
ENDBRANCH  22   3
BRANCH  25   4
ATOM      4  O   UNL     1      11.563   9.288  17.594  0.00  0.00    -0.491 OA
ATOM     29  C   UNL     1      10.737   8.527  16.715  0.00  0.00    +0.277 C 
ENDBRANCH  25   4
ENDBRANCH  19  20
ENDBRANCH  17  19
ENDBRANCH   6  17
TORSDOF 6
ENDMDL
MODEL 10
REMARK VINA RESULT:      -5.7     25.302     27.356
REMARK  Name = 26742540
REMARK  9 active torsions:
REMARK  status: ('A' for Active; 'I' for Inactive)
REMARK    1  A    between atoms: O_3  and  C_22
REMARK    2  A    between atoms: O_3  and  C_28
REMARK    3  A    between atoms: O_4  and  C_25
REMARK    4  A    between atoms: O_4  and  C_29
REMARK    5  A    between atoms: N_6  and  C_17
REMARK    6  A    between atoms: N_7  and  C_21
REMARK    7  A    between atoms: C_17  and  C_19
REMARK    8  A    between atoms: C_19  and  C_20
REMARK    9  A    between atoms: C_21  and  C_24
REMARK                            x       y       z     vdW  Elec       q    Type
REMARK                         _______ _______ _______ _____ _____    ______ ____
ROOT
ATOM      1  O   UNL     1      10.123   5.863   0.399  0.00  0.00    -0.276 OA
ATOM      2  O   UNL     1       8.767  11.317   6.277  0.00  0.00    -0.253 OA
ATOM      5  N   UNL     1       9.322   9.273   5.319  0.00  0.00    -0.285 N 
ATOM      6  N   UNL     1      10.789   5.060   2.472  0.00  0.00    -0.301 N 
ATOM      7  N   UNL     1       9.584   9.662   7.640  0.00  0.00    -0.300 N 
ATOM      8  C   UNL     1       9.137   6.883   4.606  0.00  0.00    +0.011 C 
ATOM      9  C   UNL     1       8.800   7.331   3.167  0.00  0.00    +0.004 C 
ATOM     10  C   UNL     1       8.099   8.700   3.241  0.00  0.00    +0.023 C 
ATOM     11  C   UNL     1       9.953   7.943   5.375  0.00  0.00    +0.113 C 
ATOM     12  C   UNL     1       9.781   5.488   4.696  0.00  0.00    +0.024 C 
ATOM     13  C   UNL     1      10.013   7.390   2.222  0.00  0.00    +0.100 C 
ATOM     14  C   UNL     1       8.938   9.734   3.983  0.00  0.00    +0.109 C 
ATOM     15  C   UNL     1      11.062   5.304   3.890  0.00  0.00    +0.108 C 
ATOM     16  C   UNL     1      10.314   6.038   1.605  0.00  0.00    +0.216 C 
ATOM     18  C   UNL     1       9.193  10.163   6.403  0.00  0.00    +0.302 C 
ATOM     30  H   UNL     1       9.894   8.710   7.759  0.00  0.00    +0.150 HD
ENDROOT
BRANCH   7  21
ATOM     21  C   UNL     1       9.520  10.455   8.847  0.00  0.00    +0.102 C 
ATOM     24  C   UNL     1      10.873  11.037   9.202  0.00  0.00    +0.024 C 
ENDBRANCH   7  21
BRANCH   6  17
ATOM     17  C   UNL     1      11.032   3.708   1.985  0.00  0.00    +0.112 C 
BRANCH  17  19
ATOM     19  C   UNL     1      12.519   3.371   1.908  0.00  0.00    +0.058 C 
BRANCH  19  20
ATOM     20  C   UNL     1      13.115   3.650   0.550  0.00  0.00    -0.001 A 
ATOM     22  C   UNL     1      14.303   4.369   0.427  0.00  0.00    +0.165 A 
ATOM     23  C   UNL     1      12.463   3.179  -0.589  0.00  0.00    +0.007 A 
ATOM     25  C   UNL     1      14.841   4.616  -0.837  0.00  0.00    +0.162 A 
ATOM     26  C   UNL     1      12.999   3.426  -1.853  0.00  0.00    +0.004 A 
ATOM     27  C   UNL     1      14.189   4.145  -1.977  0.00  0.00    +0.049 A 
BRANCH  22   3
ATOM      3  O   UNL     1      14.944   4.831   1.538  0.00  0.00    -0.491 OA
ATOM     28  C   UNL     1      14.624   6.153   1.966  0.00  0.00    +0.277 C 
ENDBRANCH  22   3
BRANCH  25   4
ATOM      4  O   UNL     1      16.001   5.317  -0.973  0.00  0.00    -0.491 OA
ATOM     29  C   UNL     1      17.112   4.626  -1.541  0.00  0.00    +0.277 C 
ENDBRANCH  25   4
ENDBRANCH  19  20
ENDBRANCH  17  19
ENDBRANCH   6  17
TORSDOF 6
ENDMDL
