MODEL 1
REMARK VINA RESULT:      -6.8      0.000      0.000
REMARK  Name = 25313142
REMARK  9 active torsions:
REMARK  status: ('A' for Active; 'I' for Inactive)
REMARK    1  A    between atoms: O_5  and  C_24
REMARK    2  A    between atoms: N_9  and  C_17
REMARK    3  A    between atoms: C_11  and  C_15
REMARK    4  A    between atoms: C_12  and  C_18
REMARK    5  A    between atoms: C_15  and  C_17
REMARK    6  A    between atoms: C_18  and  C_24
REMARK    7  A    between atoms: C_21  and  C_25
REMARK    8  A    between atoms: C_26  and  C_29
REMARK    9  A    between atoms: C_32  and  C_33
REMARK                            x       y       z     vdW  Elec       q    Type
REMARK                         _______ _______ _______ _____ _____    ______ ____
ROOT
ATOM      4  O   UNL     1      11.142   9.763   5.689  0.00  0.00    -0.270 OA
ATOM      8  N   UNL     1       9.079   9.332   4.675  0.00  0.00    -0.297 N 
ATOM     11  C   UNL     1       8.259   8.237   2.601  0.00  0.00    +0.011 C 
ATOM     12  C   UNL     1       8.008   9.645   2.003  0.00  0.00    +0.006 C 
ATOM     13  C   UNL     1       8.183   8.298   4.137  0.00  0.00    +0.112 C 
ATOM     14  C   UNL     1       8.936  10.700   2.631  0.00  0.00    +0.023 C 
ATOM     16  C   UNL     1       8.845  10.678   4.155  0.00  0.00    +0.108 C 
ATOM     21  C   UNL     1      10.097   9.120   5.607  0.00  0.00    +0.247 C 
ENDROOT
BRANCH  21  25
ATOM     25  C   UNL     1       9.925   8.039   6.584  0.00  0.00    +0.037 A 
ATOM     27  C   UNL     1      10.692   6.878   6.483  0.00  0.00    +0.013 A 
ATOM     28  C   UNL     1       8.993   8.171   7.613  0.00  0.00    +0.013 A 
ATOM     30  C   UNL     1      10.528   5.851   7.412  0.00  0.00    +0.013 A 
ATOM     31  C   UNL     1       8.828   7.144   8.542  0.00  0.00    +0.013 A 
ATOM     32  C   UNL     1       9.596   5.983   8.440  0.00  0.00    +0.055 A 
BRANCH  32  33
ATOM      1  F   UNL     1       8.222   4.922  10.087  0.00  0.00    -0.166 F 
ATOM      2  F   UNL     1      10.371   4.904  10.412  0.00  0.00    -0.166 F 
ATOM      3  F   UNL     1       9.486   3.635   8.885  0.00  0.00    -0.166 F 
ATOM     33  C   UNL     1       9.420   4.884   9.434  0.00  0.00    +0.417 C 
ENDBRANCH  32  33
ENDBRANCH  21  25
BRANCH  11  15
ATOM     15  C   UNL     1       9.582   7.600   2.157  0.00  0.00    +0.020 C 
BRANCH  15  17
ATOM     17  C   UNL     1       9.782   6.246   2.822  0.00  0.00    +0.085 C 
BRANCH  17   9
ATOM      7  O   UNL     1      15.043   3.019   1.912  0.00  0.00    -0.276 OA
ATOM      9  N   UNL     1      10.693   5.429   2.022  0.00  0.00    -0.299 NA
ATOM     10  N   UNL     1      13.232   4.328   1.279  0.00  0.00    -0.299 N 
ATOM     19  C   UNL     1      11.707   6.271   1.370  0.00  0.00    +0.103 C 
ATOM     20  C   UNL     1      11.336   4.405   2.858  0.00  0.00    +0.103 C 
ATOM     22  C   UNL     1      12.646   5.428   0.505  0.00  0.00    +0.123 C 
ATOM     23  C   UNL     1      12.262   3.524   2.020  0.00  0.00    +0.123 C 
ATOM     26  C   UNL     1      14.573   3.949   1.251  0.00  0.00    +0.213 C 
ATOM     29  C   UNL     1      15.481   4.747   0.350  0.00  0.00    +0.109 C 
ENDBRANCH  17   9
ENDBRANCH  15  17
ENDBRANCH  11  15
BRANCH  12  18
ATOM     18  C   UNL     1       8.110   9.678   0.479  0.00  0.00    +0.124 C 
BRANCH  18  24
ATOM      6  O   UNL     1       6.570  10.253  -1.322  0.00  0.00    -0.251 OA
ATOM     24  C   UNL     1       6.771   9.923  -0.163  0.00  0.00    +0.305 C 
BRANCH  24   5
ATOM      5  O   UNL     1       5.784   9.722   0.747  0.00  0.00    -0.481 OA
ATOM     34  H   UNL     1       5.601  10.530   1.272  0.00  0.00    +0.295 HD
ENDBRANCH  24   5
ENDBRANCH  18  24
ENDBRANCH  12  18
TORSDOF 8
ENDMDL
MODEL 2
REMARK VINA RESULT:      -6.8     23.555     26.388
REMARK  Name = 25313142
REMARK  9 active torsions:
REMARK  status: ('A' for Active; 'I' for Inactive)
REMARK    1  A    between atoms: O_5  and  C_24
REMARK    2  A    between atoms: N_9  and  C_17
REMARK    3  A    between atoms: C_11  and  C_15
REMARK    4  A    between atoms: C_12  and  C_18
REMARK    5  A    between atoms: C_15  and  C_17
REMARK    6  A    between atoms: C_18  and  C_24
REMARK    7  A    between atoms: C_21  and  C_25
REMARK    8  A    between atoms: C_26  and  C_29
REMARK    9  A    between atoms: C_32  and  C_33
REMARK                            x       y       z     vdW  Elec       q    Type
REMARK                         _______ _______ _______ _____ _____    ______ ____
ROOT
ATOM      4  O   UNL     1      -8.484 -12.067  16.854  0.00  0.00    -0.270 OA
ATOM      8  N   UNL     1      -6.580 -10.710  16.900  0.00  0.00    -0.297 N 
ATOM     11  C   UNL     1      -4.698 -10.155  15.374  0.00  0.00    +0.011 C 
ATOM     12  C   UNL     1      -3.788 -11.080  16.222  0.00  0.00    +0.006 C 
ATOM     13  C   UNL     1      -5.852  -9.617  16.239  0.00  0.00    +0.112 C 
ATOM     14  C   UNL     1      -4.601 -12.178  16.930  0.00  0.00    +0.023 C 
ATOM     16  C   UNL     1      -5.753 -11.582  17.734  0.00  0.00    +0.108 C 
ATOM     21  C   UNL     1      -7.948 -10.963  16.783  0.00  0.00    +0.247 C 
ENDROOT
BRANCH  21  25
ATOM     25  C   UNL     1      -8.843  -9.824  16.554  0.00  0.00    +0.037 A 
ATOM     27  C   UNL     1      -9.305  -9.546  15.267  0.00  0.00    +0.013 A 
ATOM     28  C   UNL     1      -9.232  -9.017  17.623  0.00  0.00    +0.013 A 
ATOM     30  C   UNL     1     -10.156  -8.463  15.049  0.00  0.00    +0.013 A 
ATOM     31  C   UNL     1     -10.082  -7.933  17.406  0.00  0.00    +0.013 A 
ATOM     32  C   UNL     1     -10.544  -7.655  16.119  0.00  0.00    +0.055 A 
BRANCH  32  33
ATOM      1  F   UNL     1     -12.779  -6.818  15.951  0.00  0.00    -0.166 F 
ATOM      2  F   UNL     1     -11.274  -5.926  14.660  0.00  0.00    -0.166 F 
ATOM      3  F   UNL     1     -11.290  -5.483  16.788  0.00  0.00    -0.166 F 
ATOM     33  C   UNL     1     -11.454  -6.497  15.887  0.00  0.00    +0.417 C 
ENDBRANCH  32  33
ENDBRANCH  21  25
BRANCH  11  15
ATOM     15  C   UNL     1      -5.249 -10.819  14.104  0.00  0.00    +0.020 C 
BRANCH  15  17
ATOM     17  C   UNL     1      -5.993  -9.809  13.244  0.00  0.00    +0.085 C 
BRANCH  17   9
ATOM      7  O   UNL     1      -5.838  -9.545   7.012  0.00  0.00    -0.276 OA
ATOM      9  N   UNL     1      -5.314  -9.655  11.957  0.00  0.00    -0.299 NA
ATOM     10  N   UNL     1      -4.989  -9.982   9.130  0.00  0.00    -0.299 N 
ATOM     19  C   UNL     1      -4.966 -10.968  11.396  0.00  0.00    +0.103 C 
ATOM     20  C   UNL     1      -6.156  -8.900  11.018  0.00  0.00    +0.103 C 
ATOM     22  C   UNL     1      -4.228 -10.817  10.065  0.00  0.00    +0.123 C 
ATOM     23  C   UNL     1      -5.436  -8.705   9.683  0.00  0.00    +0.123 C 
ATOM     26  C   UNL     1      -5.193 -10.264   7.780  0.00  0.00    +0.213 C 
ATOM     29  C   UNL     1      -4.577 -11.537   7.257  0.00  0.00    +0.109 C 
ENDBRANCH  17   9
ENDBRANCH  15  17
ENDBRANCH  11  15
BRANCH  12  18
ATOM     18  C   UNL     1      -2.640 -11.692  15.421  0.00  0.00    +0.124 C 
BRANCH  18  24
ATOM      6  O   UNL     1      -1.504 -10.008  14.074  0.00  0.00    -0.251 OA
ATOM     24  C   UNL     1      -1.583 -10.672  15.096  0.00  0.00    +0.305 C 
BRANCH  24   5
ATOM      5  O   UNL     1      -0.700 -10.584  16.123  0.00  0.00    -0.481 OA
ATOM     34  H   UNL     1      -0.268 -11.446  16.309  0.00  0.00    +0.295 HD
ENDBRANCH  24   5
ENDBRANCH  18  24
ENDBRANCH  12  18
TORSDOF 8
ENDMDL
MODEL 3
REMARK VINA RESULT:      -6.7     25.525     28.741
REMARK  Name = 25313142
REMARK  9 active torsions:
REMARK  status: ('A' for Active; 'I' for Inactive)
REMARK    1  A    between atoms: O_5  and  C_24
REMARK    2  A    between atoms: N_9  and  C_17
REMARK    3  A    between atoms: C_11  and  C_15
REMARK    4  A    between atoms: C_12  and  C_18
REMARK    5  A    between atoms: C_15  and  C_17
REMARK    6  A    between atoms: C_18  and  C_24
REMARK    7  A    between atoms: C_21  and  C_25
REMARK    8  A    between atoms: C_26  and  C_29
REMARK    9  A    between atoms: C_32  and  C_33
REMARK                            x       y       z     vdW  Elec       q    Type
REMARK                         _______ _______ _______ _____ _____    ______ ____
ROOT
ATOM      4  O   UNL     1      -6.524 -10.284  20.265  0.00  0.00    -0.270 OA
ATOM      8  N   UNL     1      -8.129 -11.137  18.793  0.00  0.00    -0.297 N 
ATOM     11  C   UNL     1     -10.051 -10.262  17.484  0.00  0.00    +0.011 C 
ATOM     12  C   UNL     1     -11.002 -10.891  18.533  0.00  0.00    +0.006 C 
ATOM     13  C   UNL     1      -8.720 -11.035  17.451  0.00  0.00    +0.112 C 
ATOM     14  C   UNL     1     -10.323 -11.019  19.907  0.00  0.00    +0.023 C 
ATOM     16  C   UNL     1      -8.990 -11.756  19.799  0.00  0.00    +0.108 C 
ATOM     21  C   UNL     1      -6.854 -10.695  19.155  0.00  0.00    +0.247 C 
ENDROOT
BRANCH  21  25
ATOM     25  C   UNL     1      -5.802 -10.713  18.133  0.00  0.00    +0.037 A 
ATOM     27  C   UNL     1      -4.642 -11.460  18.338  0.00  0.00    +0.013 A 
ATOM     28  C   UNL     1      -5.960  -9.982  16.955  0.00  0.00    +0.013 A 
ATOM     30  C   UNL     1      -3.641 -11.477  17.367  0.00  0.00    +0.013 A 
ATOM     31  C   UNL     1      -4.960  -9.998  15.984  0.00  0.00    +0.013 A 
ATOM     32  C   UNL     1      -3.800 -10.746  16.190  0.00  0.00    +0.055 A 
BRANCH  32  33
ATOM      1  F   UNL     1      -1.671  -9.953  15.440  0.00  0.00    -0.166 F 
ATOM      2  F   UNL     1      -3.180 -10.356  13.928  0.00  0.00    -0.166 F 
ATOM      3  F   UNL     1      -2.187 -12.000  14.946  0.00  0.00    -0.166 F 
ATOM     33  C   UNL     1      -2.730 -10.764  15.151  0.00  0.00    +0.417 C 
ENDBRANCH  32  33
ENDBRANCH  21  25
BRANCH  11  15
ATOM     15  C   UNL     1      -9.792  -8.765  17.697  0.00  0.00    +0.020 C 
BRANCH  15  17
ATOM     17  C   UNL     1      -9.477  -8.075  16.378  0.00  0.00    +0.085 C 
BRANCH  17   9
ATOM      7  O   UNL     1     -12.924  -6.342  11.476  0.00  0.00    -0.276 OA
ATOM      9  N   UNL     1     -10.715  -7.625  15.743  0.00  0.00    -0.299 NA
ATOM     10  N   UNL     1     -12.288  -6.362  13.709  0.00  0.00    -0.299 N 
ATOM     19  C   UNL     1     -10.729  -6.161  15.617  0.00  0.00    +0.103 C 
ATOM     20  C   UNL     1     -10.878  -8.257  14.426  0.00  0.00    +0.103 C 
ATOM     22  C   UNL     1     -12.035  -5.678  14.982  0.00  0.00    +0.123 C 
ATOM     23  C   UNL     1     -12.189  -7.818  13.773  0.00  0.00    +0.123 C 
ATOM     26  C   UNL     1     -12.717  -5.745  12.535  0.00  0.00    +0.213 C 
ATOM     29  C   UNL     1     -12.930  -4.253  12.595  0.00  0.00    +0.109 C 
ENDBRANCH  17   9
ENDBRANCH  15  17
ENDBRANCH  11  15
BRANCH  12  18
ATOM     18  C   UNL     1     -12.333 -10.151  18.658  0.00  0.00    +0.124 C 
BRANCH  18  24
ATOM      6  O   UNL     1     -13.430 -11.054  16.677  0.00  0.00    -0.251 OA
ATOM     24  C   UNL     1     -13.065 -10.098  17.345  0.00  0.00    +0.305 C 
BRANCH  24   5
ATOM      5  O   UNL     1     -13.275  -8.805  16.989  0.00  0.00    -0.481 OA
ATOM     34  H   UNL     1     -12.446  -8.366  16.699  0.00  0.00    +0.295 HD
ENDBRANCH  24   5
ENDBRANCH  18  24
ENDBRANCH  12  18
TORSDOF 8
ENDMDL
MODEL 4
REMARK VINA RESULT:      -6.4      2.262      3.389
REMARK  Name = 25313142
REMARK  9 active torsions:
REMARK  status: ('A' for Active; 'I' for Inactive)
REMARK    1  A    between atoms: O_5  and  C_24
REMARK    2  A    between atoms: N_9  and  C_17
REMARK    3  A    between atoms: C_11  and  C_15
REMARK    4  A    between atoms: C_12  and  C_18
REMARK    5  A    between atoms: C_15  and  C_17
REMARK    6  A    between atoms: C_18  and  C_24
REMARK    7  A    between atoms: C_21  and  C_25
REMARK    8  A    between atoms: C_26  and  C_29
REMARK    9  A    between atoms: C_32  and  C_33
REMARK                            x       y       z     vdW  Elec       q    Type
REMARK                         _______ _______ _______ _____ _____    ______ ____
ROOT
ATOM      4  O   UNL     1      10.667   9.068   5.021  0.00  0.00    -0.270 OA
ATOM      8  N   UNL     1       9.635   7.436   3.700  0.00  0.00    -0.297 N 
ATOM     11  C   UNL     1      10.340   5.658   2.114  0.00  0.00    +0.011 C 
ATOM     12  C   UNL     1       9.886   6.572   0.948  0.00  0.00    +0.006 C 
ATOM     13  C   UNL     1       9.550   6.002   3.389  0.00  0.00    +0.112 C 
ATOM     14  C   UNL     1       9.947   8.059   1.338  0.00  0.00    +0.023 C 
ATOM     16  C   UNL     1       9.182   8.324   2.631  0.00  0.00    +0.108 C 
ATOM     21  C   UNL     1      10.105   7.981   4.897  0.00  0.00    +0.247 C 
ENDROOT
BRANCH  21  25
ATOM     25  C   UNL     1       9.922   7.204   6.128  0.00  0.00    +0.037 A 
ATOM     27  C   UNL     1      10.826   6.194   6.457  0.00  0.00    +0.013 A 
ATOM     28  C   UNL     1       8.844   7.476   6.970  0.00  0.00    +0.013 A 
ATOM     30  C   UNL     1      10.652   5.455   7.627  0.00  0.00    +0.013 A 
ATOM     31  C   UNL     1       8.669   6.738   8.140  0.00  0.00    +0.013 A 
ATOM     32  C   UNL     1       9.573   5.727   8.468  0.00  0.00    +0.055 A 
BRANCH  32  33
ATOM      1  F   UNL     1       9.295   3.592   9.512  0.00  0.00    -0.166 F 
ATOM      2  F   UNL     1       8.250   5.282  10.393  0.00  0.00    -0.166 F 
ATOM      3  F   UNL     1      10.404   5.089  10.620  0.00  0.00    -0.166 F 
ATOM     33  C   UNL     1       9.387   4.938   9.720  0.00  0.00    +0.417 C 
ENDBRANCH  32  33
ENDBRANCH  21  25
BRANCH  11  15
ATOM     15  C   UNL     1      11.849   5.709   2.392  0.00  0.00    +0.020 C 
BRANCH  15  17
ATOM     17  C   UNL     1      12.511   4.387   2.034  0.00  0.00    +0.085 C 
BRANCH  17   9
ATOM      7  O   UNL     1      17.062   6.898  -1.416  0.00  0.00    -0.276 OA
ATOM      9  N   UNL     1      13.912   4.612   1.681  0.00  0.00    -0.299 NA
ATOM     10  N   UNL     1      16.081   5.282  -0.066  0.00  0.00    -0.299 N 
ATOM     19  C   UNL     1      14.337   3.675   0.631  0.00  0.00    +0.103 C 
ATOM     20  C   UNL     1      14.117   6.001   1.246  0.00  0.00    +0.103 C 
ATOM     22  C   UNL     1      15.811   3.882   0.276  0.00  0.00    +0.123 C 
ATOM     23  C   UNL     1      15.587   6.251   0.909  0.00  0.00    +0.123 C 
ATOM     26  C   UNL     1      16.848   5.713  -1.148  0.00  0.00    +0.213 C 
ATOM     29  C   UNL     1      17.438   4.640  -2.027  0.00  0.00    +0.109 C 
ENDBRANCH  17   9
ENDBRANCH  15  17
ENDBRANCH  11  15
BRANCH  12  18
ATOM     18  C   UNL     1      10.657   6.323  -0.348  0.00  0.00    +0.124 C 
BRANCH  18  24
ATOM      6  O   UNL     1      10.849   3.996  -1.050  0.00  0.00    -0.251 OA
ATOM     24  C   UNL     1      10.224   5.046  -1.015  0.00  0.00    +0.305 C 
BRANCH  24   5
ATOM      5  O   UNL     1       9.008   5.221  -1.593  0.00  0.00    -0.481 OA
ATOM     34  H   UNL     1       9.037   5.887  -2.312  0.00  0.00    +0.295 HD
ENDBRANCH  24   5
ENDBRANCH  18  24
ENDBRANCH  12  18
TORSDOF 8
ENDMDL
MODEL 5
REMARK VINA RESULT:      -6.4     24.616     27.661
REMARK  Name = 25313142
REMARK  9 active torsions:
REMARK  status: ('A' for Active; 'I' for Inactive)
REMARK    1  A    between atoms: O_5  and  C_24
REMARK    2  A    between atoms: N_9  and  C_17
REMARK    3  A    between atoms: C_11  and  C_15
REMARK    4  A    between atoms: C_12  and  C_18
REMARK    5  A    between atoms: C_15  and  C_17
REMARK    6  A    between atoms: C_18  and  C_24
REMARK    7  A    between atoms: C_21  and  C_25
REMARK    8  A    between atoms: C_26  and  C_29
REMARK    9  A    between atoms: C_32  and  C_33
REMARK                            x       y       z     vdW  Elec       q    Type
REMARK                         _______ _______ _______ _____ _____    ______ ____
ROOT
ATOM      4  O   UNL     1     -10.198 -11.713  17.147  0.00  0.00    -0.270 OA
ATOM      8  N   UNL     1      -8.373 -10.353  17.688  0.00  0.00    -0.297 N 
ATOM     11  C   UNL     1      -6.054 -10.000  16.867  0.00  0.00    +0.011 C 
ATOM     12  C   UNL     1      -5.540 -10.797  18.093  0.00  0.00    +0.006 C 
ATOM     13  C   UNL     1      -7.414  -9.355  17.192  0.00  0.00    +0.112 C 
ATOM     14  C   UNL     1      -6.596 -11.793  18.603  0.00  0.00    +0.023 C 
ATOM     16  C   UNL     1      -7.930 -11.099  18.865  0.00  0.00    +0.108 C 
ATOM     21  C   UNL     1      -9.623 -10.626  17.128  0.00  0.00    +0.247 C 
ENDROOT
BRANCH  21  25
ATOM     25  C   UNL     1     -10.331  -9.533  16.453  0.00  0.00    +0.037 A 
ATOM     27  C   UNL     1     -10.455  -9.534  15.064  0.00  0.00    +0.013 A 
ATOM     28  C   UNL     1     -10.881  -8.491  17.201  0.00  0.00    +0.013 A 
ATOM     30  C   UNL     1     -11.127  -8.494  14.422  0.00  0.00    +0.013 A 
ATOM     31  C   UNL     1     -11.553  -7.451  16.560  0.00  0.00    +0.013 A 
ATOM     32  C   UNL     1     -11.676  -7.453  15.170  0.00  0.00    +0.055 A 
BRANCH  32  33
ATOM      1  F   UNL     1     -11.619  -5.240  14.261  0.00  0.00    -0.166 F 
ATOM      2  F   UNL     1     -13.470  -5.892  15.198  0.00  0.00    -0.166 F 
ATOM      3  F   UNL     1     -12.889  -6.683  13.257  0.00  0.00    -0.166 F 
ATOM     33  C   UNL     1     -12.396  -6.341  14.484  0.00  0.00    +0.417 C 
ENDBRANCH  32  33
ENDBRANCH  21  25
BRANCH  11  15
ATOM     15  C   UNL     1      -6.153 -10.833  15.581  0.00  0.00    +0.020 C 
BRANCH  15  17
ATOM     17  C   UNL     1      -6.746 -10.011  14.447  0.00  0.00    +0.085 C 
BRANCH  17   9
ATOM      7  O   UNL     1      -5.265  -9.693   8.395  0.00  0.00    -0.276 OA
ATOM      9  N   UNL     1      -5.800  -9.943  13.334  0.00  0.00    -0.299 NA
ATOM     10  N   UNL     1      -4.946 -10.278  10.620  0.00  0.00    -0.299 N 
ATOM     19  C   UNL     1      -5.535 -11.286  12.798  0.00  0.00    +0.103 C 
ATOM     20  C   UNL     1      -6.312  -9.059  12.276  0.00  0.00    +0.103 C 
ATOM     22  C   UNL     1      -4.523 -11.229  11.653  0.00  0.00    +0.123 C 
ATOM     23  C   UNL     1      -5.311  -8.957  11.126  0.00  0.00    +0.123 C 
ATOM     26  C   UNL     1      -4.904 -10.510   9.246  0.00  0.00    +0.213 C 
ATOM     29  C   UNL     1      -4.381 -11.853   8.804  0.00  0.00    +0.109 C 
ENDBRANCH  17   9
ENDBRANCH  15  17
ENDBRANCH  11  15
BRANCH  12  18
ATOM     18  C   UNL     1      -4.211 -11.506  17.836  0.00  0.00    +0.124 C 
BRANCH  18  24
ATOM      6  O   UNL     1      -3.461 -12.190  20.052  0.00  0.00    -0.251 OA
ATOM     24  C   UNL     1      -3.875 -12.473  18.937  0.00  0.00    +0.305 C 
BRANCH  24   5
ATOM      5  O   UNL     1      -4.099 -13.744  18.516  0.00  0.00    -0.481 OA
ATOM     34  H   UNL     1      -3.384 -14.065  17.927  0.00  0.00    +0.295 HD
ENDBRANCH  24   5
ENDBRANCH  18  24
ENDBRANCH  12  18
TORSDOF 8
ENDMDL
MODEL 6
REMARK VINA RESULT:      -6.3      3.556      7.381
REMARK  Name = 25313142
REMARK  9 active torsions:
REMARK  status: ('A' for Active; 'I' for Inactive)
REMARK    1  A    between atoms: O_5  and  C_24
REMARK    2  A    between atoms: N_9  and  C_17
REMARK    3  A    between atoms: C_11  and  C_15
REMARK    4  A    between atoms: C_12  and  C_18
REMARK    5  A    between atoms: C_15  and  C_17
REMARK    6  A    between atoms: C_18  and  C_24
REMARK    7  A    between atoms: C_21  and  C_25
REMARK    8  A    between atoms: C_26  and  C_29
REMARK    9  A    between atoms: C_32  and  C_33
REMARK                            x       y       z     vdW  Elec       q    Type
REMARK                         _______ _______ _______ _____ _____    ______ ____
ROOT
ATOM      4  O   UNL     1      11.655   9.245   1.962  0.00  0.00    -0.270 OA
ATOM      8  N   UNL     1      10.941   7.148   1.213  0.00  0.00    -0.297 N 
ATOM     11  C   UNL     1      10.872   4.824   2.091  0.00  0.00    +0.011 C 
ATOM     12  C   UNL     1      12.084   4.487   1.186  0.00  0.00    +0.006 C 
ATOM     13  C   UNL     1      10.073   5.992   1.486  0.00  0.00    +0.112 C 
ATOM     14  C   UNL     1      12.933   5.735   0.891  0.00  0.00    +0.023 C 
ATOM     16  C   UNL     1      12.076   6.869   0.335  0.00  0.00    +0.108 C 
ATOM     21  C   UNL     1      10.761   8.436   1.721  0.00  0.00    +0.247 C 
ENDROOT
BRANCH  21  25
ATOM     25  C   UNL     1       9.392   8.884   2.000  0.00  0.00    +0.037 A 
ATOM     27  C   UNL     1       8.588   9.358   0.964  0.00  0.00    +0.013 A 
ATOM     28  C   UNL     1       8.894   8.835   3.302  0.00  0.00    +0.013 A 
ATOM     30  C   UNL     1       7.287   9.784   1.228  0.00  0.00    +0.013 A 
ATOM     31  C   UNL     1       7.593   9.261   3.568  0.00  0.00    +0.013 A 
ATOM     32  C   UNL     1       6.790   9.736   2.531  0.00  0.00    +0.055 A 
BRANCH  32  33
ATOM      1  F   UNL     1       5.091  10.221   4.145  0.00  0.00    -0.166 F 
ATOM      2  F   UNL     1       4.456   9.387   2.240  0.00  0.00    -0.166 F 
ATOM      3  F   UNL     1       5.130  11.451   2.360  0.00  0.00    -0.166 F 
ATOM     33  C   UNL     1       5.398  10.191   2.815  0.00  0.00    +0.417 C 
ENDBRANCH  32  33
ENDBRANCH  21  25
BRANCH  11  15
ATOM     15  C   UNL     1      11.249   5.133   3.546  0.00  0.00    +0.020 C 
BRANCH  15  17
ATOM     17  C   UNL     1      10.065   4.903   4.474  0.00  0.00    +0.085 C 
BRANCH  17   9
ATOM      7  O   UNL     1       9.238   9.786   8.267  0.00  0.00    -0.276 OA
ATOM      9  N   UNL     1      10.262   5.637   5.723  0.00  0.00    -0.299 NA
ATOM     10  N   UNL     1      10.383   7.970   7.380  0.00  0.00    -0.299 N 
ATOM     19  C   UNL     1      11.382   6.581   5.598  0.00  0.00    +0.103 C 
ATOM     20  C   UNL     1       9.032   6.345   6.104  0.00  0.00    +0.103 C 
ATOM     22  C   UNL     1      11.616   7.331   6.910  0.00  0.00    +0.123 C 
ATOM     23  C   UNL     1       9.222   7.085   7.428  0.00  0.00    +0.123 C 
ATOM     26  C   UNL     1      10.288   9.270   7.876  0.00  0.00    +0.213 C 
ATOM     29  C   UNL     1      11.565  10.070   7.922  0.00  0.00    +0.109 C 
ENDBRANCH  17   9
ENDBRANCH  15  17
ENDBRANCH  11  15
BRANCH  12  18
ATOM     18  C   UNL     1      12.956   3.362   1.742  0.00  0.00    +0.124 C 
BRANCH  18  24
ATOM      6  O   UNL     1      14.686   3.567   0.037  0.00  0.00    -0.251 OA
ATOM     24  C   UNL     1      14.360   3.430   1.206  0.00  0.00    +0.305 C 
BRANCH  24   5
ATOM      5  O   UNL     1      15.246   3.316   2.228  0.00  0.00    -0.481 OA
ATOM     34  H   UNL     1      15.645   4.181   2.465  0.00  0.00    +0.295 HD
ENDBRANCH  24   5
ENDBRANCH  18  24
ENDBRANCH  12  18
TORSDOF 8
ENDMDL
MODEL 7
REMARK VINA RESULT:      -6.2     25.116     28.174
REMARK  Name = 25313142
REMARK  9 active torsions:
REMARK  status: ('A' for Active; 'I' for Inactive)
REMARK    1  A    between atoms: O_5  and  C_24
REMARK    2  A    between atoms: N_9  and  C_17
REMARK    3  A    between atoms: C_11  and  C_15
REMARK    4  A    between atoms: C_12  and  C_18
REMARK    5  A    between atoms: C_15  and  C_17
REMARK    6  A    between atoms: C_18  and  C_24
REMARK    7  A    between atoms: C_21  and  C_25
REMARK    8  A    between atoms: C_26  and  C_29
REMARK    9  A    between atoms: C_32  and  C_33
REMARK                            x       y       z     vdW  Elec       q    Type
REMARK                         _______ _______ _______ _____ _____    ______ ____
ROOT
ATOM      4  O   UNL     1     -10.249 -11.662  17.145  0.00  0.00    -0.270 OA
ATOM      8  N   UNL     1      -8.395 -10.321  17.629  0.00  0.00    -0.297 N 
ATOM     11  C   UNL     1      -6.081 -10.029  16.772  0.00  0.00    +0.011 C 
ATOM     12  C   UNL     1      -5.565 -10.804  18.011  0.00  0.00    +0.006 C 
ATOM     13  C   UNL     1      -7.425  -9.353  17.096  0.00  0.00    +0.112 C 
ATOM     14  C   UNL     1      -6.631 -11.768  18.559  0.00  0.00    +0.023 C 
ATOM     16  C   UNL     1      -7.950 -11.045  18.819  0.00  0.00    +0.108 C 
ATOM     21  C   UNL     1      -9.656 -10.587  17.092  0.00  0.00    +0.247 C 
ENDROOT
BRANCH  21  25
ATOM     25  C   UNL     1     -10.354  -9.498  16.398  0.00  0.00    +0.037 A 
ATOM     27  C   UNL     1     -10.933  -8.461  17.130  0.00  0.00    +0.013 A 
ATOM     28  C   UNL     1     -10.439  -9.500  15.006  0.00  0.00    +0.013 A 
ATOM     30  C   UNL     1     -11.596  -7.427  16.470  0.00  0.00    +0.013 A 
ATOM     31  C   UNL     1     -11.102  -8.467  14.345  0.00  0.00    +0.013 A 
ATOM     32  C   UNL     1     -11.681  -7.430  15.078  0.00  0.00    +0.055 A 
BRANCH  32  33
ATOM      1  F   UNL     1     -13.436  -5.803  15.078  0.00  0.00    -0.166 F 
ATOM      2  F   UNL     1     -12.917  -6.717  13.175  0.00  0.00    -0.166 F 
ATOM      3  F   UNL     1     -11.588  -5.256  14.084  0.00  0.00    -0.166 F 
ATOM     33  C   UNL     1     -12.390  -6.324  14.372  0.00  0.00    +0.417 C 
ENDBRANCH  32  33
ENDBRANCH  21  25
BRANCH  11  15
ATOM     15  C   UNL     1      -6.210 -10.892  15.509  0.00  0.00    +0.020 C 
BRANCH  15  17
ATOM     17  C   UNL     1      -5.398 -10.303  14.365  0.00  0.00    +0.085 C 
BRANCH  17   9
ATOM      7  O   UNL     1      -9.021  -8.268   9.712  0.00  0.00    -0.276 OA
ATOM      9  N   UNL     1      -6.123 -10.465  13.105  0.00  0.00    -0.299 NA
ATOM     10  N   UNL     1      -8.139  -9.850  11.165  0.00  0.00    -0.299 N 
ATOM     19  C   UNL     1      -7.529 -10.812  13.358  0.00  0.00    +0.103 C 
ATOM     20  C   UNL     1      -6.033  -9.239  12.298  0.00  0.00    +0.103 C 
ATOM     22  C   UNL     1      -8.288 -11.014  12.046  0.00  0.00    +0.123 C 
ATOM     23  C   UNL     1      -6.759  -9.415  10.965  0.00  0.00    +0.123 C 
ATOM     26  C   UNL     1      -9.171  -9.246  10.448  0.00  0.00    +0.213 C 
ATOM     29  C   UNL     1     -10.544  -9.848  10.604  0.00  0.00    +0.109 C 
ENDBRANCH  17   9
ENDBRANCH  15  17
ENDBRANCH  11  15
BRANCH  12  18
ATOM     18  C   UNL     1      -4.252 -11.542  17.756  0.00  0.00    +0.124 C 
BRANCH  18  24
ATOM      6  O   UNL     1      -3.464 -12.123  19.989  0.00  0.00    -0.251 OA
ATOM     24  C   UNL     1      -3.898 -12.457  18.896  0.00  0.00    +0.305 C 
BRANCH  24   5
ATOM      5  O   UNL     1      -4.131 -13.745  18.539  0.00  0.00    -0.481 OA
ATOM     34  H   UNL     1      -4.445 -14.284  19.297  0.00  0.00    +0.295 HD
ENDBRANCH  24   5
ENDBRANCH  18  24
ENDBRANCH  12  18
TORSDOF 8
ENDMDL
MODEL 8
REMARK VINA RESULT:      -6.2      2.702      6.342
REMARK  Name = 25313142
REMARK  9 active torsions:
REMARK  status: ('A' for Active; 'I' for Inactive)
REMARK    1  A    between atoms: O_5  and  C_24
REMARK    2  A    between atoms: N_9  and  C_17
REMARK    3  A    between atoms: C_11  and  C_15
REMARK    4  A    between atoms: C_12  and  C_18
REMARK    5  A    between atoms: C_15  and  C_17
REMARK    6  A    between atoms: C_18  and  C_24
REMARK    7  A    between atoms: C_21  and  C_25
REMARK    8  A    between atoms: C_26  and  C_29
REMARK    9  A    between atoms: C_32  and  C_33
REMARK                            x       y       z     vdW  Elec       q    Type
REMARK                         _______ _______ _______ _____ _____    ______ ____
ROOT
ATOM      4  O   UNL     1       9.658   6.932   2.059  0.00  0.00    -0.270 OA
ATOM      8  N   UNL     1      11.362   5.342   1.872  0.00  0.00    -0.297 N 
ATOM     11  C   UNL     1      13.837   5.339   1.643  0.00  0.00    +0.011 C 
ATOM     12  C   UNL     1      13.660   5.000   0.141  0.00  0.00    +0.006 C 
ATOM     13  C   UNL     1      12.620   4.837   2.442  0.00  0.00    +0.112 C 
ATOM     14  C   UNL     1      12.310   5.506  -0.397  0.00  0.00    +0.023 C 
ATOM     16  C   UNL     1      11.151   5.010   0.463  0.00  0.00    +0.108 C 
ATOM     21  C   UNL     1      10.402   6.089   2.556  0.00  0.00    +0.247 C 
ENDROOT
BRANCH  21  25
ATOM     25  C   UNL     1      10.251   5.863   3.998  0.00  0.00    +0.037 A 
ATOM     27  C   UNL     1       9.931   4.593   4.476  0.00  0.00    +0.013 A 
ATOM     28  C   UNL     1      10.427   6.920   4.891  0.00  0.00    +0.013 A 
ATOM     30  C   UNL     1       9.787   4.378   5.847  0.00  0.00    +0.013 A 
ATOM     31  C   UNL     1      10.283   6.707   6.262  0.00  0.00    +0.013 A 
ATOM     32  C   UNL     1       9.963   5.436   6.740  0.00  0.00    +0.055 A 
BRANCH  32  33
ATOM      1  F   UNL     1       9.633   3.896   8.541  0.00  0.00    -0.166 F 
ATOM      2  F   UNL     1       8.736   5.867   8.730  0.00  0.00    -0.166 F 
ATOM      3  F   UNL     1      10.885   5.620   8.939  0.00  0.00    -0.166 F 
ATOM     33  C   UNL     1       9.810   5.207   8.205  0.00  0.00    +0.417 C 
ENDBRANCH  32  33
ENDBRANCH  21  25
BRANCH  11  15
ATOM     15  C   UNL     1      14.080   6.828   1.921  0.00  0.00    +0.020 C 
BRANCH  15  17
ATOM     17  C   UNL     1      14.962   7.015   3.147  0.00  0.00    +0.085 C 
BRANCH  17   9
ATOM      7  O   UNL     1      11.793   9.868   7.700  0.00  0.00    -0.276 OA
ATOM      9  N   UNL     1      14.526   8.191   3.898  0.00  0.00    -0.299 NA
ATOM     10  N   UNL     1      12.782   9.690   5.606  0.00  0.00    -0.299 N 
ATOM     19  C   UNL     1      13.231   8.674   3.399  0.00  0.00    +0.103 C 
ATOM     20  C   UNL     1      14.442   7.884   5.334  0.00  0.00    +0.103 C 
ATOM     22  C   UNL     1      12.781   9.923   4.158  0.00  0.00    +0.123 C 
ATOM     23  C   UNL     1      14.021   9.120   6.128  0.00  0.00    +0.123 C 
ATOM     26  C   UNL     1      11.770  10.075   6.484  0.00  0.00    +0.213 C 
ATOM     29  C   UNL     1      10.585  10.785   5.879  0.00  0.00    +0.109 C 
ENDBRANCH  17   9
ENDBRANCH  15  17
ENDBRANCH  11  15
BRANCH  12  18
ATOM     18  C   UNL     1      14.810   5.505  -0.729  0.00  0.00    +0.124 C 
BRANCH  18  24
ATOM      6  O   UNL     1      16.459   3.769  -0.273  0.00  0.00    -0.251 OA
ATOM     24  C   UNL     1      16.133   4.946  -0.281  0.00  0.00    +0.305 C 
BRANCH  24   5
ATOM      5  O   UNL     1      16.942   5.957   0.126  0.00  0.00    -0.481 OA
ATOM     34  H   UNL     1      17.439   6.352  -0.623  0.00  0.00    +0.295 HD
ENDBRANCH  24   5
ENDBRANCH  18  24
ENDBRANCH  12  18
TORSDOF 8
ENDMDL
MODEL 9
REMARK VINA RESULT:      -6.1      3.652      5.943
REMARK  Name = 25313142
REMARK  9 active torsions:
REMARK  status: ('A' for Active; 'I' for Inactive)
REMARK    1  A    between atoms: O_5  and  C_24
REMARK    2  A    between atoms: N_9  and  C_17
REMARK    3  A    between atoms: C_11  and  C_15
REMARK    4  A    between atoms: C_12  and  C_18
REMARK    5  A    between atoms: C_15  and  C_17
REMARK    6  A    between atoms: C_18  and  C_24
REMARK    7  A    between atoms: C_21  and  C_25
REMARK    8  A    between atoms: C_26  and  C_29
REMARK    9  A    between atoms: C_32  and  C_33
REMARK                            x       y       z     vdW  Elec       q    Type
REMARK                         _______ _______ _______ _____ _____    ______ ____
ROOT
ATOM      4  O   UNL     1       9.340   7.331   2.483  0.00  0.00    -0.270 OA
ATOM      8  N   UNL     1      10.867   5.605   2.080  0.00  0.00    -0.297 N 
ATOM     11  C   UNL     1      13.307   5.388   1.662  0.00  0.00    +0.011 C 
ATOM     12  C   UNL     1      12.990   5.158   0.163  0.00  0.00    +0.006 C 
ATOM     13  C   UNL     1      12.108   4.954   2.525  0.00  0.00    +0.112 C 
ATOM     14  C   UNL     1      11.661   5.817  -0.242  0.00  0.00    +0.023 C 
ATOM     16  C   UNL     1      10.523   5.379   0.677  0.00  0.00    +0.108 C 
ATOM     21  C   UNL     1      10.034   6.395   2.876  0.00  0.00    +0.247 C 
ENDROOT
BRANCH  21  25
ATOM     25  C   UNL     1       9.966   6.098   4.311  0.00  0.00    +0.037 A 
ATOM     27  C   UNL     1      10.227   7.101   5.245  0.00  0.00    +0.013 A 
ATOM     28  C   UNL     1       9.640   4.813   4.743  0.00  0.00    +0.013 A 
ATOM     30  C   UNL     1      10.163   6.820   6.609  0.00  0.00    +0.013 A 
ATOM     31  C   UNL     1       9.576   4.529   6.107  0.00  0.00    +0.013 A 
ATOM     32  C   UNL     1       9.838   5.533   7.040  0.00  0.00    +0.055 A 
BRANCH  32  33
ATOM      1  F   UNL     1      10.876   5.625   9.194  0.00  0.00    -0.166 F 
ATOM      2  F   UNL     1       9.633   3.897   8.752  0.00  0.00    -0.166 F 
ATOM      3  F   UNL     1       8.718   5.832   9.133  0.00  0.00    -0.166 F 
ATOM     33  C   UNL     1       9.769   5.231   8.499  0.00  0.00    +0.417 C 
ENDBRANCH  32  33
ENDBRANCH  21  25
BRANCH  11  15
ATOM     15  C   UNL     1      13.711   6.829   1.999  0.00  0.00    +0.020 C 
BRANCH  15  17
ATOM     17  C   UNL     1      13.730   7.051   3.504  0.00  0.00    +0.085 C 
BRANCH  17   9
ATOM      7  O   UNL     1      19.768   8.439   4.230  0.00  0.00    -0.276 OA
ATOM      9  N   UNL     1      14.833   7.941   3.862  0.00  0.00    -0.299 NA
ATOM     10  N   UNL     1      17.498   8.577   4.700  0.00  0.00    -0.299 N 
ATOM     19  C   UNL     1      15.249   7.715   5.254  0.00  0.00    +0.103 C 
ATOM     20  C   UNL     1      15.968   7.748   2.948  0.00  0.00    +0.103 C 
ATOM     22  C   UNL     1      16.382   8.663   5.648  0.00  0.00    +0.123 C 
ATOM     23  C   UNL     1      17.111   8.701   3.296  0.00  0.00    +0.123 C 
ATOM     26  C   UNL     1      18.846   8.511   5.047  0.00  0.00    +0.213 C 
ATOM     29  C   UNL     1      19.166   8.528   6.520  0.00  0.00    +0.109 C 
ENDBRANCH  17   9
ENDBRANCH  15  17
ENDBRANCH  11  15
BRANCH  12  18
ATOM     18  C   UNL     1      14.118   5.606  -0.766  0.00  0.00    +0.124 C 
BRANCH  18  24
ATOM      6  O   UNL     1      15.950   3.999  -0.823  0.00  0.00    -0.251 OA
ATOM     24  C   UNL     1      14.908   4.436  -1.286  0.00  0.00    +0.305 C 
BRANCH  24   5
ATOM      5  O   UNL     1      14.288   3.913  -2.375  0.00  0.00    -0.481 OA
ATOM     34  H   UNL     1      14.887   3.869  -3.151  0.00  0.00    +0.295 HD
ENDBRANCH  24   5
ENDBRANCH  18  24
ENDBRANCH  12  18
TORSDOF 8
ENDMDL
MODEL 10
REMARK VINA RESULT:      -5.9     23.669     28.358
REMARK  Name = 25313142
REMARK  9 active torsions:
REMARK  status: ('A' for Active; 'I' for Inactive)
REMARK    1  A    between atoms: O_5  and  C_24
REMARK    2  A    between atoms: N_9  and  C_17
REMARK    3  A    between atoms: C_11  and  C_15
REMARK    4  A    between atoms: C_12  and  C_18
REMARK    5  A    between atoms: C_15  and  C_17
REMARK    6  A    between atoms: C_18  and  C_24
REMARK    7  A    between atoms: C_21  and  C_25
REMARK    8  A    between atoms: C_26  and  C_29
REMARK    9  A    between atoms: C_32  and  C_33
REMARK                            x       y       z     vdW  Elec       q    Type
REMARK                         _______ _______ _______ _____ _____    ______ ____
ROOT
ATOM      4  O   UNL     1      19.041  -6.907  25.880  0.00  0.00    -0.270 OA
ATOM      8  N   UNL     1      16.794  -7.240  26.438  0.00  0.00    -0.297 N 
ATOM     11  C   UNL     1      15.357  -6.990  28.450  0.00  0.00    +0.011 C 
ATOM     12  C   UNL     1      15.398  -8.530  28.623  0.00  0.00    +0.006 C 
ATOM     13  C   UNL     1      15.571  -6.622  26.970  0.00  0.00    +0.112 C 
ATOM     14  C   UNL     1      16.672  -9.134  28.009  0.00  0.00    +0.023 C 
ATOM     16  C   UNL     1      16.848  -8.697  26.557  0.00  0.00    +0.108 C 
ATOM     21  C   UNL     1      17.863  -6.556  25.856  0.00  0.00    +0.247 C 
ENDROOT
BRANCH  21  25
ATOM     25  C   UNL     1      17.577  -5.303  25.147  0.00  0.00    +0.037 A 
ATOM     27  C   UNL     1      17.622  -4.088  25.830  0.00  0.00    +0.013 A 
ATOM     28  C   UNL     1      17.259  -5.327  23.789  0.00  0.00    +0.013 A 
ATOM     30  C   UNL     1      17.350  -2.898  25.157  0.00  0.00    +0.013 A 
ATOM     31  C   UNL     1      16.986  -4.138  23.115  0.00  0.00    +0.013 A 
ATOM     32  C   UNL     1      17.031  -2.923  23.799  0.00  0.00    +0.055 A 
BRANCH  32  33
ATOM      1  F   UNL     1      15.511  -1.625  22.483  0.00  0.00    -0.166 F 
ATOM      2  F   UNL     1      17.635  -1.396  22.079  0.00  0.00    -0.166 F 
ATOM      3  F   UNL     1      16.768  -0.546  23.882  0.00  0.00    -0.166 F 
ATOM     33  C   UNL     1      16.740  -1.650  23.078  0.00  0.00    +0.417 C 
ENDBRANCH  32  33
ENDBRANCH  21  25
BRANCH  11  15
ATOM     15  C   UNL     1      16.358  -6.237  29.336  0.00  0.00    +0.020 C 
BRANCH  15  17
ATOM     17  C   UNL     1      15.637  -5.310  30.303  0.00  0.00    +0.085 C 
BRANCH  17   9
ATOM      7  O   UNL     1      19.869  -0.729  30.170  0.00  0.00    -0.276 OA
ATOM      9  N   UNL     1      16.063  -3.929  30.080  0.00  0.00    -0.299 NA
ATOM     10  N   UNL     1      17.746  -1.637  30.422  0.00  0.00    -0.299 N 
ATOM     19  C   UNL     1      16.039  -3.171  31.338  0.00  0.00    +0.103 C 
ATOM     20  C   UNL     1      17.406  -3.895  29.483  0.00  0.00    +0.103 C 
ATOM     22  C   UNL     1      16.453  -1.716  31.110  0.00  0.00    +0.123 C 
ATOM     23  C   UNL     1      17.842  -2.454  29.215  0.00  0.00    +0.123 C 
ATOM     26  C   UNL     1      18.789  -0.778  30.765  0.00  0.00    +0.213 C 
ATOM     29  C   UNL     1      18.553   0.134  31.942  0.00  0.00    +0.109 C 
ENDBRANCH  17   9
ENDBRANCH  15  17
ENDBRANCH  11  15
BRANCH  12  18
ATOM     18  C   UNL     1      15.236  -8.976  30.075  0.00  0.00    +0.124 C 
BRANCH  18  24
ATOM      6  O   UNL     1      12.958  -9.843  30.137  0.00  0.00    -0.251 OA
ATOM     24  C   UNL     1      13.790  -9.018  30.486  0.00  0.00    +0.305 C 
BRANCH  24   5
ATOM      5  O   UNL     1      13.522  -7.985  31.325  0.00  0.00    -0.481 OA
ATOM     34  H   UNL     1      14.128  -7.228  31.178  0.00  0.00    +0.295 HD
ENDBRANCH  24   5
ENDBRANCH  18  24
ENDBRANCH  12  18
TORSDOF 8
ENDMDL
