MODEL 1
REMARK VINA RESULT:      -7.2      0.000      0.000
REMARK  Name = 75536889
REMARK  7 active torsions:
REMARK  status: ('A' for Active; 'I' for Inactive)
REMARK    1  A    between atoms: S_1  and  C_25
REMARK    2  A    between atoms: S_1  and  C_30
REMARK    3  A    between atoms: O_6  and  C_12
REMARK    4  A    between atoms: O_6  and  C_19
REMARK    5  A    between atoms: C_17  and  C_18
REMARK    6  A    between atoms: C_20  and  C_28
REMARK    7  A    between atoms: C_22  and  C_29
REMARK                            x       y       z     vdW  Elec       q    Type
REMARK                         _______ _______ _______ _____ _____    ______ ____
ROOT
ATOM      5  O   UNL     1       8.698   9.471   3.029  0.00  0.00    -0.375 OA
ATOM      8  O   UNL     1       9.852   9.598   7.906  0.00  0.00    -0.270 OA
ATOM     11  N   UNL     1       8.903   8.693   5.963  0.00  0.00    -0.292 N 
ATOM     12  C   UNL     1       9.547   7.326   4.009  0.00  0.00    +0.216 C 
ATOM     13  C   UNL     1       8.549   7.519   5.149  0.00  0.00    +0.155 C 
ATOM     14  C   UNL     1       8.614  10.004   5.375  0.00  0.00    +0.136 C 
ATOM     15  C   UNL     1       9.256   8.187   2.777  0.00  0.00    +0.206 C 
ATOM     16  C   UNL     1       9.341  10.223   4.052  0.00  0.00    +0.179 C 
ATOM     17  C   UNL     1       9.518   8.632   7.221  0.00  0.00    +0.250 C 
ENDROOT
BRANCH  17  18
ATOM      7  O   UNL     1      10.930   5.445   8.340  0.00  0.00    -0.455 OA
ATOM     18  C   UNL     1       9.801   7.309   7.790  0.00  0.00    +0.087 A 
ATOM     20  C   UNL     1      11.003   6.646   7.708  0.00  0.00    +0.220 A 
ATOM     21  C   UNL     1       8.933   6.462   8.520  0.00  0.00    +0.058 A 
ATOM     22  C   UNL     1       9.667   5.341   8.830  0.00  0.00    +0.103 A 
ATOM     29  C   UNL     1       9.355   4.106   9.564  0.00  0.00    +0.086 C 
BRANCH  20  28
ATOM      2  F   UNL     1      12.357   6.672   5.754  0.00  0.00    -0.163 F 
ATOM      3  F   UNL     1      12.646   8.298   7.168  0.00  0.00    -0.163 F 
ATOM      4  F   UNL     1      13.371   6.310   7.644  0.00  0.00    -0.163 F 
ATOM     28  C   UNL     1      12.299   6.971   7.093  0.00  0.00    +0.451 C 
ENDBRANCH  20  28
ENDBRANCH  17  18
BRANCH  12   6
ATOM      6  O   UNL     1       9.547   5.952   3.625  0.00  0.00    -0.485 OA
BRANCH   6  19
ATOM     19  C   UNL     1      10.672   5.492   3.001  0.00  0.00    +0.121 A 
ATOM     23  C   UNL     1      10.732   4.171   2.555  0.00  0.00    +0.047 A 
ATOM     24  C   UNL     1      11.763   6.341   2.811  0.00  0.00    +0.047 A 
ATOM     25  C   UNL     1      12.969   4.551   1.728  0.00  0.00    +0.088 A 
ATOM     26  C   UNL     1      11.881   3.701   1.917  0.00  0.00    +0.030 A 
ATOM     27  C   UNL     1      12.911   5.871   2.174  0.00  0.00    +0.030 A 
BRANCH  25   1
ATOM      1  S   UNL     1      14.409   3.961   0.934  0.00  0.00    -0.006 S 
ATOM      9  O   UNL     1      15.154   3.128   1.868  0.00  0.00    -0.170 OA
ATOM     10  O   UNL     1      14.019   3.425  -0.361  0.00  0.00    -0.170 OA
ATOM     30  C   UNL     1      15.386   5.420   0.650  0.00  0.00    +0.200 C 
ENDBRANCH  25   1
ENDBRANCH   6  19
ENDBRANCH  12   6
TORSDOF 5
ENDMDL
MODEL 2
REMARK VINA RESULT:      -7.1     12.348     15.258
REMARK  Name = 75536889
REMARK  7 active torsions:
REMARK  status: ('A' for Active; 'I' for Inactive)
REMARK    1  A    between atoms: S_1  and  C_25
REMARK    2  A    between atoms: S_1  and  C_30
REMARK    3  A    between atoms: O_6  and  C_12
REMARK    4  A    between atoms: O_6  and  C_19
REMARK    5  A    between atoms: C_17  and  C_18
REMARK    6  A    between atoms: C_20  and  C_28
REMARK    7  A    between atoms: C_22  and  C_29
REMARK                            x       y       z     vdW  Elec       q    Type
REMARK                         _______ _______ _______ _____ _____    ______ ____
ROOT
ATOM      5  O   UNL     1      17.199  10.470  21.274  0.00  0.00    -0.375 OA
ATOM      8  O   UNL     1      14.319   6.473  20.349  0.00  0.00    -0.270 OA
ATOM     11  N   UNL     1      14.747   8.726  20.831  0.00  0.00    -0.292 N 
ATOM     12  C   UNL     1      15.310  10.831  19.667  0.00  0.00    +0.216 C 
ATOM     13  C   UNL     1      14.394  10.148  20.680  0.00  0.00    +0.155 C 
ATOM     14  C   UNL     1      15.957   8.434  21.603  0.00  0.00    +0.136 C 
ATOM     15  C   UNL     1      16.648  11.291  20.252  0.00  0.00    +0.206 C 
ATOM     16  C   UNL     1      17.203   9.074  20.998  0.00  0.00    +0.179 C 
ATOM     17  C   UNL     1      14.028   7.665  20.264  0.00  0.00    +0.250 C 
ENDROOT
BRANCH  17  18
ATOM      7  O   UNL     1      10.672   8.458  19.035  0.00  0.00    -0.455 OA
ATOM     18  C   UNL     1      12.820   7.980  19.493  0.00  0.00    +0.087 A 
ATOM     20  C   UNL     1      11.567   8.186  20.021  0.00  0.00    +0.220 A 
ATOM     21  C   UNL     1      12.687   8.136  18.092  0.00  0.00    +0.058 A 
ATOM     22  C   UNL     1      11.362   8.424  17.864  0.00  0.00    +0.103 A 
ATOM     29  C   UNL     1      10.586   8.696  16.646  0.00  0.00    +0.086 C 
BRANCH  20  28
ATOM      2  F   UNL     1      10.195   7.107  21.634  0.00  0.00    -0.163 F 
ATOM      3  F   UNL     1      11.986   8.092  22.374  0.00  0.00    -0.163 F 
ATOM      4  F   UNL     1      10.290   9.278  21.723  0.00  0.00    -0.163 F 
ATOM     28  C   UNL     1      11.030   8.169  21.390  0.00  0.00    +0.451 C 
ENDBRANCH  20  28
ENDBRANCH  17  18
BRANCH  12   6
ATOM      6  O   UNL     1      14.631  11.959  19.120  0.00  0.00    -0.485 OA
BRANCH   6  19
ATOM     19  C   UNL     1      14.542  12.018  17.757  0.00  0.00    +0.121 A 
ATOM     23  C   UNL     1      14.363  13.247  17.122  0.00  0.00    +0.047 A 
ATOM     24  C   UNL     1      14.630  10.849  17.001  0.00  0.00    +0.047 A 
ATOM     25  C   UNL     1      14.360  12.138  14.976  0.00  0.00    +0.088 A 
ATOM     26  C   UNL     1      14.273  13.307  15.731  0.00  0.00    +0.030 A 
ATOM     27  C   UNL     1      14.539  10.909  15.611  0.00  0.00    +0.030 A 
BRANCH  25   1
ATOM      1  S   UNL     1      14.243  12.212  13.235  0.00  0.00    -0.006 S 
ATOM      9  O   UNL     1      15.292  11.384  12.656  0.00  0.00    -0.170 OA
ATOM     10  O   UNL     1      12.853  11.980  12.870  0.00  0.00    -0.170 OA
ATOM     30  C   UNL     1      14.638  13.900  12.836  0.00  0.00    +0.200 C 
ENDBRANCH  25   1
ENDBRANCH   6  19
ENDBRANCH  12   6
TORSDOF 5
ENDMDL
MODEL 3
REMARK VINA RESULT:      -7.0     25.287     28.419
REMARK  Name = 75536889
REMARK  7 active torsions:
REMARK  status: ('A' for Active; 'I' for Inactive)
REMARK    1  A    between atoms: S_1  and  C_25
REMARK    2  A    between atoms: S_1  and  C_30
REMARK    3  A    between atoms: O_6  and  C_12
REMARK    4  A    between atoms: O_6  and  C_19
REMARK    5  A    between atoms: C_17  and  C_18
REMARK    6  A    between atoms: C_20  and  C_28
REMARK    7  A    between atoms: C_22  and  C_29
REMARK                            x       y       z     vdW  Elec       q    Type
REMARK                         _______ _______ _______ _____ _____    ______ ____
ROOT
ATOM      5  O   UNL     1     -11.433  -9.511  18.428  0.00  0.00    -0.375 OA
ATOM      8  O   UNL     1      -8.341 -12.841  20.544  0.00  0.00    -0.270 OA
ATOM     11  N   UNL     1      -9.536 -11.862  18.782  0.00  0.00    -0.292 N 
ATOM     12  C   UNL     1      -9.329 -10.009  17.161  0.00  0.00    +0.216 C 
ATOM     13  C   UNL     1      -9.630 -11.493  17.360  0.00  0.00    +0.155 C 
ATOM     14  C   UNL     1     -10.646 -11.437  19.639  0.00  0.00    +0.136 C 
ATOM     15  C   UNL     1     -10.531  -9.094  17.412  0.00  0.00    +0.206 C 
ATOM     16  C   UNL     1     -10.827  -9.922  19.649  0.00  0.00    +0.179 C 
ATOM     17  C   UNL     1      -8.457 -12.549  19.355  0.00  0.00    +0.250 C 
ENDROOT
BRANCH  17  18
ATOM      7  O   UNL     1      -5.301 -13.059  17.571  0.00  0.00    -0.455 OA
ATOM     18  C   UNL     1      -7.355 -12.963  18.479  0.00  0.00    +0.087 A 
ATOM     20  C   UNL     1      -6.076 -12.461  18.514  0.00  0.00    +0.220 A 
ATOM     21  C   UNL     1      -7.369 -13.933  17.448  0.00  0.00    +0.058 A 
ATOM     22  C   UNL     1      -6.096 -13.953  16.926  0.00  0.00    +0.103 A 
ATOM     29  C   UNL     1      -5.462 -14.729  15.851  0.00  0.00    +0.086 C 
BRANCH  20  28
ATOM      2  F   UNL     1      -5.310 -11.794  20.664  0.00  0.00    -0.163 F 
ATOM      3  F   UNL     1      -4.122 -11.154  18.959  0.00  0.00    -0.163 F 
ATOM      4  F   UNL     1      -6.039 -10.220  19.352  0.00  0.00    -0.163 F 
ATOM     28  C   UNL     1      -5.410 -11.442  19.340  0.00  0.00    +0.451 C 
ENDBRANCH  20  28
ENDBRANCH  17  18
BRANCH  12   6
ATOM      6  O   UNL     1      -8.862  -9.807  15.829  0.00  0.00    -0.485 OA
BRANCH   6  19
ATOM     19  C   UNL     1      -7.554 -10.120  15.585  0.00  0.00    +0.121 A 
ATOM     23  C   UNL     1      -6.542  -9.521  16.335  0.00  0.00    +0.047 A 
ATOM     24  C   UNL     1      -7.231 -11.037  14.584  0.00  0.00    +0.047 A 
ATOM     25  C   UNL     1      -4.885 -10.758  15.087  0.00  0.00    +0.088 A 
ATOM     26  C   UNL     1      -5.207  -9.841  16.086  0.00  0.00    +0.030 A 
ATOM     27  C   UNL     1      -5.896 -11.356  14.336  0.00  0.00    +0.030 A 
BRANCH  25   1
ATOM      1  S   UNL     1      -3.213 -11.155  14.772  0.00  0.00    -0.006 S 
ATOM      9  O   UNL     1      -3.085 -12.602  14.662  0.00  0.00    -0.170 OA
ATOM     10  O   UNL     1      -2.747 -10.303  13.688  0.00  0.00    -0.170 OA
ATOM     30  C   UNL     1      -2.357 -10.671  16.255  0.00  0.00    +0.200 C 
ENDBRANCH  25   1
ENDBRANCH   6  19
ENDBRANCH  12   6
TORSDOF 5
ENDMDL
MODEL 4
REMARK VINA RESULT:      -7.0     14.457     18.151
REMARK  Name = 75536889
REMARK  7 active torsions:
REMARK  status: ('A' for Active; 'I' for Inactive)
REMARK    1  A    between atoms: S_1  and  C_25
REMARK    2  A    between atoms: S_1  and  C_30
REMARK    3  A    between atoms: O_6  and  C_12
REMARK    4  A    between atoms: O_6  and  C_19
REMARK    5  A    between atoms: C_17  and  C_18
REMARK    6  A    between atoms: C_20  and  C_28
REMARK    7  A    between atoms: C_22  and  C_29
REMARK                            x       y       z     vdW  Elec       q    Type
REMARK                         _______ _______ _______ _____ _____    ______ ____
ROOT
ATOM      5  O   UNL     1      17.449  10.163  21.534  0.00  0.00    -0.375 OA
ATOM      8  O   UNL     1      14.981   6.201  19.706  0.00  0.00    -0.270 OA
ATOM     11  N   UNL     1      15.183   8.308  20.714  0.00  0.00    -0.292 N 
ATOM     12  C   UNL     1      15.470  10.679  20.086  0.00  0.00    +0.216 C 
ATOM     13  C   UNL     1      14.674   9.674  20.915  0.00  0.00    +0.155 C 
ATOM     14  C   UNL     1      16.448   7.980  21.376  0.00  0.00    +0.136 C 
ATOM     15  C   UNL     1      16.773  11.136  20.748  0.00  0.00    +0.206 C 
ATOM     16  C   UNL     1      17.592   8.883  20.928  0.00  0.00    +0.179 C 
ATOM     17  C   UNL     1      14.561   7.338  19.916  0.00  0.00    +0.250 C 
ENDROOT
BRANCH  17  18
ATOM      7  O   UNL     1      11.096   8.046  18.968  0.00  0.00    -0.455 OA
ATOM     18  C   UNL     1      13.296   7.688  19.259  0.00  0.00    +0.087 A 
ATOM     20  C   UNL     1      12.056   7.665  19.852  0.00  0.00    +0.220 A 
ATOM     21  C   UNL     1      13.086   8.110  17.924  0.00  0.00    +0.058 A 
ATOM     22  C   UNL     1      11.732   8.314  17.797  0.00  0.00    +0.103 A 
ATOM     29  C   UNL     1      10.880   8.752  16.682  0.00  0.00    +0.086 C 
BRANCH  20  28
ATOM      2  F   UNL     1      12.079   8.153  22.179  0.00  0.00    -0.163 F 
ATOM      3  F   UNL     1      10.221   7.374  21.360  0.00  0.00    -0.163 F 
ATOM      4  F   UNL     1      11.926   6.057  21.619  0.00  0.00    -0.163 F 
ATOM     28  C   UNL     1      11.586   7.322  21.203  0.00  0.00    +0.451 C 
ENDBRANCH  20  28
ENDBRANCH  17  18
BRANCH  12   6
ATOM      6  O   UNL     1      14.652  11.821  19.836  0.00  0.00    -0.485 OA
BRANCH   6  19
ATOM     19  C   UNL     1      13.732  12.135  20.797  0.00  0.00    +0.121 A 
ATOM     23  C   UNL     1      14.055  13.051  21.799  0.00  0.00    +0.047 A 
ATOM     24  C   UNL     1      12.470  11.540  20.777  0.00  0.00    +0.047 A 
ATOM     25  C   UNL     1      11.855  12.777  22.759  0.00  0.00    +0.088 A 
ATOM     26  C   UNL     1      13.115  13.372  22.780  0.00  0.00    +0.030 A 
ATOM     27  C   UNL     1      11.532  11.861  21.757  0.00  0.00    +0.030 A 
BRANCH  25   1
ATOM      1  S   UNL     1      10.680  13.175  23.989  0.00  0.00    -0.006 S 
ATOM      9  O   UNL     1       9.755  14.165  23.454  0.00  0.00    -0.170 OA
ATOM     10  O   UNL     1      10.168  11.929  24.539  0.00  0.00    -0.170 OA
ATOM     30  C   UNL     1      11.627  13.986  25.258  0.00  0.00    +0.200 C 
ENDBRANCH  25   1
ENDBRANCH   6  19
ENDBRANCH  12   6
TORSDOF 5
ENDMDL
MODEL 5
REMARK VINA RESULT:      -6.9     24.619     27.287
REMARK  Name = 75536889
REMARK  7 active torsions:
REMARK  status: ('A' for Active; 'I' for Inactive)
REMARK    1  A    between atoms: S_1  and  C_25
REMARK    2  A    between atoms: S_1  and  C_30
REMARK    3  A    between atoms: O_6  and  C_12
REMARK    4  A    between atoms: O_6  and  C_19
REMARK    5  A    between atoms: C_17  and  C_18
REMARK    6  A    between atoms: C_20  and  C_28
REMARK    7  A    between atoms: C_22  and  C_29
REMARK                            x       y       z     vdW  Elec       q    Type
REMARK                         _______ _______ _______ _____ _____    ______ ____
ROOT
ATOM      5  O   UNL     1      -6.710 -10.855  10.851  0.00  0.00    -0.375 OA
ATOM      8  O   UNL     1      -3.217 -13.318  13.471  0.00  0.00    -0.270 OA
ATOM     11  N   UNL     1      -4.548 -11.475  12.899  0.00  0.00    -0.292 N 
ATOM     12  C   UNL     1      -6.802 -10.566  13.339  0.00  0.00    +0.216 C 
ATOM     13  C   UNL     1      -5.303 -10.278  13.303  0.00  0.00    +0.155 C 
ATOM     14  C   UNL     1      -4.599 -11.828  11.477  0.00  0.00    +0.136 C 
ATOM     15  C   UNL     1      -7.487 -10.459  11.974  0.00  0.00    +0.206 C 
ATOM     16  C   UNL     1      -6.021 -12.092  10.994  0.00  0.00    +0.179 C 
ATOM     17  C   UNL     1      -3.830 -12.296  13.778  0.00  0.00    +0.250 C 
ENDROOT
BRANCH  17  18
ATOM      7  O   UNL     1      -3.078 -11.019  17.126  0.00  0.00    -0.455 OA
ATOM     18  C   UNL     1      -3.793 -11.926  15.198  0.00  0.00    +0.087 A 
ATOM     20  C   UNL     1      -2.809 -11.181  15.804  0.00  0.00    +0.220 A 
ATOM     21  C   UNL     1      -4.729 -12.242  16.213  0.00  0.00    +0.058 A 
ATOM     22  C   UNL     1      -4.247 -11.668  17.367  0.00  0.00    +0.103 A 
ATOM     29  C   UNL     1      -4.741 -11.624  18.750  0.00  0.00    +0.086 C 
BRANCH  20  28
ATOM      2  F   UNL     1      -1.715  -9.941  14.096  0.00  0.00    -0.163 F 
ATOM      3  F   UNL     1      -1.072  -9.572  16.141  0.00  0.00    -0.163 F 
ATOM      4  F   UNL     1      -0.520 -11.421  15.151  0.00  0.00    -0.163 F 
ATOM     28  C   UNL     1      -1.571 -10.552  15.318  0.00  0.00    +0.451 C 
ENDBRANCH  20  28
ENDBRANCH  17  18
BRANCH  12   6
ATOM      6  O   UNL     1      -7.425  -9.655  14.243  0.00  0.00    -0.485 OA
BRANCH   6  19
ATOM     19  C   UNL     1      -7.753 -10.146  15.476  0.00  0.00    +0.121 A 
ATOM     23  C   UNL     1      -8.313 -11.419  15.593  0.00  0.00    +0.047 A 
ATOM     24  C   UNL     1      -7.530  -9.375  16.617  0.00  0.00    +0.047 A 
ATOM     25  C   UNL     1      -8.425 -11.148  17.991  0.00  0.00    +0.088 A 
ATOM     26  C   UNL     1      -8.648 -11.920  16.852  0.00  0.00    +0.030 A 
ATOM     27  C   UNL     1      -7.865  -9.875  17.874  0.00  0.00    +0.030 A 
BRANCH  25   1
ATOM      1  S   UNL     1      -8.848 -11.773  19.566  0.00  0.00    -0.006 S 
ATOM      9  O   UNL     1      -7.659 -12.347  20.181  0.00  0.00    -0.170 OA
ATOM     10  O   UNL     1      -9.600 -10.745  20.269  0.00  0.00    -0.170 OA
ATOM     30  C   UNL     1      -9.956 -13.122  19.223  0.00  0.00    +0.200 C 
ENDBRANCH  25   1
ENDBRANCH   6  19
ENDBRANCH  12   6
TORSDOF 5
ENDMDL
MODEL 6
REMARK VINA RESULT:      -6.8     25.808     28.639
REMARK  Name = 75536889
REMARK  7 active torsions:
REMARK  status: ('A' for Active; 'I' for Inactive)
REMARK    1  A    between atoms: S_1  and  C_25
REMARK    2  A    between atoms: S_1  and  C_30
REMARK    3  A    between atoms: O_6  and  C_12
REMARK    4  A    between atoms: O_6  and  C_19
REMARK    5  A    between atoms: C_17  and  C_18
REMARK    6  A    between atoms: C_20  and  C_28
REMARK    7  A    between atoms: C_22  and  C_29
REMARK                            x       y       z     vdW  Elec       q    Type
REMARK                         _______ _______ _______ _____ _____    ______ ____
ROOT
ATOM      5  O   UNL     1      -3.357 -14.508  13.168  0.00  0.00    -0.375 OA
ATOM      8  O   UNL     1      -2.469 -10.727  16.339  0.00  0.00    -0.270 OA
ATOM     11  N   UNL     1      -3.705 -11.937  14.756  0.00  0.00    -0.292 N 
ATOM     12  C   UNL     1      -5.272 -13.843  14.643  0.00  0.00    +0.216 C 
ATOM     13  C   UNL     1      -5.005 -12.395  14.239  0.00  0.00    +0.155 C 
ATOM     14  C   UNL     1      -2.515 -12.438  14.064  0.00  0.00    +0.136 C 
ATOM     15  C   UNL     1      -4.614 -14.875  13.722  0.00  0.00    +0.206 C 
ATOM     16  C   UNL     1      -2.422 -13.960  14.091  0.00  0.00    +0.179 C 
ATOM     17  C   UNL     1      -3.543 -11.099  15.868  0.00  0.00    +0.250 C 
ENDROOT
BRANCH  17  18
ATOM      7  O   UNL     1      -6.285 -10.304  18.160  0.00  0.00    -0.455 OA
ATOM     18  C   UNL     1      -4.748 -10.611  16.549  0.00  0.00    +0.087 A 
ATOM     20  C   UNL     1      -5.118 -10.920  17.837  0.00  0.00    +0.220 A 
ATOM     21  C   UNL     1      -5.753  -9.748  16.048  0.00  0.00    +0.058 A 
ATOM     22  C   UNL     1      -6.664  -9.593  17.066  0.00  0.00    +0.103 A 
ATOM     29  C   UNL     1      -7.917  -8.833  17.188  0.00  0.00    +0.086 C 
BRANCH  20  28
ATOM      2  F   UNL     1      -4.462 -13.088  18.560  0.00  0.00    -0.163 F 
ATOM      3  F   UNL     1      -3.226 -11.422  19.213  0.00  0.00    -0.163 F 
ATOM      4  F   UNL     1      -5.187 -11.722  20.090  0.00  0.00    -0.163 F 
ATOM     28  C   UNL     1      -4.519 -11.756  18.889  0.00  0.00    +0.451 C 
ENDBRANCH  20  28
ENDBRANCH  17  18
BRANCH  12   6
ATOM      6  O   UNL     1      -6.681 -14.066  14.656  0.00  0.00    -0.485 OA
BRANCH   6  19
ATOM     19  C   UNL     1      -7.368 -13.572  15.730  0.00  0.00    +0.121 A 
ATOM     23  C   UNL     1      -8.403 -12.657  15.534  0.00  0.00    +0.047 A 
ATOM     24  C   UNL     1      -7.033 -13.980  17.021  0.00  0.00    +0.047 A 
ATOM     25  C   UNL     1      -8.770 -12.563  17.920  0.00  0.00    +0.088 A 
ATOM     26  C   UNL     1      -9.104 -12.153  16.630  0.00  0.00    +0.030 A 
ATOM     27  C   UNL     1      -7.734 -13.477  18.116  0.00  0.00    +0.030 A 
BRANCH  25   1
ATOM      1  S   UNL     1      -9.645 -11.928  19.292  0.00  0.00    -0.006 S 
ATOM      9  O   UNL     1      -8.742 -11.108  20.089  0.00  0.00    -0.170 OA
ATOM     10  O   UNL     1     -10.894 -11.363  18.804  0.00  0.00    -0.170 OA
ATOM     30  C   UNL     1     -10.037 -13.363  20.268  0.00  0.00    +0.200 C 
ENDBRANCH  25   1
ENDBRANCH   6  19
ENDBRANCH  12   6
TORSDOF 5
ENDMDL
MODEL 7
REMARK VINA RESULT:      -6.7      3.868      7.332
REMARK  Name = 75536889
REMARK  7 active torsions:
REMARK  status: ('A' for Active; 'I' for Inactive)
REMARK    1  A    between atoms: S_1  and  C_25
REMARK    2  A    between atoms: S_1  and  C_30
REMARK    3  A    between atoms: O_6  and  C_12
REMARK    4  A    between atoms: O_6  and  C_19
REMARK    5  A    between atoms: C_17  and  C_18
REMARK    6  A    between atoms: C_20  and  C_28
REMARK    7  A    between atoms: C_22  and  C_29
REMARK                            x       y       z     vdW  Elec       q    Type
REMARK                         _______ _______ _______ _____ _____    ______ ____
ROOT
ATOM      5  O   UNL     1      17.371   8.794   3.944  0.00  0.00    -0.375 OA
ATOM      8  O   UNL     1      13.961   7.235   0.616  0.00  0.00    -0.270 OA
ATOM     11  N   UNL     1      15.269   7.089   2.557  0.00  0.00    -0.292 N 
ATOM     12  C   UNL     1      15.253   7.858   4.904  0.00  0.00    +0.216 C 
ATOM     13  C   UNL     1      15.419   6.669   3.959  0.00  0.00    +0.155 C 
ATOM     14  C   UNL     1      16.396   7.819   1.971  0.00  0.00    +0.136 C 
ATOM     15  C   UNL     1      16.526   8.689   5.084  0.00  0.00    +0.206 C 
ATOM     16  C   UNL     1      16.710   9.108   2.724  0.00  0.00    +0.179 C 
ATOM     17  C   UNL     1      14.124   6.868   1.779  0.00  0.00    +0.250 C 
ENDROOT
BRANCH  17  18
ATOM      7  O   UNL     1      11.648   4.432   2.939  0.00  0.00    -0.455 OA
ATOM     18  C   UNL     1      13.005   6.137   2.386  0.00  0.00    +0.087 A 
ATOM     20  C   UNL     1      12.764   4.790   2.250  0.00  0.00    +0.220 A 
ATOM     21  C   UNL     1      11.971   6.640   3.213  0.00  0.00    +0.058 A 
ATOM     22  C   UNL     1      11.172   5.564   3.521  0.00  0.00    +0.103 A 
ATOM     29  C   UNL     1       9.955   5.415   4.331  0.00  0.00    +0.086 C 
BRANCH  20  28
ATOM      2  F   UNL     1      14.701   3.431   2.026  0.00  0.00    -0.163 F 
ATOM      3  F   UNL     1      12.793   2.500   1.559  0.00  0.00    -0.163 F 
ATOM      4  F   UNL     1      13.651   3.949   0.193  0.00  0.00    -0.163 F 
ATOM     28  C   UNL     1      13.451   3.706   1.531  0.00  0.00    +0.451 C 
ENDBRANCH  20  28
ENDBRANCH  17  18
BRANCH  12   6
ATOM      6  O   UNL     1      14.830   7.377   6.179  0.00  0.00    -0.485 OA
BRANCH   6  19
ATOM     19  C   UNL     1      13.528   7.615   6.520  0.00  0.00    +0.121 A 
ATOM     23  C   UNL     1      12.986   8.891   6.358  0.00  0.00    +0.047 A 
ATOM     24  C   UNL     1      12.741   6.584   7.033  0.00  0.00    +0.047 A 
ATOM     25  C   UNL     1      10.871   8.103   7.218  0.00  0.00    +0.088 A 
ATOM     26  C   UNL     1      11.657   9.134   6.706  0.00  0.00    +0.030 A 
ATOM     27  C   UNL     1      11.413   6.827   7.381  0.00  0.00    +0.030 A 
BRANCH  25   1
ATOM      1  S   UNL     1       9.209   8.408   7.658  0.00  0.00    -0.006 S 
ATOM      9  O   UNL     1       8.662   7.214   8.289  0.00  0.00    -0.170 OA
ATOM     10  O   UNL     1       9.158   9.683   8.357  0.00  0.00    -0.170 OA
ATOM     30  C   UNL     1       8.368   8.603   6.103  0.00  0.00    +0.200 C 
ENDBRANCH  25   1
ENDBRANCH   6  19
ENDBRANCH  12   6
TORSDOF 5
ENDMDL
MODEL 8
REMARK VINA RESULT:      -6.7     23.643     26.660
REMARK  Name = 75536889
REMARK  7 active torsions:
REMARK  status: ('A' for Active; 'I' for Inactive)
REMARK    1  A    between atoms: S_1  and  C_25
REMARK    2  A    between atoms: S_1  and  C_30
REMARK    3  A    between atoms: O_6  and  C_12
REMARK    4  A    between atoms: O_6  and  C_19
REMARK    5  A    between atoms: C_17  and  C_18
REMARK    6  A    between atoms: C_20  and  C_28
REMARK    7  A    between atoms: C_22  and  C_29
REMARK                            x       y       z     vdW  Elec       q    Type
REMARK                         _______ _______ _______ _____ _____    ______ ____
ROOT
ATOM      5  O   UNL     1      -9.082 -10.748  18.198  0.00  0.00    -0.375 OA
ATOM      8  O   UNL     1      -4.502 -12.733  18.655  0.00  0.00    -0.270 OA
ATOM     11  N   UNL     1      -6.610 -12.440  17.673  0.00  0.00    -0.292 N 
ATOM     12  C   UNL     1      -7.757 -10.941  16.080  0.00  0.00    +0.216 C 
ATOM     13  C   UNL     1      -7.454 -12.386  16.469  0.00  0.00    +0.155 C 
ATOM     14  C   UNL     1      -7.272 -12.147  18.947  0.00  0.00    +0.136 C 
ATOM     15  C   UNL     1      -8.927 -10.323  16.850  0.00  0.00    +0.206 C 
ATOM     16  C   UNL     1      -7.890 -10.753  18.976  0.00  0.00    +0.179 C 
ATOM     17  C   UNL     1      -5.235 -12.713  17.668  0.00  0.00    +0.250 C 
ENDROOT
BRANCH  17  18
ATOM      7  O   UNL     1      -3.263 -12.757  14.583  0.00  0.00    -0.455 OA
ATOM     18  C   UNL     1      -4.590 -13.000  16.381  0.00  0.00    +0.087 A 
ATOM     20  C   UNL     1      -3.660 -12.202  15.759  0.00  0.00    +0.220 A 
ATOM     21  C   UNL     1      -4.779 -14.119  15.534  0.00  0.00    +0.058 A 
ATOM     22  C   UNL     1      -3.950 -13.923  14.454  0.00  0.00    +0.103 A 
ATOM     29  C   UNL     1      -3.677 -14.706  13.241  0.00  0.00    +0.086 C 
BRANCH  20  28
ATOM      2  F   UNL     1      -3.932  -9.980  16.559  0.00  0.00    -0.163 F 
ATOM      3  F   UNL     1      -2.083 -10.994  17.092  0.00  0.00    -0.163 F 
ATOM      4  F   UNL     1      -2.389 -10.299  15.060  0.00  0.00    -0.163 F 
ATOM     28  C   UNL     1      -3.036 -10.915  16.104  0.00  0.00    +0.451 C 
ENDBRANCH  20  28
ENDBRANCH  17  18
BRANCH  12   6
ATOM      6  O   UNL     1      -8.043 -10.890  14.683  0.00  0.00    -0.485 OA
BRANCH   6  19
ATOM     19  C   UNL     1      -6.969 -10.922  13.838  0.00  0.00    +0.121 A 
ATOM     23  C   UNL     1      -6.843 -11.956  12.910  0.00  0.00    +0.047 A 
ATOM     24  C   UNL     1      -5.998  -9.923  13.903  0.00  0.00    +0.047 A 
ATOM     25  C   UNL     1      -4.778 -10.990  12.112  0.00  0.00    +0.088 A 
ATOM     26  C   UNL     1      -5.748 -11.990  12.046  0.00  0.00    +0.030 A 
ATOM     27  C   UNL     1      -4.903  -9.956  13.041  0.00  0.00    +0.030 A 
BRANCH  25   1
ATOM      1  S   UNL     1      -3.404 -11.034  11.035  0.00  0.00    -0.006 S 
ATOM      9  O   UNL     1      -2.192 -11.208  11.824  0.00  0.00    -0.170 OA
ATOM     10  O   UNL     1      -3.708 -11.967   9.960  0.00  0.00    -0.170 OA
ATOM     30  C   UNL     1      -3.337  -9.399  10.337  0.00  0.00    +0.200 C 
ENDBRANCH  25   1
ENDBRANCH   6  19
ENDBRANCH  12   6
TORSDOF 5
ENDMDL
MODEL 9
REMARK VINA RESULT:      -6.5      2.474      4.179
REMARK  Name = 75536889
REMARK  7 active torsions:
REMARK  status: ('A' for Active; 'I' for Inactive)
REMARK    1  A    between atoms: S_1  and  C_25
REMARK    2  A    between atoms: S_1  and  C_30
REMARK    3  A    between atoms: O_6  and  C_12
REMARK    4  A    between atoms: O_6  and  C_19
REMARK    5  A    between atoms: C_17  and  C_18
REMARK    6  A    between atoms: C_20  and  C_28
REMARK    7  A    between atoms: C_22  and  C_29
REMARK                            x       y       z     vdW  Elec       q    Type
REMARK                         _______ _______ _______ _____ _____    ______ ____
ROOT
ATOM      5  O   UNL     1       8.351   6.794   6.482  0.00  0.00    -0.375 OA
ATOM      8  O   UNL     1      12.174   9.791   5.242  0.00  0.00    -0.270 OA
ATOM     11  N   UNL     1      11.161   7.762   5.835  0.00  0.00    -0.292 N 
ATOM     12  C   UNL     1       9.955   5.878   4.787  0.00  0.00    +0.216 C 
ATOM     13  C   UNL     1      11.089   6.296   5.721  0.00  0.00    +0.155 C 
ATOM     14  C   UNL     1      10.134   8.402   6.660  0.00  0.00    +0.136 C 
ATOM     15  C   UNL     1       8.582   5.829   5.464  0.00  0.00    +0.206 C 
ATOM     16  C   UNL     1       8.722   8.128   6.151  0.00  0.00    +0.179 C 
ATOM     17  C   UNL     1      12.111   8.563   5.187  0.00  0.00    +0.250 C 
ENDROOT
BRANCH  17  18
ATOM      7  O   UNL     1      15.103   7.016   3.752  0.00  0.00    -0.455 OA
ATOM     18  C   UNL     1      13.130   7.902   4.363  0.00  0.00    +0.087 A 
ATOM     20  C   UNL     1      14.422   7.639   4.751  0.00  0.00    +0.220 A 
ATOM     21  C   UNL     1      13.007   7.409   3.041  0.00  0.00    +0.058 A 
ATOM     22  C   UNL     1      14.235   6.881   2.716  0.00  0.00    +0.103 A 
ATOM     29  C   UNL     1      14.759   6.223   1.511  0.00  0.00    +0.086 C 
BRANCH  20  28
ATOM      2  F   UNL     1      14.956   6.953   6.963  0.00  0.00    -0.163 F 
ATOM      3  F   UNL     1      16.545   7.902   5.822  0.00  0.00    -0.163 F 
ATOM      4  F   UNL     1      14.903   9.095   6.587  0.00  0.00    -0.163 F 
ATOM     28  C   UNL     1      15.180   7.891   5.986  0.00  0.00    +0.451 C 
ENDBRANCH  20  28
ENDBRANCH  17  18
BRANCH  12   6
ATOM      6  O   UNL     1      10.252   4.591   4.248  0.00  0.00    -0.485 OA
BRANCH   6  19
ATOM     19  C   UNL     1      10.692   4.557   2.954  0.00  0.00    +0.121 A 
ATOM     23  C   UNL     1      11.667   3.635   2.574  0.00  0.00    +0.047 A 
ATOM     24  C   UNL     1      10.168   5.445   2.015  0.00  0.00    +0.047 A 
ATOM     25  C   UNL     1      11.591   4.487   0.315  0.00  0.00    +0.088 A 
ATOM     26  C   UNL     1      12.116   3.600   1.253  0.00  0.00    +0.030 A 
ATOM     27  C   UNL     1      10.617   5.410   0.695  0.00  0.00    +0.030 A 
BRANCH  25   1
ATOM      1  S   UNL     1      12.157   4.447  -1.337  0.00  0.00    -0.006 S 
ATOM      9  O   UNL     1      11.678   5.637  -2.029  0.00  0.00    -0.170 OA
ATOM     10  O   UNL     1      13.580   4.147  -1.316  0.00  0.00    -0.170 OA
ATOM     30  C   UNL     1      11.315   3.056  -2.059  0.00  0.00    +0.200 C 
ENDBRANCH  25   1
ENDBRANCH   6  19
ENDBRANCH  12   6
TORSDOF 5
ENDMDL
MODEL 10
REMARK VINA RESULT:      -6.5     25.463     28.671
REMARK  Name = 75536889
REMARK  7 active torsions:
REMARK  status: ('A' for Active; 'I' for Inactive)
REMARK    1  A    between atoms: S_1  and  C_25
REMARK    2  A    between atoms: S_1  and  C_30
REMARK    3  A    between atoms: O_6  and  C_12
REMARK    4  A    between atoms: O_6  and  C_19
REMARK    5  A    between atoms: C_17  and  C_18
REMARK    6  A    between atoms: C_20  and  C_28
REMARK    7  A    between atoms: C_22  and  C_29
REMARK                            x       y       z     vdW  Elec       q    Type
REMARK                         _______ _______ _______ _____ _____    ______ ____
ROOT
ATOM      5  O   UNL     1      -8.479 -13.258  20.292  0.00  0.00    -0.375 OA
ATOM      8  O   UNL     1     -12.154 -11.708  17.255  0.00  0.00    -0.270 OA
ATOM     11  N   UNL     1     -10.396 -11.442  18.783  0.00  0.00    -0.292 N 
ATOM     12  C   UNL     1      -7.930 -11.308  18.817  0.00  0.00    +0.216 C 
ATOM     13  C   UNL     1      -9.241 -10.670  19.270  0.00  0.00    +0.155 C 
ATOM     14  C   UNL     1     -10.674 -12.704  19.474  0.00  0.00    +0.136 C 
ATOM     15  C   UNL     1      -7.458 -12.457  19.712  0.00  0.00    +0.206 C 
ATOM     16  C   UNL     1      -9.504 -13.679  19.398  0.00  0.00    +0.179 C 
ATOM     17  C   UNL     1     -11.204 -11.066  17.701  0.00  0.00    +0.250 C 
ENDROOT
BRANCH  17  18
ATOM      7  O   UNL     1     -10.074  -8.358  15.511  0.00  0.00    -0.455 OA
ATOM     18  C   UNL     1     -10.906  -9.799  17.021  0.00  0.00    +0.087 A 
ATOM     20  C   UNL     1     -10.156  -9.665  15.877  0.00  0.00    +0.220 A 
ATOM     21  C   UNL     1     -11.313  -8.492  17.382  0.00  0.00    +0.058 A 
ATOM     22  C   UNL     1     -10.780  -7.652  16.432  0.00  0.00    +0.103 A 
ATOM     29  C   UNL     1     -10.833  -6.197  16.234  0.00  0.00    +0.086 C 
BRANCH  20  28
ATOM      2  F   UNL     1      -8.764 -11.584  15.705  0.00  0.00    -0.163 F 
ATOM      3  F   UNL     1     -10.271 -11.325  14.159  0.00  0.00    -0.163 F 
ATOM      4  F   UNL     1      -8.515 -10.053  14.181  0.00  0.00    -0.163 F 
ATOM     28  C   UNL     1      -9.452 -10.621  15.009  0.00  0.00    +0.451 C 
ENDBRANCH  20  28
ENDBRANCH  17  18
BRANCH  12   6
ATOM      6  O   UNL     1      -6.918 -10.303  18.780  0.00  0.00    -0.485 OA
BRANCH   6  19
ATOM     19  C   UNL     1      -5.916 -10.478  17.867  0.00  0.00    +0.121 A 
ATOM     23  C   UNL     1      -4.707 -11.055  18.259  0.00  0.00    +0.047 A 
ATOM     24  C   UNL     1      -6.100 -10.079  16.543  0.00  0.00    +0.047 A 
ATOM     25  C   UNL     1      -3.870 -10.836  16.004  0.00  0.00    +0.088 A 
ATOM     26  C   UNL     1      -3.685 -11.235  17.328  0.00  0.00    +0.030 A 
ATOM     27  C   UNL     1      -5.077 -10.258  15.612  0.00  0.00    +0.030 A 
BRANCH  25   1
ATOM      1  S   UNL     1      -2.588 -11.056  14.839  0.00  0.00    -0.006 S 
ATOM      9  O   UNL     1      -2.288 -12.477  14.731  0.00  0.00    -0.170 OA
ATOM     10  O   UNL     1      -2.932 -10.297  13.646  0.00  0.00    -0.170 OA
ATOM     30  C   UNL     1      -1.171 -10.284  15.589  0.00  0.00    +0.200 C 
ENDBRANCH  25   1
ENDBRANCH   6  19
ENDBRANCH  12   6
TORSDOF 5
ENDMDL
