REMARK  Name = 7675150
REMARK  4 active torsions:
REMARK  status: ('A' for Active; 'I' for Inactive)
REMARK    1  A    between atoms: N_5  and  C_14
REMARK    2  A    between atoms: C_14  and  C_16
REMARK    3  A    between atoms: C_14  and  C_17
REMARK    4  A    between atoms: C_15  and  C_18
REMARK                            x       y       z     vdW  Elec       q    Type
REMARK                         _______ _______ _______ _____ _____    ______ ____
ROOT
ATOM      1  O   UNL     1       0.475   2.049   0.821  0.00  0.00    -0.273 OA
ATOM      2  O   UNL     1       2.469  -2.066   0.238  0.00  0.00    -0.252 OA
ATOM      3  O   UNL     1      -4.353  -2.322  -0.677  0.00  0.00    -0.270 OA
ATOM      4  N   UNL     1       0.352  -1.228  -0.307  0.00  0.00    -0.271 N 
ATOM      5  N   UNL     1       1.821   0.146   0.640  0.00  0.00    -0.217 N 
ATOM      6  N   UNL     1      -2.402  -1.326   0.068  0.00  0.00    -0.294 N 
ATOM      8  C   UNL     1      -0.372   0.021  -0.205  0.00  0.00    +0.181 C 
ATOM      9  C   UNL     1      -1.645  -0.176   0.604  0.00  0.00    +0.140 C 
ATOM     10  C   UNL     1      -0.349  -2.413  -0.771  0.00  0.00    +0.129 C 
ATOM     11  C   UNL     1      -1.645  -2.587   0.022  0.00  0.00    +0.127 C 
ATOM     12  C   UNL     1       0.667   0.888   0.483  0.00  0.00    +0.246 C 
ATOM     13  C   UNL     1       1.653  -1.154   0.190  0.00  0.00    +0.312 C 
ATOM     15  C   UNL     1      -3.757  -1.310  -0.305  0.00  0.00    +0.248 C 
ENDROOT
BRANCH  15  18
ATOM      7  N   UNL     1      -5.766   1.540   1.035  0.00  0.00    -0.263 NA
ATOM     18  C   UNL     1      -4.453  -0.029  -0.243  0.00  0.00    +0.055 A 
ATOM     23  C   UNL     1      -4.479   0.820  -1.340  0.00  0.00    +0.016 A 
ATOM     24  C   UNL     1      -5.103   0.368   0.911  0.00  0.00    +0.123 A 
ATOM     26  C   UNL     1      -5.151   2.034  -1.250  0.00  0.00    +0.020 A 
ATOM     27  C   UNL     1      -5.772   2.344  -0.051  0.00  0.00    +0.111 A 
ENDBRANCH  15  18
BRANCH   5  14
ATOM     14  C   UNL     1       3.031   0.654   1.255  0.00  0.00    +0.113 C 
ATOM     17  C   UNL     1       3.345  -0.113   2.538  0.00  0.00    +0.034 C 
BRANCH  14  16
ATOM     16  C   UNL     1       4.187   0.649   0.279  0.00  0.00    -0.027 A 
ATOM     19  C   UNL     1       4.353   1.723  -0.578  0.00  0.00    +0.005 A 
ATOM     20  C   UNL     1       5.054  -0.430   0.264  0.00  0.00    +0.005 A 
ATOM     21  C   UNL     1       5.418   1.718  -1.478  0.00  0.00    +0.000 A 
ATOM     22  C   UNL     1       6.119  -0.435  -0.636  0.00  0.00    +0.000 A 
ATOM     25  C   UNL     1       6.302   0.639  -1.507  0.00  0.00    +0.000 A 
ENDBRANCH  14  16
ENDBRANCH   5  14
TORSDOF 3
