REMARK  Name = 45361636
REMARK  11 active torsions:
REMARK  status: ('A' for Active; 'I' for Inactive)
REMARK    1  A    between atoms: O_1  and  C_12
REMARK    2  A    between atoms: O_4  and  C_29
REMARK    3  A    between atoms: O_4  and  C_33
REMARK    4  A    between atoms: N_5  and  C_16
REMARK    5  A    between atoms: C_9  and  C_19
REMARK    6  A    between atoms: C_11  and  C_21
REMARK    7  A    between atoms: C_14  and  C_20
REMARK    8  A    between atoms: C_20  and  C_22
REMARK    9  A    between atoms: C_20  and  C_23
REMARK   10  A    between atoms: C_24  and  C_29
REMARK   11  A    between atoms: C_25  and  C_30
REMARK                            x       y       z     vdW  Elec       q    Type
REMARK                         _______ _______ _______ _____ _____    ______ ____
ROOT
ATOM      9  C   UNL     1      -0.362  -1.705   0.608  0.00  0.00    -0.027 C 
ATOM     10  C   UNL     1      -0.456  -0.225   0.107  0.00  0.00    +0.028 C 
ATOM     11  C   UNL     1      -1.886   0.082  -0.466  0.00  0.00    +0.012 C 
ATOM     12  C   UNL     1       0.732   0.128  -0.835  0.00  0.00    +0.122 C 
ATOM     13  C   UNL     1       1.018  -1.940   1.267  0.00  0.00    +0.007 C 
ATOM     14  C   UNL     1       2.106  -0.206  -0.209  0.00  0.00    +0.029 C 
ATOM     15  C   UNL     1      -1.445  -1.942   1.685  0.00  0.00    +0.009 C 
ATOM     16  C   UNL     1      -2.972  -0.232   0.601  0.00  0.00    +0.076 C 
ATOM     17  C   UNL     1       2.182  -1.633   0.335  0.00  0.00    +0.007 C 
ATOM     18  C   UNL     1      -2.853  -1.635   1.195  0.00  0.00    +0.023 C 
ATOM     19  C   UNL     1      -0.548  -2.732  -0.538  0.00  0.00    +0.011 C 
ATOM     21  C   UNL     1      -2.057   1.531  -0.951  0.00  0.00    +0.010 C 
ENDROOT
BRANCH  16   5
ATOM      3  O   UNL     1      -5.303   0.617   2.046  0.00  0.00    -0.270 OA
ATOM      5  N   UNL     1      -4.309  -0.071   0.068  0.00  0.00    -0.308 N 
ATOM     25  C   UNL     1      -5.372   0.345   0.850  0.00  0.00    +0.247 C 
ATOM     35  H   UNL     1      -4.465  -0.375  -0.888  0.00  0.00    +0.149 HD
BRANCH  25  30
ATOM      7  N   UNL     1      -9.090   0.367   0.240  0.00  0.00    -0.243 NA
ATOM      8  N   UNL     1      -7.963   0.752  -1.854  0.00  0.00    -0.243 NA
ATOM     30  C   UNL     1      -6.685   0.435   0.161  0.00  0.00    +0.073 A 
ATOM     31  C   UNL     1      -7.880   0.292   0.835  0.00  0.00    +0.127 A 
ATOM     32  C   UNL     1      -6.788   0.665  -1.196  0.00  0.00    +0.127 A 
ATOM     34  C   UNL     1      -9.058   0.596  -1.086  0.00  0.00    +0.221 A 
ENDBRANCH  25  30
ENDBRANCH  16   5
BRANCH  12   1
ATOM      1  O   UNL     1       0.733   1.532  -1.095  0.00  0.00    -0.391 OA
ATOM     36  H   UNL     1       0.832   1.997  -0.247  0.00  0.00    +0.210 HD
ENDBRANCH  12   1
BRANCH  14  20
ATOM     20  C   UNL     1       3.253   0.026  -1.200  0.00  0.00    +0.078 C 
ATOM     23  C   UNL     1       3.109  -0.862  -2.423  0.00  0.00    +0.017 C 
BRANCH  20  22
ATOM      2  O   UNL     1       5.056  -1.389  -0.554  0.00  0.00    -0.275 OA
ATOM      6  N   UNL     1       5.126   0.808   0.169  0.00  0.00    -0.296 N 
ATOM     22  C   UNL     1       4.559  -0.263  -0.502  0.00  0.00    +0.219 C 
ATOM     24  C   UNL     1       6.340   0.679   0.978  0.00  0.00    +0.102 C 
ATOM     26  C   UNL     1       4.573   2.157   0.257  0.00  0.00    +0.108 C 
ATOM     27  C   UNL     1       6.333   1.938   1.849  0.00  0.00    +0.026 C 
ATOM     28  C   UNL     1       5.643   2.972   0.967  0.00  0.00    +0.021 C 
BRANCH  24  29
ATOM     29  C   UNL     1       7.588   0.590   0.102  0.00  0.00    +0.181 C 
BRANCH  29   4
ATOM      4  O   UNL     1       7.764  -0.757  -0.293  0.00  0.00    -0.381 OA
ATOM     33  C   UNL     1       8.914  -0.920  -1.117  0.00  0.00    +0.194 C 
ENDBRANCH  29   4
ENDBRANCH  24  29
ENDBRANCH  20  22
ENDBRANCH  14  20
TORSDOF 7
