MODEL 1
REMARK VINA RESULT:      -6.0      0.000      0.000
REMARK  Name = 71694041
REMARK  9 active torsions:
REMARK  status: ('A' for Active; 'I' for Inactive)
REMARK    1  A    between atoms: O_4  and  C_10
REMARK    2  A    between atoms: O_5  and  C_12
REMARK    3  A    between atoms: O_6  and  C_26
REMARK    4  A    between atoms: O_6  and  C_27
REMARK    5  A    between atoms: N_7  and  C_9
REMARK    6  A    between atoms: N_7  and  C_14
REMARK    7  A    between atoms: C_8  and  C_13
REMARK    8  A    between atoms: C_14  and  C_17
REMARK    9  A    between atoms: C_20  and  C_23
REMARK                            x       y       z     vdW  Elec       q    Type
REMARK                         _______ _______ _______ _____ _____    ______ ____
ROOT
ATOM      8  C   UNL     1      11.482   5.958   2.913  0.00  0.00    +0.041 C 
ATOM      9  C   UNL     1      10.335   6.405   1.978  0.00  0.00    +0.092 C 
ATOM     10  C   UNL     1      10.749   5.834   0.621  0.00  0.00    +0.160 C 
ATOM     11  C   UNL     1      12.075   4.681   2.259  0.00  0.00    +0.043 C 
ATOM     12  C   UNL     1      11.261   4.444   0.986  0.00  0.00    +0.145 C 
ENDROOT
BRANCH   8  13
ATOM     13  C   UNL     1      11.040   5.770   4.349  0.00  0.00    -0.043 A 
ATOM     15  C   UNL     1      10.006   4.883   4.650  0.00  0.00    +0.004 A 
ATOM     16  C   UNL     1      11.667   6.483   5.371  0.00  0.00    +0.004 A 
ATOM     18  C   UNL     1       9.599   4.709   5.973  0.00  0.00    +0.012 A 
ATOM     19  C   UNL     1      11.260   6.309   6.694  0.00  0.00    +0.012 A 
ATOM     20  C   UNL     1      10.226   5.423   6.994  0.00  0.00    +0.055 A 
BRANCH  20  23
ATOM      1  F   UNL     1       9.418   3.954   8.701  0.00  0.00    -0.166 F 
ATOM      2  F   UNL     1       8.724   6.008   8.761  0.00  0.00    -0.166 F 
ATOM      3  F   UNL     1      10.776   5.541   9.304  0.00  0.00    -0.166 F 
ATOM     23  C   UNL     1       9.793   5.235   8.409  0.00  0.00    +0.417 C 
ENDBRANCH  20  23
ENDBRANCH   8  13
BRANCH  10   4
ATOM      4  O   UNL     1       9.659   5.780  -0.278  0.00  0.00    -0.388 OA
ATOM     29  H   UNL     1       8.845   5.855   0.247  0.00  0.00    +0.210 HD
ENDBRANCH  10   4
BRANCH  12   5
ATOM      5  O   UNL     1      10.167   3.578   1.276  0.00  0.00    -0.389 OA
ATOM     30  H   UNL     1       9.434   3.828   0.687  0.00  0.00    +0.210 HD
ENDBRANCH  12   5
BRANCH   9   7
ATOM      7  N   UNL     1      10.195   7.856   1.934  0.00  0.00    -0.306 NA
ATOM     28  H   UNL     1      10.922   8.277   2.514  0.00  0.00    +0.123 HD
BRANCH   7  14
ATOM     14  C   UNL     1       8.895   8.268   2.440  0.00  0.00    +0.116 C 
BRANCH  14  17
ATOM     17  C   UNL     1       8.933   8.553   3.918  0.00  0.00    -0.033 A 
ATOM     21  C   UNL     1       8.038   7.914   4.776  0.00  0.00    +0.008 A 
ATOM     22  C   UNL     1       9.866   9.456   4.431  0.00  0.00    +0.008 A 
ATOM     24  C   UNL     1       8.074   8.179   6.145  0.00  0.00    +0.046 A 
ATOM     25  C   UNL     1       9.903   9.720   5.799  0.00  0.00    +0.046 A 
ATOM     26  C   UNL     1       9.007   9.082   6.657  0.00  0.00    +0.120 A 
BRANCH  26   6
ATOM      6  O   UNL     1       9.043   9.338   7.993  0.00  0.00    -0.495 OA
ATOM     27  C   UNL     1      10.170  10.064   8.484  0.00  0.00    +0.277 C 
ENDBRANCH  26   6
ENDBRANCH  14  17
ENDBRANCH   7  14
ENDBRANCH   9   7
TORSDOF 8
ENDMDL
MODEL 2
REMARK VINA RESULT:      -5.8     25.175     27.427
REMARK  Name = 71694041
REMARK  9 active torsions:
REMARK  status: ('A' for Active; 'I' for Inactive)
REMARK    1  A    between atoms: O_4  and  C_10
REMARK    2  A    between atoms: O_5  and  C_12
REMARK    3  A    between atoms: O_6  and  C_26
REMARK    4  A    between atoms: O_6  and  C_27
REMARK    5  A    between atoms: N_7  and  C_9
REMARK    6  A    between atoms: N_7  and  C_14
REMARK    7  A    between atoms: C_8  and  C_13
REMARK    8  A    between atoms: C_14  and  C_17
REMARK    9  A    between atoms: C_20  and  C_23
REMARK                            x       y       z     vdW  Elec       q    Type
REMARK                         _______ _______ _______ _____ _____    ______ ____
ROOT
ATOM      8  C   UNL     1     -10.694   8.736  18.112  0.00  0.00    +0.041 C 
ATOM      9  C   UNL     1     -11.090  10.176  17.713  0.00  0.00    +0.092 C 
ATOM     10  C   UNL     1     -10.464  10.338  16.327  0.00  0.00    +0.160 C 
ATOM     11  C   UNL     1     -10.487   7.978  16.773  0.00  0.00    +0.043 C 
ATOM     12  C   UNL     1     -10.764   8.996  15.666  0.00  0.00    +0.145 C 
ENDROOT
BRANCH   8  13
ATOM     13  C   UNL     1     -11.689   8.082  19.047  0.00  0.00    -0.043 A 
ATOM     15  C   UNL     1     -13.050   8.097  18.737  0.00  0.00    +0.004 A 
ATOM     16  C   UNL     1     -11.247   7.464  20.216  0.00  0.00    +0.004 A 
ATOM     18  C   UNL     1     -13.967   7.494  19.597  0.00  0.00    +0.012 A 
ATOM     19  C   UNL     1     -12.164   6.861  21.077  0.00  0.00    +0.012 A 
ATOM     20  C   UNL     1     -13.524   6.877  20.767  0.00  0.00    +0.055 A 
BRANCH  20  23
ATOM      1  F   UNL     1     -15.807   6.417  21.316  0.00  0.00    -0.166 F 
ATOM      2  F   UNL     1     -14.432   6.683  22.972  0.00  0.00    -0.166 F 
ATOM      3  F   UNL     1     -14.337   4.878  21.765  0.00  0.00    -0.166 F 
ATOM     23  C   UNL     1     -14.505   6.230  21.686  0.00  0.00    +0.417 C 
ENDBRANCH  20  23
ENDBRANCH   8  13
BRANCH  10   4
ATOM      4  O   UNL     1     -11.036  11.420  15.619  0.00  0.00    -0.388 OA
ATOM     29  H   UNL     1     -11.413  11.062  14.797  0.00  0.00    +0.210 HD
ENDBRANCH  10   4
BRANCH  12   5
ATOM      5  O   UNL     1     -12.137   8.930  15.293  0.00  0.00    -0.389 OA
ATOM     30  H   UNL     1     -12.217   9.316  14.403  0.00  0.00    +0.210 HD
ENDBRANCH  12   5
BRANCH   9   7
ATOM      7  N   UNL     1     -10.581  11.167  18.655  0.00  0.00    -0.306 NA
ATOM     28  H   UNL     1     -10.219  10.686  19.479  0.00  0.00    +0.123 HD
BRANCH   7  14
ATOM     14  C   UNL     1     -11.637  12.078  19.071  0.00  0.00    +0.116 C 
BRANCH  14  17
ATOM     17  C   UNL     1     -12.529  11.462  20.117  0.00  0.00    -0.033 A 
ATOM     21  C   UNL     1     -11.975  10.926  21.279  0.00  0.00    +0.008 A 
ATOM     22  C   UNL     1     -13.911  11.430  19.924  0.00  0.00    +0.008 A 
ATOM     24  C   UNL     1     -12.801  10.356  22.247  0.00  0.00    +0.046 A 
ATOM     25  C   UNL     1     -14.737  10.860  20.892  0.00  0.00    +0.046 A 
ATOM     26  C   UNL     1     -14.183  10.323  22.053  0.00  0.00    +0.120 A 
BRANCH  26   6
ATOM      6  O   UNL     1     -14.988   9.768  22.999  0.00  0.00    -0.495 OA
ATOM     27  C   UNL     1     -16.328   9.461  22.611  0.00  0.00    +0.277 C 
ENDBRANCH  26   6
ENDBRANCH  14  17
ENDBRANCH   7  14
ENDBRANCH   9   7
TORSDOF 8
ENDMDL
MODEL 3
REMARK VINA RESULT:      -5.6     24.068     26.565
REMARK  Name = 71694041
REMARK  9 active torsions:
REMARK  status: ('A' for Active; 'I' for Inactive)
REMARK    1  A    between atoms: O_4  and  C_10
REMARK    2  A    between atoms: O_5  and  C_12
REMARK    3  A    between atoms: O_6  and  C_26
REMARK    4  A    between atoms: O_6  and  C_27
REMARK    5  A    between atoms: N_7  and  C_9
REMARK    6  A    between atoms: N_7  and  C_14
REMARK    7  A    between atoms: C_8  and  C_13
REMARK    8  A    between atoms: C_14  and  C_17
REMARK    9  A    between atoms: C_20  and  C_23
REMARK                            x       y       z     vdW  Elec       q    Type
REMARK                         _______ _______ _______ _____ _____    ______ ____
ROOT
ATOM      8  C   UNL     1      -6.798 -12.079  17.419  0.00  0.00    +0.041 C 
ATOM      9  C   UNL     1      -7.787 -10.905  17.240  0.00  0.00    +0.092 C 
ATOM     10  C   UNL     1      -8.677 -11.009  18.479  0.00  0.00    +0.160 C 
ATOM     11  C   UNL     1      -6.731 -12.334  18.949  0.00  0.00    +0.043 C 
ATOM     12  C   UNL     1      -7.675 -11.313  19.587  0.00  0.00    +0.145 C 
ENDROOT
BRANCH   8  13
ATOM     13  C   UNL     1      -5.451 -11.827  16.774  0.00  0.00    -0.043 A 
ATOM     15  C   UNL     1      -4.766 -10.639  17.034  0.00  0.00    +0.004 A 
ATOM     16  C   UNL     1      -4.896 -12.781  15.923  0.00  0.00    +0.004 A 
ATOM     18  C   UNL     1      -3.525 -10.407  16.440  0.00  0.00    +0.012 A 
ATOM     19  C   UNL     1      -3.655 -12.548  15.328  0.00  0.00    +0.012 A 
ATOM     20  C   UNL     1      -2.970 -11.361  15.588  0.00  0.00    +0.055 A 
BRANCH  20  23
ATOM      1  F   UNL     1      -0.688 -10.688  15.836  0.00  0.00    -0.166 F 
ATOM      2  F   UNL     1      -1.671 -10.162  13.975  0.00  0.00    -0.166 F 
ATOM      3  F   UNL     1      -1.125 -12.230  14.366  0.00  0.00    -0.166 F 
ATOM     23  C   UNL     1      -1.642 -11.113  14.956  0.00  0.00    +0.417 C 
ENDBRANCH  20  23
ENDBRANCH   8  13
BRANCH  10   4
ATOM      4  O   UNL     1      -9.384  -9.806  18.716  0.00  0.00    -0.388 OA
ATOM     29  H   UNL     1      -9.523  -9.736  19.676  0.00  0.00    +0.210 HD
ENDBRANCH  10   4
BRANCH  12   5
ATOM      5  O   UNL     1      -6.945 -10.138  19.925  0.00  0.00    -0.389 OA
ATOM     30  H   UNL     1      -6.203 -10.409  20.495  0.00  0.00    +0.210 HD
ENDBRANCH  12   5
BRANCH   9   7
ATOM      7  N   UNL     1      -8.559 -11.020  16.008  0.00  0.00    -0.306 NA
ATOM     28  H   UNL     1      -8.393 -11.940  15.597  0.00  0.00    +0.123 HD
BRANCH   7  14
ATOM     14  C   UNL     1      -8.162 -10.000  15.048  0.00  0.00    +0.116 C 
BRANCH  14  17
ATOM     17  C   UNL     1      -7.189 -10.536  14.032  0.00  0.00    -0.033 A 
ATOM     21  C   UNL     1      -6.079  -9.776  13.660  0.00  0.00    +0.008 A 
ATOM     22  C   UNL     1      -7.395 -11.793  13.463  0.00  0.00    +0.008 A 
ATOM     24  C   UNL     1      -5.178 -10.272  12.719  0.00  0.00    +0.046 A 
ATOM     25  C   UNL     1      -6.494 -12.289  12.522  0.00  0.00    +0.046 A 
ATOM     26  C   UNL     1      -5.385 -11.529  12.149  0.00  0.00    +0.120 A 
BRANCH  26   6
ATOM      6  O   UNL     1      -4.504 -12.013  11.232  0.00  0.00    -0.495 OA
ATOM     27  C   UNL     1      -3.138 -12.113  11.634  0.00  0.00    +0.277 C 
ENDBRANCH  26   6
ENDBRANCH  14  17
ENDBRANCH   7  14
ENDBRANCH   9   7
TORSDOF 8
ENDMDL
MODEL 4
REMARK VINA RESULT:      -5.5     11.722     13.969
REMARK  Name = 71694041
REMARK  9 active torsions:
REMARK  status: ('A' for Active; 'I' for Inactive)
REMARK    1  A    between atoms: O_4  and  C_10
REMARK    2  A    between atoms: O_5  and  C_12
REMARK    3  A    between atoms: O_6  and  C_26
REMARK    4  A    between atoms: O_6  and  C_27
REMARK    5  A    between atoms: N_7  and  C_9
REMARK    6  A    between atoms: N_7  and  C_14
REMARK    7  A    between atoms: C_8  and  C_13
REMARK    8  A    between atoms: C_14  and  C_17
REMARK    9  A    between atoms: C_20  and  C_23
REMARK                            x       y       z     vdW  Elec       q    Type
REMARK                         _______ _______ _______ _____ _____    ______ ____
ROOT
ATOM      8  C   UNL     1       2.140   2.291  -6.005  0.00  0.00    +0.041 C 
ATOM      9  C   UNL     1       0.766   2.527  -6.671  0.00  0.00    +0.092 C 
ATOM     10  C   UNL     1       0.070   1.174  -6.520  0.00  0.00    +0.160 C 
ATOM     11  C   UNL     1       1.913   1.145  -4.982  0.00  0.00    +0.043 C 
ATOM     12  C   UNL     1       0.436   0.766  -5.097  0.00  0.00    +0.145 C 
ENDROOT
BRANCH   8  13
ATOM     13  C   UNL     1       2.735   3.548  -5.405  0.00  0.00    -0.043 A 
ATOM     15  C   UNL     1       1.988   4.312  -4.507  0.00  0.00    +0.004 A 
ATOM     16  C   UNL     1       4.028   3.941  -5.748  0.00  0.00    +0.004 A 
ATOM     18  C   UNL     1       2.536   5.470  -3.954  0.00  0.00    +0.012 A 
ATOM     19  C   UNL     1       4.576   5.099  -5.195  0.00  0.00    +0.012 A 
ATOM     20  C   UNL     1       3.829   5.863  -4.298  0.00  0.00    +0.055 A 
BRANCH  20  23
ATOM      1  F   UNL     1       4.640   7.006  -2.360  0.00  0.00    -0.166 F 
ATOM      2  F   UNL     1       3.629   8.206  -3.858  0.00  0.00    -0.166 F 
ATOM      3  F   UNL     1       5.619   7.426  -4.256  0.00  0.00    -0.166 F 
ATOM     23  C   UNL     1       4.415   7.099  -3.704  0.00  0.00    +0.417 C 
ENDBRANCH  20  23
ENDBRANCH   8  13
BRANCH  10   4
ATOM      4  O   UNL     1      -1.329   1.284  -6.698  0.00  0.00    -0.388 OA
ATOM     29  H   UNL     1      -1.672   0.389  -6.864  0.00  0.00    +0.210 HD
ENDBRANCH  10   4
BRANCH  12   5
ATOM      5  O   UNL     1      -0.323   1.521  -4.158  0.00  0.00    -0.389 OA
ATOM     30  H   UNL     1       0.150   2.357  -4.006  0.00  0.00    +0.210 HD
ENDBRANCH  12   5
BRANCH   9   7
ATOM      7  N   UNL     1       0.893   2.917  -8.071  0.00  0.00    -0.306 NA
ATOM     28  H   UNL     1       1.880   3.064  -8.285  0.00  0.00    +0.123 HD
BRANCH   7  14
ATOM     14  C   UNL     1       0.167   4.150  -8.334  0.00  0.00    +0.116 C 
BRANCH  14  17
ATOM     17  C   UNL     1       0.963   5.365  -7.940  0.00  0.00    -0.033 A 
ATOM     21  C   UNL     1       0.398   6.330  -7.107  0.00  0.00    +0.008 A 
ATOM     22  C   UNL     1       2.269   5.525  -8.407  0.00  0.00    +0.008 A 
ATOM     24  C   UNL     1       1.137   7.456  -6.742  0.00  0.00    +0.046 A 
ATOM     25  C   UNL     1       3.007   6.650  -8.043  0.00  0.00    +0.046 A 
ATOM     26  C   UNL     1       2.442   7.616  -7.210  0.00  0.00    +0.120 A 
BRANCH  26   6
ATOM      6  O   UNL     1       3.163   8.713  -6.853  0.00  0.00    -0.495 OA
ATOM     27  C   UNL     1       4.550   8.716  -7.190  0.00  0.00    +0.277 C 
ENDBRANCH  26   6
ENDBRANCH  14  17
ENDBRANCH   7  14
ENDBRANCH   9   7
TORSDOF 8
ENDMDL
MODEL 5
REMARK VINA RESULT:      -5.5     26.178     28.707
REMARK  Name = 71694041
REMARK  9 active torsions:
REMARK  status: ('A' for Active; 'I' for Inactive)
REMARK    1  A    between atoms: O_4  and  C_10
REMARK    2  A    between atoms: O_5  and  C_12
REMARK    3  A    between atoms: O_6  and  C_26
REMARK    4  A    between atoms: O_6  and  C_27
REMARK    5  A    between atoms: N_7  and  C_9
REMARK    6  A    between atoms: N_7  and  C_14
REMARK    7  A    between atoms: C_8  and  C_13
REMARK    8  A    between atoms: C_14  and  C_17
REMARK    9  A    between atoms: C_20  and  C_23
REMARK                            x       y       z     vdW  Elec       q    Type
REMARK                         _______ _______ _______ _____ _____    ______ ____
ROOT
ATOM      8  C   UNL     1     -15.355   7.063  20.841  0.00  0.00    +0.041 C 
ATOM      9  C   UNL     1     -15.163   7.215  22.367  0.00  0.00    +0.092 C 
ATOM     10  C   UNL     1     -16.077   6.133  22.943  0.00  0.00    +0.160 C 
ATOM     11  C   UNL     1     -15.782   5.586  20.623  0.00  0.00    +0.043 C 
ATOM     12  C   UNL     1     -15.822   4.951  22.014  0.00  0.00    +0.145 C 
ENDROOT
BRANCH   8  13
ATOM     13  C   UNL     1     -14.138   7.481  20.043  0.00  0.00    -0.043 A 
ATOM     15  C   UNL     1     -12.867   7.066  20.442  0.00  0.00    +0.004 A 
ATOM     16  C   UNL     1     -14.288   8.278  18.909  0.00  0.00    +0.004 A 
ATOM     18  C   UNL     1     -11.746   7.450  19.707  0.00  0.00    +0.012 A 
ATOM     19  C   UNL     1     -13.166   8.663  18.173  0.00  0.00    +0.012 A 
ATOM     20  C   UNL     1     -11.895   8.248  18.573  0.00  0.00    +0.055 A 
BRANCH  20  23
ATOM      1  F   UNL     1     -10.114   7.626  17.103  0.00  0.00    -0.166 F 
ATOM      2  F   UNL     1      -9.696   9.189  18.548  0.00  0.00    -0.166 F 
ATOM      3  F   UNL     1     -10.983   9.603  16.845  0.00  0.00    -0.166 F 
ATOM     23  C   UNL     1     -10.696   8.656  17.785  0.00  0.00    +0.417 C 
ENDBRANCH  20  23
ENDBRANCH   8  13
BRANCH  10   4
ATOM      4  O   UNL     1     -15.751   5.834  24.286  0.00  0.00    -0.388 OA
ATOM     29  H   UNL     1     -16.529   6.049  24.829  0.00  0.00    +0.210 HD
ENDBRANCH  10   4
BRANCH  12   5
ATOM      5  O   UNL     1     -14.558   4.362  22.304  0.00  0.00    -0.389 OA
ATOM     30  H   UNL     1     -14.159   4.872  23.030  0.00  0.00    +0.210 HD
ENDBRANCH  12   5
BRANCH   9   7
ATOM      7  N   UNL     1     -15.535   8.545  22.839  0.00  0.00    -0.306 NA
ATOM     28  H   UNL     1     -15.987   9.052  22.077  0.00  0.00    +0.123 HD
BRANCH   7  14
ATOM     14  C   UNL     1     -14.361   9.291  23.267  0.00  0.00    +0.116 C 
BRANCH  14  17
ATOM     17  C   UNL     1     -13.851  10.203  22.183  0.00  0.00    -0.033 A 
ATOM     21  C   UNL     1     -12.480  10.308  21.946  0.00  0.00    +0.008 A 
ATOM     22  C   UNL     1     -14.749  10.942  21.412  0.00  0.00    +0.008 A 
ATOM     24  C   UNL     1     -12.008  11.153  20.942  0.00  0.00    +0.046 A 
ATOM     25  C   UNL     1     -14.278  11.787  20.408  0.00  0.00    +0.046 A 
ATOM     26  C   UNL     1     -12.907  11.892  20.173  0.00  0.00    +0.120 A 
BRANCH  26   6
ATOM      6  O   UNL     1     -12.446  12.715  19.191  0.00  0.00    -0.495 OA
ATOM     27  C   UNL     1     -11.206  12.362  18.579  0.00  0.00    +0.277 C 
ENDBRANCH  26   6
ENDBRANCH  14  17
ENDBRANCH   7  14
ENDBRANCH   9   7
TORSDOF 8
ENDMDL
MODEL 6
REMARK VINA RESULT:      -5.5     23.882     26.481
REMARK  Name = 71694041
REMARK  9 active torsions:
REMARK  status: ('A' for Active; 'I' for Inactive)
REMARK    1  A    between atoms: O_4  and  C_10
REMARK    2  A    between atoms: O_5  and  C_12
REMARK    3  A    between atoms: O_6  and  C_26
REMARK    4  A    between atoms: O_6  and  C_27
REMARK    5  A    between atoms: N_7  and  C_9
REMARK    6  A    between atoms: N_7  and  C_14
REMARK    7  A    between atoms: C_8  and  C_13
REMARK    8  A    between atoms: C_14  and  C_17
REMARK    9  A    between atoms: C_20  and  C_23
REMARK                            x       y       z     vdW  Elec       q    Type
REMARK                         _______ _______ _______ _____ _____    ______ ____
ROOT
ATOM      8  C   UNL     1      -4.321 -11.615  17.572  0.00  0.00    +0.041 C 
ATOM      9  C   UNL     1      -5.250 -12.848  17.500  0.00  0.00    +0.092 C 
ATOM     10  C   UNL     1      -6.250 -12.597  18.628  0.00  0.00    +0.160 C 
ATOM     11  C   UNL     1      -5.178 -10.489  18.213  0.00  0.00    +0.043 C 
ATOM     12  C   UNL     1      -6.549 -11.108  18.485  0.00  0.00    +0.145 C 
ENDROOT
BRANCH   8  13
ATOM     13  C   UNL     1      -3.714 -11.247  16.234  0.00  0.00    -0.043 A 
ATOM     15  C   UNL     1      -2.328 -11.152  16.100  0.00  0.00    +0.004 A 
ATOM     16  C   UNL     1      -4.540 -11.005  15.137  0.00  0.00    +0.004 A 
ATOM     18  C   UNL     1      -1.769 -10.814  14.868  0.00  0.00    +0.012 A 
ATOM     19  C   UNL     1      -3.980 -10.666  13.904  0.00  0.00    +0.012 A 
ATOM     20  C   UNL     1      -2.595 -10.570  13.771  0.00  0.00    +0.055 A 
BRANCH  20  23
ATOM      1  F   UNL     1      -1.027  -9.252  12.535  0.00  0.00    -0.166 F 
ATOM      2  F   UNL     1      -2.903  -9.727  11.554  0.00  0.00    -0.166 F 
ATOM      3  F   UNL     1      -1.405 -11.277  11.837  0.00  0.00    -0.166 F 
ATOM     23  C   UNL     1      -1.996 -10.212  12.453  0.00  0.00    +0.417 C 
ENDBRANCH  20  23
ENDBRANCH   8  13
BRANCH  10   4
ATOM      4  O   UNL     1      -7.413 -13.389  18.482  0.00  0.00    -0.388 OA
ATOM     29  H   UNL     1      -8.102 -13.000  19.046  0.00  0.00    +0.210 HD
ENDBRANCH  10   4
BRANCH  12   5
ATOM      5  O   UNL     1      -7.402 -10.884  17.367  0.00  0.00    -0.389 OA
ATOM     30  H   UNL     1      -8.032 -10.185  17.615  0.00  0.00    +0.210 HD
ENDBRANCH  12   5
BRANCH   9   7
ATOM      7  N   UNL     1      -4.521 -14.097  17.691  0.00  0.00    -0.306 NA
ATOM     28  H   UNL     1      -3.522 -13.918  17.582  0.00  0.00    +0.123 HD
BRANCH   7  14
ATOM     14  C   UNL     1      -4.928 -15.092  16.710  0.00  0.00    +0.116 C 
BRANCH  14  17
ATOM     17  C   UNL     1      -4.458 -14.739  15.325  0.00  0.00    -0.033 A 
ATOM     21  C   UNL     1      -5.386 -14.455  14.323  0.00  0.00    +0.008 A 
ATOM     22  C   UNL     1      -3.092 -14.692  15.042  0.00  0.00    +0.008 A 
ATOM     24  C   UNL     1      -4.950 -14.128  13.040  0.00  0.00    +0.046 A 
ATOM     25  C   UNL     1      -2.655 -14.365  13.759  0.00  0.00    +0.046 A 
ATOM     26  C   UNL     1      -3.584 -14.082  12.758  0.00  0.00    +0.120 A 
BRANCH  26   6
ATOM      6  O   UNL     1      -3.158 -13.761  11.505  0.00  0.00    -0.495 OA
ATOM     27  C   UNL     1      -4.049 -12.993  10.695  0.00  0.00    +0.277 C 
ENDBRANCH  26   6
ENDBRANCH  14  17
ENDBRANCH   7  14
ENDBRANCH   9   7
TORSDOF 8
ENDMDL
MODEL 7
REMARK VINA RESULT:      -5.5     24.907     27.147
REMARK  Name = 71694041
REMARK  9 active torsions:
REMARK  status: ('A' for Active; 'I' for Inactive)
REMARK    1  A    between atoms: O_4  and  C_10
REMARK    2  A    between atoms: O_5  and  C_12
REMARK    3  A    between atoms: O_6  and  C_26
REMARK    4  A    between atoms: O_6  and  C_27
REMARK    5  A    between atoms: N_7  and  C_9
REMARK    6  A    between atoms: N_7  and  C_14
REMARK    7  A    between atoms: C_8  and  C_13
REMARK    8  A    between atoms: C_14  and  C_17
REMARK    9  A    between atoms: C_20  and  C_23
REMARK                            x       y       z     vdW  Elec       q    Type
REMARK                         _______ _______ _______ _____ _____    ______ ____
ROOT
ATOM      8  C   UNL     1      -7.346 -11.312  17.212  0.00  0.00    +0.041 C 
ATOM      9  C   UNL     1      -7.802 -10.234  18.222  0.00  0.00    +0.092 C 
ATOM     10  C   UNL     1      -8.867 -10.959  19.046  0.00  0.00    +0.160 C 
ATOM     11  C   UNL     1      -7.636 -12.673  17.899  0.00  0.00    +0.043 C 
ATOM     12  C   UNL     1      -8.244 -12.335  19.261  0.00  0.00    +0.145 C 
ENDROOT
BRANCH   8  13
ATOM     13  C   UNL     1      -5.910 -11.137  16.763  0.00  0.00    -0.043 A 
ATOM     15  C   UNL     1      -4.871 -11.276  17.684  0.00  0.00    +0.004 A 
ATOM     16  C   UNL     1      -5.627 -10.840  15.431  0.00  0.00    +0.004 A 
ATOM     18  C   UNL     1      -3.548 -11.116  17.272  0.00  0.00    +0.012 A 
ATOM     19  C   UNL     1      -4.303 -10.680  15.018  0.00  0.00    +0.012 A 
ATOM     20  C   UNL     1      -3.265 -10.818  15.939  0.00  0.00    +0.055 A 
BRANCH  20  23
ATOM      1  F   UNL     1      -1.025 -10.170  16.475  0.00  0.00    -0.166 F 
ATOM      2  F   UNL     1      -1.703  -9.785  14.450  0.00  0.00    -0.166 F 
ATOM      3  F   UNL     1      -1.287 -11.823  15.085  0.00  0.00    -0.166 F 
ATOM     23  C   UNL     1      -1.850 -10.650  15.497  0.00  0.00    +0.417 C 
ENDBRANCH  20  23
ENDBRANCH   8  13
BRANCH  10   4
ATOM      4  O   UNL     1      -9.123 -10.295  20.268  0.00  0.00    -0.388 OA
ATOM     29  H   UNL     1     -10.064 -10.424  20.477  0.00  0.00    +0.210 HD
ENDBRANCH  10   4
BRANCH  12   5
ATOM      5  O   UNL     1      -7.209 -12.258  20.238  0.00  0.00    -0.389 OA
ATOM     30  H   UNL     1      -6.713 -13.095  20.203  0.00  0.00    +0.210 HD
ENDBRANCH  12   5
BRANCH   9   7
ATOM      7  N   UNL     1      -8.344  -9.053  17.559  0.00  0.00    -0.306 NA
ATOM     28  H   UNL     1      -9.031  -8.615  18.172  0.00  0.00    +0.123 HD
BRANCH   7  14
ATOM     14  C   UNL     1      -8.994  -9.412  16.307  0.00  0.00    +0.116 C 
BRANCH  14  17
ATOM     17  C   UNL     1     -10.030  -8.398  15.903  0.00  0.00    -0.033 A 
ATOM     21  C   UNL     1     -10.283  -7.295  16.718  0.00  0.00    +0.008 A 
ATOM     22  C   UNL     1     -10.737  -8.559  14.710  0.00  0.00    +0.008 A 
ATOM     24  C   UNL     1     -11.243  -6.355  16.343  0.00  0.00    +0.046 A 
ATOM     25  C   UNL     1     -11.696  -7.620  14.334  0.00  0.00    +0.046 A 
ATOM     26  C   UNL     1     -11.950  -6.518  15.151  0.00  0.00    +0.120 A 
BRANCH  26   6
ATOM      6  O   UNL     1     -12.885  -5.599  14.784  0.00  0.00    -0.495 OA
ATOM     27  C   UNL     1     -12.620  -4.840  13.604  0.00  0.00    +0.277 C 
ENDBRANCH  26   6
ENDBRANCH  14  17
ENDBRANCH   7  14
ENDBRANCH   9   7
TORSDOF 8
ENDMDL
MODEL 8
REMARK VINA RESULT:      -5.4      4.177      6.628
REMARK  Name = 71694041
REMARK  9 active torsions:
REMARK  status: ('A' for Active; 'I' for Inactive)
REMARK    1  A    between atoms: O_4  and  C_10
REMARK    2  A    between atoms: O_5  and  C_12
REMARK    3  A    between atoms: O_6  and  C_26
REMARK    4  A    between atoms: O_6  and  C_27
REMARK    5  A    between atoms: N_7  and  C_9
REMARK    6  A    between atoms: N_7  and  C_14
REMARK    7  A    between atoms: C_8  and  C_13
REMARK    8  A    between atoms: C_14  and  C_17
REMARK    9  A    between atoms: C_20  and  C_23
REMARK                            x       y       z     vdW  Elec       q    Type
REMARK                         _______ _______ _______ _____ _____    ______ ____
ROOT
ATOM      8  C   UNL     1       9.903   6.448   5.043  0.00  0.00    +0.041 C 
ATOM      9  C   UNL     1      11.222   6.351   5.844  0.00  0.00    +0.092 C 
ATOM     10  C   UNL     1      10.743   6.061   7.267  0.00  0.00    +0.160 C 
ATOM     11  C   UNL     1       8.876   5.592   5.832  0.00  0.00    +0.043 C 
ATOM     12  C   UNL     1       9.629   5.043   7.044  0.00  0.00    +0.145 C 
ENDROOT
BRANCH   8  13
ATOM     13  C   UNL     1      10.058   6.047   3.590  0.00  0.00    -0.043 A 
ATOM     15  C   UNL     1      10.550   4.782   3.265  0.00  0.00    +0.004 A 
ATOM     16  C   UNL     1       9.708   6.941   2.579  0.00  0.00    +0.004 A 
ATOM     18  C   UNL     1      10.692   4.412   1.928  0.00  0.00    +0.012 A 
ATOM     19  C   UNL     1       9.851   6.571   1.241  0.00  0.00    +0.012 A 
ATOM     20  C   UNL     1      10.343   5.307   0.916  0.00  0.00    +0.055 A 
BRANCH  20  23
ATOM      1  F   UNL     1      10.870   3.608  -0.684  0.00  0.00    -0.166 F 
ATOM      2  F   UNL     1      11.426   5.643  -1.190  0.00  0.00    -0.166 F 
ATOM      3  F   UNL     1       9.334   5.051  -1.221  0.00  0.00    -0.166 F 
ATOM     23  C   UNL     1      10.492   4.910  -0.514  0.00  0.00    +0.417 C 
ENDBRANCH  20  23
ENDBRANCH   8  13
BRANCH  10   4
ATOM      4  O   UNL     1      11.784   5.542   8.072  0.00  0.00    -0.388 OA
ATOM     29  H   UNL     1      12.508   5.279   7.478  0.00  0.00    +0.210 HD
ENDBRANCH  10   4
BRANCH  12   5
ATOM      5  O   UNL     1      10.183   3.771   6.723  0.00  0.00    -0.389 OA
ATOM     30  H   UNL     1      11.131   3.901   6.544  0.00  0.00    +0.210 HD
ENDBRANCH  12   5
BRANCH   9   7
ATOM      7  N   UNL     1      11.999   7.584   5.775  0.00  0.00    -0.306 NA
ATOM     28  H   UNL     1      11.491   8.264   5.209  0.00  0.00    +0.123 HD
BRANCH   7  14
ATOM     14  C   UNL     1      13.299   7.345   5.166  0.00  0.00    +0.116 C 
BRANCH  14  17
ATOM     17  C   UNL     1      13.270   7.566   3.677  0.00  0.00    -0.033 A 
ATOM     21  C   UNL     1      12.802   8.773   3.160  0.00  0.00    +0.008 A 
ATOM     22  C   UNL     1      13.714   6.563   2.814  0.00  0.00    +0.008 A 
ATOM     24  C   UNL     1      12.775   8.977   1.780  0.00  0.00    +0.046 A 
ATOM     25  C   UNL     1      13.688   6.766   1.435  0.00  0.00    +0.046 A 
ATOM     26  C   UNL     1      13.218   7.973   0.918  0.00  0.00    +0.120 A 
BRANCH  26   6
ATOM      6  O   UNL     1      13.194   8.174  -0.428  0.00  0.00    -0.495 OA
ATOM     27  C   UNL     1      14.220   7.545  -1.196  0.00  0.00    +0.277 C 
ENDBRANCH  26   6
ENDBRANCH  14  17
ENDBRANCH   7  14
ENDBRANCH   9   7
TORSDOF 8
ENDMDL
MODEL 9
REMARK VINA RESULT:      -5.3     24.142     26.799
REMARK  Name = 71694041
REMARK  9 active torsions:
REMARK  status: ('A' for Active; 'I' for Inactive)
REMARK    1  A    between atoms: O_4  and  C_10
REMARK    2  A    between atoms: O_5  and  C_12
REMARK    3  A    between atoms: O_6  and  C_26
REMARK    4  A    between atoms: O_6  and  C_27
REMARK    5  A    between atoms: N_7  and  C_9
REMARK    6  A    between atoms: N_7  and  C_14
REMARK    7  A    between atoms: C_8  and  C_13
REMARK    8  A    between atoms: C_14  and  C_17
REMARK    9  A    between atoms: C_20  and  C_23
REMARK                            x       y       z     vdW  Elec       q    Type
REMARK                         _______ _______ _______ _____ _____    ______ ____
ROOT
ATOM      8  C   UNL     1      -4.306 -11.614  17.505  0.00  0.00    +0.041 C 
ATOM      9  C   UNL     1      -5.255 -12.834  17.537  0.00  0.00    +0.092 C 
ATOM     10  C   UNL     1      -6.150 -12.546  18.743  0.00  0.00    +0.160 C 
ATOM     11  C   UNL     1      -5.087 -10.463  18.195  0.00  0.00    +0.043 C 
ATOM     12  C   UNL     1      -6.439 -11.056  18.598  0.00  0.00    +0.145 C 
ENDROOT
BRANCH   8  13
ATOM     13  C   UNL     1      -3.813 -11.280  16.113  0.00  0.00    -0.043 A 
ATOM     15  C   UNL     1      -4.718 -11.203  15.053  0.00  0.00    +0.004 A 
ATOM     16  C   UNL     1      -2.457 -11.046  15.890  0.00  0.00    +0.004 A 
ATOM     18  C   UNL     1      -4.265 -10.894  13.770  0.00  0.00    +0.012 A 
ATOM     19  C   UNL     1      -2.003 -10.738  14.607  0.00  0.00    +0.012 A 
ATOM     20  C   UNL     1      -2.907 -10.662  13.548  0.00  0.00    +0.055 A 
BRANCH  20  23
ATOM      1  F   UNL     1      -3.288  -9.547  11.466  0.00  0.00    -0.166 F 
ATOM      2  F   UNL     1      -2.207 -11.426  11.391  0.00  0.00    -0.166 F 
ATOM      3  F   UNL     1      -1.240  -9.650  12.189  0.00  0.00    -0.166 F 
ATOM     23  C   UNL     1      -2.423 -10.329  12.177  0.00  0.00    +0.417 C 
ENDBRANCH  20  23
ENDBRANCH   8  13
BRANCH  10   4
ATOM      4  O   UNL     1      -7.332 -13.323  18.713  0.00  0.00    -0.388 OA
ATOM     29  H   UNL     1      -7.934 -12.911  18.070  0.00  0.00    +0.210 HD
ENDBRANCH  10   4
BRANCH  12   5
ATOM      5  O   UNL     1      -7.383 -10.838  17.553  0.00  0.00    -0.389 OA
ATOM     30  H   UNL     1      -7.289 -11.568  16.918  0.00  0.00    +0.210 HD
ENDBRANCH  12   5
BRANCH   9   7
ATOM      7  N   UNL     1      -4.531 -14.090  17.688  0.00  0.00    -0.306 NA
ATOM     28  H   UNL     1      -3.528 -13.903  17.641  0.00  0.00    +0.123 HD
BRANCH   7  14
ATOM     14  C   UNL     1      -4.883 -15.024  16.628  0.00  0.00    +0.116 C 
BRANCH  14  17
ATOM     17  C   UNL     1      -3.707 -15.332  15.740  0.00  0.00    -0.033 A 
ATOM     21  C   UNL     1      -2.944 -16.478  15.964  0.00  0.00    +0.008 A 
ATOM     22  C   UNL     1      -3.382 -14.473  14.690  0.00  0.00    +0.008 A 
ATOM     24  C   UNL     1      -1.855 -16.764  15.141  0.00  0.00    +0.046 A 
ATOM     25  C   UNL     1      -2.293 -14.758  13.866  0.00  0.00    +0.046 A 
ATOM     26  C   UNL     1      -1.530 -15.903  14.091  0.00  0.00    +0.120 A 
BRANCH  26   6
ATOM      6  O   UNL     1      -0.468 -16.183  13.287  0.00  0.00    -0.495 OA
ATOM     27  C   UNL     1      -0.751 -16.477  11.919  0.00  0.00    +0.277 C 
ENDBRANCH  26   6
ENDBRANCH  14  17
ENDBRANCH   7  14
ENDBRANCH   9   7
TORSDOF 8
ENDMDL
MODEL 10
REMARK VINA RESULT:      -5.3     22.251     24.244
REMARK  Name = 71694041
REMARK  9 active torsions:
REMARK  status: ('A' for Active; 'I' for Inactive)
REMARK    1  A    between atoms: O_4  and  C_10
REMARK    2  A    between atoms: O_5  and  C_12
REMARK    3  A    between atoms: O_6  and  C_26
REMARK    4  A    between atoms: O_6  and  C_27
REMARK    5  A    between atoms: N_7  and  C_9
REMARK    6  A    between atoms: N_7  and  C_14
REMARK    7  A    between atoms: C_8  and  C_13
REMARK    8  A    between atoms: C_14  and  C_17
REMARK    9  A    between atoms: C_20  and  C_23
REMARK                            x       y       z     vdW  Elec       q    Type
REMARK                         _______ _______ _______ _____ _____    ______ ____
ROOT
ATOM      8  C   UNL     1      -2.361 -10.742  12.031  0.00  0.00    +0.041 C 
ATOM      9  C   UNL     1      -2.803 -12.058  12.712  0.00  0.00    +0.092 C 
ATOM     10  C   UNL     1      -1.866 -12.159  13.916  0.00  0.00    +0.160 C 
ATOM     11  C   UNL     1      -1.733  -9.883  13.162  0.00  0.00    +0.043 C 
ATOM     12  C   UNL     1      -1.832 -10.725  14.434  0.00  0.00    +0.145 C 
ENDROOT
BRANCH   8  13
ATOM     13  C   UNL     1      -3.481 -10.055  11.280  0.00  0.00    -0.043 A 
ATOM     15  C   UNL     1      -4.724  -9.877  11.891  0.00  0.00    +0.004 A 
ATOM     16  C   UNL     1      -3.272  -9.597   9.980  0.00  0.00    +0.004 A 
ATOM     18  C   UNL     1      -5.756  -9.243  11.200  0.00  0.00    +0.012 A 
ATOM     19  C   UNL     1      -4.305  -8.963   9.288  0.00  0.00    +0.012 A 
ATOM     20  C   UNL     1      -5.547  -8.787   9.898  0.00  0.00    +0.055 A 
BRANCH  20  23
ATOM      1  F   UNL     1      -6.425  -6.776   8.944  0.00  0.00    -0.166 F 
ATOM      2  F   UNL     1      -7.854  -8.164   9.802  0.00  0.00    -0.166 F 
ATOM      3  F   UNL     1      -6.867  -8.647   7.926  0.00  0.00    -0.166 F 
ATOM     23  C   UNL     1      -6.650  -8.107   9.161  0.00  0.00    +0.417 C 
ENDBRANCH  20  23
ENDBRANCH   8  13
BRANCH  10   4
ATOM      4  O   UNL     1      -2.357 -13.064  14.885  0.00  0.00    -0.388 OA
ATOM     29  H   UNL     1      -2.525 -12.556  15.697  0.00  0.00    +0.210 HD
ENDBRANCH  10   4
BRANCH  12   5
ATOM      5  O   UNL     1      -3.046 -10.419  15.113  0.00  0.00    -0.389 OA
ATOM     30  H   UNL     1      -3.101 -11.003  15.889  0.00  0.00    +0.210 HD
ENDBRANCH  12   5
BRANCH   9   7
ATOM      7  N   UNL     1      -2.669 -13.208  11.824  0.00  0.00    -0.306 NA
ATOM     28  H   UNL     1      -2.269 -12.897  10.938  0.00  0.00    +0.123 HD
BRANCH   7  14
ATOM     14  C   UNL     1      -3.965 -13.817  11.565  0.00  0.00    +0.116 C 
BRANCH  14  17
ATOM     17  C   UNL     1      -4.626 -13.233  10.345  0.00  0.00    -0.033 A 
ATOM     21  C   UNL     1      -5.969 -12.859  10.390  0.00  0.00    +0.008 A 
ATOM     22  C   UNL     1      -3.894 -13.062   9.169  0.00  0.00    +0.008 A 
ATOM     24  C   UNL     1      -6.581 -12.318   9.260  0.00  0.00    +0.046 A 
ATOM     25  C   UNL     1      -4.506 -12.521   8.039  0.00  0.00    +0.046 A 
ATOM     26  C   UNL     1      -5.849 -12.148   8.084  0.00  0.00    +0.120 A 
BRANCH  26   6
ATOM      6  O   UNL     1      -6.446 -11.618   6.982  0.00  0.00    -0.495 OA
ATOM     27  C   UNL     1      -5.589 -11.066   5.983  0.00  0.00    +0.277 C 
ENDBRANCH  26   6
ENDBRANCH  14  17
ENDBRANCH   7  14
ENDBRANCH   9   7
TORSDOF 8
ENDMDL
