MODEL 1
REMARK VINA RESULT:      -6.5      0.000      0.000
REMARK  Name = 7685227
REMARK  2 active torsions:
REMARK  status: ('A' for Active; 'I' for Inactive)
REMARK    1  A    between atoms: C_14  and  C_19
REMARK    2  A    between atoms: C_16  and  C_20
REMARK                            x       y       z     vdW  Elec       q    Type
REMARK                         _______ _______ _______ _____ _____    ______ ____
ROOT
ATOM      3  O   UNL     1      10.917   5.494   8.686  0.00  0.00    -0.268 OA
ATOM      4  O   UNL     1      10.693  10.380   7.414  0.00  0.00    -0.270 OA
ATOM      5  N   UNL     1      11.933   9.328   5.734  0.00  0.00    -0.297 N 
ATOM      6  N   UNL     1      11.748   6.318   6.657  0.00  0.00    -0.311 N 
ATOM      7  C   UNL     1      13.771   7.896   6.586  0.00  0.00    +0.027 C 
ATOM      8  C   UNL     1      12.616   7.278   4.503  0.00  0.00    +0.054 C 
ATOM      9  C   UNL     1      13.981   7.328   5.191  0.00  0.00    +0.018 C 
ATOM     10  C   UNL     1      13.171   9.311   6.511  0.00  0.00    +0.113 C 
ATOM     11  C   UNL     1      12.877   6.935   7.370  0.00  0.00    +0.130 C 
ATOM     12  C   UNL     1      12.034   8.705   4.406  0.00  0.00    +0.117 C 
ATOM     13  C   UNL     1      11.640   6.364   5.251  0.00  0.00    +0.035 A 
ATOM     14  C   UNL     1      10.674   5.641   4.622  0.00  0.00    +0.009 A 
ATOM     15  C   UNL     1      10.860   5.579   7.458  0.00  0.00    +0.252 A 
ATOM     16  C   UNL     1      10.773   9.860   6.303  0.00  0.00    +0.247 C 
ATOM     17  C   UNL     1       9.738   4.869   5.421  0.00  0.00    +0.016 A 
ATOM     18  C   UNL     1       9.793   4.837   6.752  0.00  0.00    +0.071 A 
ENDROOT
BRANCH  16  20
ATOM      2  F   UNL     1       6.022   9.578   3.366  0.00  0.00    -0.205 F 
ATOM     20  C   UNL     1       9.525   9.785   5.532  0.00  0.00    +0.037 A 
ATOM     22  C   UNL     1       9.093  10.893   4.807  0.00  0.00    +0.016 A 
ATOM     23  C   UNL     1       8.781   8.609   5.529  0.00  0.00    +0.016 A 
ATOM     26  C   UNL     1       7.908  10.823   4.075  0.00  0.00    +0.039 A 
ATOM     27  C   UNL     1       7.596   8.538   4.798  0.00  0.00    +0.039 A 
ATOM     28  C   UNL     1       7.160   9.645   4.069  0.00  0.00    +0.123 A 
ENDBRANCH  16  20
BRANCH  14  19
ATOM      1  S   UNL     1      11.367   4.439   2.279  0.00  0.00    -0.097 S 
ATOM     19  C   UNL     1      10.565   5.647   3.189  0.00  0.00    +0.021 A 
ATOM     21  C   UNL     1       9.876   6.528   2.385  0.00  0.00    +0.016 A 
ATOM     24  C   UNL     1      10.007   6.206   1.002  0.00  0.00    +0.008 A 
ATOM     25  C   UNL     1      10.792   5.092   0.804  0.00  0.00    +0.046 A 
ENDBRANCH  14  19
TORSDOF 2
ENDMDL
MODEL 2
REMARK VINA RESULT:      -6.2      2.606      4.478
REMARK  Name = 7685227
REMARK  2 active torsions:
REMARK  status: ('A' for Active; 'I' for Inactive)
REMARK    1  A    between atoms: C_14  and  C_19
REMARK    2  A    between atoms: C_16  and  C_20
REMARK                            x       y       z     vdW  Elec       q    Type
REMARK                         _______ _______ _______ _____ _____    ______ ____
ROOT
ATOM      3  O   UNL     1       7.295   8.999   4.247  0.00  0.00    -0.268 OA
ATOM      4  O   UNL     1      11.360   9.907   7.109  0.00  0.00    -0.270 OA
ATOM      5  N   UNL     1      11.320   7.597   6.752  0.00  0.00    -0.297 N 
ATOM      6  N   UNL     1       8.848   7.339   4.810  0.00  0.00    -0.311 N 
ATOM      7  C   UNL     1       9.128   6.540   7.233  0.00  0.00    +0.027 C 
ATOM      8  C   UNL     1      10.558   5.615   5.458  0.00  0.00    +0.054 C 
ATOM      9  C   UNL     1       9.608   5.245   6.597  0.00  0.00    +0.018 C 
ATOM     10  C   UNL     1      10.316   7.347   7.785  0.00  0.00    +0.113 C 
ATOM     11  C   UNL     1       8.336   7.328   6.189  0.00  0.00    +0.130 C 
ATOM     12  C   UNL     1      11.762   6.399   6.023  0.00  0.00    +0.117 C 
ATOM     13  C   UNL     1       9.852   6.445   4.380  0.00  0.00    +0.035 A 
ATOM     14  C   UNL     1      10.177   6.376   3.061  0.00  0.00    +0.009 A 
ATOM     15  C   UNL     1       8.185   8.210   3.928  0.00  0.00    +0.252 A 
ATOM     16  C   UNL     1      11.732   8.907   6.498  0.00  0.00    +0.247 C 
ATOM     17  C   UNL     1       9.513   7.265   2.123  0.00  0.00    +0.016 A 
ATOM     18  C   UNL     1       8.589   8.144   2.506  0.00  0.00    +0.071 A 
ENDROOT
BRANCH  16  20
ATOM      2  F   UNL     1      15.330   9.782   2.307  0.00  0.00    -0.205 F 
ATOM     20  C   UNL     1      12.676   9.137   5.397  0.00  0.00    +0.037 A 
ATOM     22  C   UNL     1      14.047   9.080   5.638  0.00  0.00    +0.016 A 
ATOM     23  C   UNL     1      12.197   9.410   4.119  0.00  0.00    +0.016 A 
ATOM     26  C   UNL     1      14.944   9.299   4.592  0.00  0.00    +0.039 A 
ATOM     27  C   UNL     1      13.094   9.629   3.073  0.00  0.00    +0.039 A 
ATOM     28  C   UNL     1      14.468   9.572   3.309  0.00  0.00    +0.123 A 
ENDBRANCH  16  20
BRANCH  14  19
ATOM      1  S   UNL     1      12.756   6.015   2.265  0.00  0.00    -0.097 S 
ATOM     19  C   UNL     1      11.174   5.450   2.596  0.00  0.00    +0.021 A 
ATOM     21  C   UNL     1      11.047   4.100   2.360  0.00  0.00    +0.016 A 
ATOM     24  C   UNL     1      12.265   3.519   1.902  0.00  0.00    +0.008 A 
ATOM     25  C   UNL     1      13.276   4.450   1.805  0.00  0.00    +0.046 A 
ENDBRANCH  14  19
TORSDOF 2
ENDMDL
MODEL 3
REMARK VINA RESULT:      -6.1     24.962     27.443
REMARK  Name = 7685227
REMARK  2 active torsions:
REMARK  status: ('A' for Active; 'I' for Inactive)
REMARK    1  A    between atoms: C_14  and  C_19
REMARK    2  A    between atoms: C_16  and  C_20
REMARK                            x       y       z     vdW  Elec       q    Type
REMARK                         _______ _______ _______ _____ _____    ______ ____
ROOT
ATOM      3  O   UNL     1      -6.711 -14.902  16.544  0.00  0.00    -0.268 OA
ATOM      4  O   UNL     1      -8.029 -10.672  18.974  0.00  0.00    -0.270 OA
ATOM      5  N   UNL     1      -6.178 -10.115  17.658  0.00  0.00    -0.297 N 
ATOM      6  N   UNL     1      -5.699 -12.831  16.128  0.00  0.00    -0.311 N 
ATOM      7  C   UNL     1      -4.260 -11.668  17.907  0.00  0.00    +0.027 C 
ATOM      8  C   UNL     1      -4.663 -10.574  15.740  0.00  0.00    +0.054 C 
ATOM      9  C   UNL     1      -3.573 -11.017  16.717  0.00  0.00    +0.018 C 
ATOM     10  C   UNL     1      -5.207 -10.672  18.598  0.00  0.00    +0.113 C 
ATOM     11  C   UNL     1      -4.998 -12.915  17.418  0.00  0.00    +0.130 C 
ATOM     12  C   UNL     1      -5.593  -9.553  16.432  0.00  0.00    +0.117 C 
ATOM     13  C   UNL     1      -5.482 -11.765  15.230  0.00  0.00    +0.035 A 
ATOM     14  C   UNL     1      -6.021 -11.811  13.981  0.00  0.00    +0.009 A 
ATOM     15  C   UNL     1      -6.499 -13.941  15.803  0.00  0.00    +0.252 A 
ATOM     16  C   UNL     1      -7.542 -10.201  17.948  0.00  0.00    +0.247 C 
ATOM     17  C   UNL     1      -6.856 -12.942  13.615  0.00  0.00    +0.016 A 
ATOM     18  C   UNL     1      -7.109 -13.944  14.455  0.00  0.00    +0.071 A 
ENDROOT
BRANCH  16  20
ATOM      2  F   UNL     1     -11.179  -8.332  14.132  0.00  0.00    -0.205 F 
ATOM     20  C   UNL     1      -8.497  -9.711  16.946  0.00  0.00    +0.037 A 
ATOM     22  C   UNL     1      -9.014  -8.422  17.054  0.00  0.00    +0.016 A 
ATOM     23  C   UNL     1      -8.881 -10.536  15.892  0.00  0.00    +0.016 A 
ATOM     26  C   UNL     1      -9.921  -7.956  16.103  0.00  0.00    +0.039 A 
ATOM     27  C   UNL     1      -9.788 -10.070  14.941  0.00  0.00    +0.039 A 
ATOM     28  C   UNL     1     -10.308  -8.780  15.045  0.00  0.00    +0.123 A 
ENDBRANCH  16  20
BRANCH  14  19
ATOM      1  S   UNL     1      -4.420 -10.828  12.011  0.00  0.00    -0.097 S 
ATOM     19  C   UNL     1      -5.787 -10.752  13.039  0.00  0.00    +0.021 A 
ATOM     21  C   UNL     1      -6.535  -9.616  12.821  0.00  0.00    +0.016 A 
ATOM     24  C   UNL     1      -5.978  -8.797  11.795  0.00  0.00    +0.008 A 
ATOM     25  C   UNL     1      -4.826  -9.339  11.270  0.00  0.00    +0.046 A 
ENDBRANCH  14  19
TORSDOF 2
ENDMDL
MODEL 4
REMARK VINA RESULT:      -6.0     22.216     24.689
REMARK  Name = 7685227
REMARK  2 active torsions:
REMARK  status: ('A' for Active; 'I' for Inactive)
REMARK    1  A    between atoms: C_14  and  C_19
REMARK    2  A    between atoms: C_16  and  C_20
REMARK                            x       y       z     vdW  Elec       q    Type
REMARK                         _______ _______ _______ _____ _____    ______ ____
ROOT
ATOM      3  O   UNL     1      17.541  -7.439  27.737  0.00  0.00    -0.268 OA
ATOM      4  O   UNL     1      18.252  -2.436  27.711  0.00  0.00    -0.270 OA
ATOM      5  N   UNL     1      19.928  -3.337  26.353  0.00  0.00    -0.297 N 
ATOM      6  N   UNL     1      19.140  -6.390  26.384  0.00  0.00    -0.311 N 
ATOM      7  C   UNL     1      21.178  -5.206  27.400  0.00  0.00    +0.027 C 
ATOM      8  C   UNL     1      20.832  -5.191  24.964  0.00  0.00    +0.054 C 
ATOM      9  C   UNL     1      21.840  -5.516  26.067  0.00  0.00    +0.018 C 
ATOM     10  C   UNL     1      20.780  -3.722  27.477  0.00  0.00    +0.113 C 
ATOM     11  C   UNL     1      19.972  -6.131  27.569  0.00  0.00    +0.130 C 
ATOM     12  C   UNL     1      20.460  -3.694  25.030  0.00  0.00    +0.117 C 
ATOM     13  C   UNL     1      19.569  -6.050  25.084  0.00  0.00    +0.035 A 
ATOM     14  C   UNL     1      18.845  -6.456  24.005  0.00  0.00    +0.009 A 
ATOM     15  C   UNL     1      17.954  -7.106  26.625  0.00  0.00    +0.252 A 
ATOM     16  C   UNL     1      18.694  -2.733  26.603  0.00  0.00    +0.247 C 
ATOM     17  C   UNL     1      17.613  -7.194  24.219  0.00  0.00    +0.016 A 
ATOM     18  C   UNL     1      17.165  -7.497  25.436  0.00  0.00    +0.071 A 
ENDROOT
BRANCH  16  20
ATOM      2  F   UNL     1      15.375  -1.599  22.247  0.00  0.00    -0.205 F 
ATOM     20  C   UNL     1      17.822  -2.436  25.459  0.00  0.00    +0.037 A 
ATOM     22  C   UNL     1      17.881  -1.184  24.852  0.00  0.00    +0.016 A 
ATOM     23  C   UNL     1      16.942  -3.406  24.988  0.00  0.00    +0.016 A 
ATOM     26  C   UNL     1      17.053  -0.901  23.766  0.00  0.00    +0.039 A 
ATOM     27  C   UNL     1      16.114  -3.123  23.902  0.00  0.00    +0.039 A 
ATOM     28  C   UNL     1      16.170  -1.871  23.289  0.00  0.00    +0.123 A 
ENDBRANCH  16  20
BRANCH  14  19
ATOM      1  S   UNL     1      20.296  -7.250  21.841  0.00  0.00    -0.097 S 
ATOM     19  C   UNL     1      19.280  -6.148  22.669  0.00  0.00    +0.021 A 
ATOM     21  C   UNL     1      18.990  -5.038  21.907  0.00  0.00    +0.016 A 
ATOM     24  C   UNL     1      19.610  -5.093  20.625  0.00  0.00    +0.008 A 
ATOM     25  C   UNL     1      20.350  -6.243  20.457  0.00  0.00    +0.046 A 
ENDBRANCH  14  19
TORSDOF 2
ENDMDL
MODEL 5
REMARK VINA RESULT:      -5.9     24.559     27.238
REMARK  Name = 7685227
REMARK  2 active torsions:
REMARK  status: ('A' for Active; 'I' for Inactive)
REMARK    1  A    between atoms: C_14  and  C_19
REMARK    2  A    between atoms: C_16  and  C_20
REMARK                            x       y       z     vdW  Elec       q    Type
REMARK                         _______ _______ _______ _____ _____    ______ ____
ROOT
ATOM      3  O   UNL     1      -1.467 -15.188  14.089  0.00  0.00    -0.268 OA
ATOM      4  O   UNL     1      -1.854 -10.823  16.606  0.00  0.00    -0.270 OA
ATOM      5  N   UNL     1      -3.226 -10.611  14.725  0.00  0.00    -0.297 N 
ATOM      6  N   UNL     1      -2.958 -13.492  13.468  0.00  0.00    -0.311 N 
ATOM      7  C   UNL     1      -2.117 -11.230  12.594  0.00  0.00    +0.027 C 
ATOM      8  C   UNL     1      -4.530 -11.625  12.866  0.00  0.00    +0.054 C 
ATOM      9  C   UNL     1      -3.456 -11.173  11.876  0.00  0.00    +0.018 C 
ATOM     10  C   UNL     1      -2.120 -10.301  13.821  0.00  0.00    +0.113 C 
ATOM     11  C   UNL     1      -1.832 -12.683  12.976  0.00  0.00    +0.130 C 
ATOM     12  C   UNL     1      -4.546 -10.672  14.081  0.00  0.00    +0.117 C 
ATOM     13  C   UNL     1      -4.297 -13.066  13.334  0.00  0.00    +0.035 A 
ATOM     14  C   UNL     1      -5.312 -13.915  13.650  0.00  0.00    +0.009 A 
ATOM     15  C   UNL     1      -2.616 -14.762  13.963  0.00  0.00    +0.252 A 
ATOM     16  C   UNL     1      -2.959 -10.874  16.071  0.00  0.00    +0.247 C 
ATOM     17  C   UNL     1      -4.993 -15.234  14.169  0.00  0.00    +0.016 A 
ATOM     18  C   UNL     1      -3.739 -15.649  14.341  0.00  0.00    +0.071 A 
ENDROOT
BRANCH  16  20
ATOM      2  F   UNL     1      -7.223 -12.368  19.367  0.00  0.00    -0.205 F 
ATOM     20  C   UNL     1      -4.079 -11.267  16.936  0.00  0.00    +0.037 A 
ATOM     22  C   UNL     1      -4.756 -10.299  17.673  0.00  0.00    +0.016 A 
ATOM     23  C   UNL     1      -4.457 -12.604  17.016  0.00  0.00    +0.016 A 
ATOM     26  C   UNL     1      -5.819 -10.672  18.495  0.00  0.00    +0.039 A 
ATOM     27  C   UNL     1      -5.520 -12.977  17.838  0.00  0.00    +0.039 A 
ATOM     28  C   UNL     1      -6.202 -12.011  18.577  0.00  0.00    +0.123 A 
ENDBRANCH  16  20
BRANCH  14  19
ATOM      1  S   UNL     1      -7.461 -13.756  11.986  0.00  0.00    -0.097 S 
ATOM     19  C   UNL     1      -6.683 -13.513  13.492  0.00  0.00    +0.021 A 
ATOM     21  C   UNL     1      -7.518 -12.928  14.417  0.00  0.00    +0.016 A 
ATOM     24  C   UNL     1      -8.816 -12.675  13.883  0.00  0.00    +0.008 A 
ATOM     25  C   UNL     1      -8.921 -13.078  12.570  0.00  0.00    +0.046 A 
ENDBRANCH  14  19
TORSDOF 2
ENDMDL
MODEL 6
REMARK VINA RESULT:      -5.8     22.724     25.508
REMARK  Name = 7685227
REMARK  2 active torsions:
REMARK  status: ('A' for Active; 'I' for Inactive)
REMARK    1  A    between atoms: C_14  and  C_19
REMARK    2  A    between atoms: C_16  and  C_20
REMARK                            x       y       z     vdW  Elec       q    Type
REMARK                         _______ _______ _______ _____ _____    ______ ____
ROOT
ATOM      3  O   UNL     1      22.497  -6.414  23.480  0.00  0.00    -0.268 OA
ATOM      4  O   UNL     1      20.326  -6.828  28.025  0.00  0.00    -0.270 OA
ATOM      5  N   UNL     1      19.843  -4.669  27.269  0.00  0.00    -0.297 N 
ATOM      6  N   UNL     1      21.119  -4.751  24.386  0.00  0.00    -0.311 N 
ATOM      7  C   UNL     1      21.826  -3.417  26.462  0.00  0.00    +0.027 C 
ATOM      8  C   UNL     1      19.631  -3.013  25.427  0.00  0.00    +0.054 C 
ATOM      9  C   UNL     1      20.919  -2.335  25.897  0.00  0.00    +0.018 C 
ATOM     10  C   UNL     1      21.149  -4.130  27.645  0.00  0.00    +0.113 C 
ATOM     11  C   UNL     1      22.183  -4.387  25.335  0.00  0.00    +0.130 C 
ATOM     12  C   UNL     1      18.943  -3.702  26.625  0.00  0.00    +0.117 C 
ATOM     13  C   UNL     1      19.904  -4.037  24.319  0.00  0.00    +0.035 A 
ATOM     14  C   UNL     1      19.019  -4.298  23.319  0.00  0.00    +0.009 A 
ATOM     15  C   UNL     1      21.447  -5.770  23.475  0.00  0.00    +0.252 A 
ATOM     16  C   UNL     1      19.571  -6.022  27.486  0.00  0.00    +0.247 C 
ATOM     17  C   UNL     1      19.326  -5.348  22.363  0.00  0.00    +0.016 A 
ATOM     18  C   UNL     1      20.448  -6.063  22.424  0.00  0.00    +0.071 A 
ENDROOT
BRANCH  16  20
ATOM      2  F   UNL     1      14.669  -8.048  25.713  0.00  0.00    -0.205 F 
ATOM     20  C   UNL     1      18.284  -6.554  27.020  0.00  0.00    +0.037 A 
ATOM     22  C   UNL     1      17.189  -6.568  27.881  0.00  0.00    +0.016 A 
ATOM     23  C   UNL     1      18.164  -7.041  25.721  0.00  0.00    +0.016 A 
ATOM     26  C   UNL     1      15.966  -7.074  27.438  0.00  0.00    +0.039 A 
ATOM     27  C   UNL     1      16.942  -7.547  25.279  0.00  0.00    +0.039 A 
ATOM     28  C   UNL     1      15.842  -7.563  26.137  0.00  0.00    +0.123 A 
ENDBRANCH  16  20
BRANCH  14  19
ATOM      1  S   UNL     1      17.792  -2.026  22.455  0.00  0.00    -0.097 S 
ATOM     19  C   UNL     1      17.790  -3.561  23.213  0.00  0.00    +0.021 A 
ATOM     21  C   UNL     1      16.535  -3.919  23.654  0.00  0.00    +0.016 A 
ATOM     24  C   UNL     1      15.561  -2.919  23.364  0.00  0.00    +0.008 A 
ATOM     25  C   UNL     1      16.110  -1.836  22.714  0.00  0.00    +0.046 A 
ENDBRANCH  14  19
TORSDOF 2
ENDMDL
MODEL 7
REMARK VINA RESULT:      -5.8      2.461      4.601
REMARK  Name = 7685227
REMARK  2 active torsions:
REMARK  status: ('A' for Active; 'I' for Inactive)
REMARK    1  A    between atoms: C_14  and  C_19
REMARK    2  A    between atoms: C_16  and  C_20
REMARK                            x       y       z     vdW  Elec       q    Type
REMARK                         _______ _______ _______ _____ _____    ______ ____
ROOT
ATOM      3  O   UNL     1       8.668   7.274   8.464  0.00  0.00    -0.268 OA
ATOM      4  O   UNL     1       7.543   8.079   3.603  0.00  0.00    -0.270 OA
ATOM      5  N   UNL     1       9.514   9.266   4.019  0.00  0.00    -0.297 N 
ATOM      6  N   UNL     1      10.085   8.440   7.008  0.00  0.00    -0.311 N 
ATOM      7  C   UNL     1       9.414  10.715   6.029  0.00  0.00    +0.027 C 
ATOM      8  C   UNL     1      11.550   9.679   5.385  0.00  0.00    +0.054 C 
ATOM      9  C   UNL     1      10.912  10.954   5.936  0.00  0.00    +0.018 C 
ATOM     10  C   UNL     1       8.829  10.396   4.642  0.00  0.00    +0.113 C 
ATOM     11  C   UNL     1       9.164   9.586   7.029  0.00  0.00    +0.130 C 
ATOM     12  C   UNL     1      10.979   9.381   3.981  0.00  0.00    +0.117 C 
ATOM     13  C   UNL     1      11.311   8.482   6.312  0.00  0.00    +0.035 A 
ATOM     14  C   UNL     1      12.206   7.467   6.455  0.00  0.00    +0.009 A 
ATOM     15  C   UNL     1       9.718   7.356   7.825  0.00  0.00    +0.252 A 
ATOM     16  C   UNL     1       8.768   8.173   3.571  0.00  0.00    +0.247 C 
ATOM     17  C   UNL     1      11.856   6.330   7.289  0.00  0.00    +0.016 A 
ATOM     18  C   UNL     1      10.691   6.246   7.928  0.00  0.00    +0.071 A 
ENDROOT
BRANCH  16  20
ATOM      2  F   UNL     1      11.518   3.765   1.500  0.00  0.00    -0.205 F 
ATOM     20  C   UNL     1       9.490   7.015   3.027  0.00  0.00    +0.037 A 
ATOM     22  C   UNL     1       9.793   6.964   1.669  0.00  0.00    +0.016 A 
ATOM     23  C   UNL     1       9.869   5.975   3.872  0.00  0.00    +0.016 A 
ATOM     26  C   UNL     1      10.478   5.864   1.152  0.00  0.00    +0.039 A 
ATOM     27  C   UNL     1      10.554   4.876   3.356  0.00  0.00    +0.039 A 
ATOM     28  C   UNL     1      10.860   4.821   1.996  0.00  0.00    +0.123 A 
ENDBRANCH  16  20
BRANCH  14  19
ATOM      1  S   UNL     1      13.583   6.954   4.162  0.00  0.00    -0.097 S 
ATOM     19  C   UNL     1      13.475   7.503   5.780  0.00  0.00    +0.021 A 
ATOM     21  C   UNL     1      14.691   7.936   6.261  0.00  0.00    +0.016 A 
ATOM     24  C   UNL     1      15.725   7.816   5.288  0.00  0.00    +0.008 A 
ATOM     25  C   UNL     1      15.260   7.296   4.101  0.00  0.00    +0.046 A 
ENDBRANCH  14  19
TORSDOF 2
ENDMDL
MODEL 8
REMARK VINA RESULT:      -5.8     27.806     29.327
REMARK  Name = 7685227
REMARK  2 active torsions:
REMARK  status: ('A' for Active; 'I' for Inactive)
REMARK    1  A    between atoms: C_14  and  C_19
REMARK    2  A    between atoms: C_16  and  C_20
REMARK                            x       y       z     vdW  Elec       q    Type
REMARK                         _______ _______ _______ _____ _____    ______ ____
ROOT
ATOM      3  O   UNL     1      -3.694 -11.153  17.270  0.00  0.00    -0.268 OA
ATOM      4  O   UNL     1      -7.046 -10.236  13.602  0.00  0.00    -0.270 OA
ATOM      5  N   UNL     1      -7.896 -12.040  14.822  0.00  0.00    -0.297 N 
ATOM      6  N   UNL     1      -5.749 -12.265  17.121  0.00  0.00    -0.311 N 
ATOM      7  C   UNL     1      -6.262 -13.870  15.185  0.00  0.00    +0.027 C 
ATOM      8  C   UNL     1      -7.973 -13.414  16.892  0.00  0.00    +0.054 C 
ATOM      9  C   UNL     1      -7.211 -14.528  16.173  0.00  0.00    +0.018 C 
ATOM     10  C   UNL     1      -7.042 -13.026  14.162  0.00  0.00    +0.113 C 
ATOM     11  C   UNL     1      -5.252 -13.031  15.968  0.00  0.00    +0.130 C 
ATOM     12  C   UNL     1      -8.776 -12.590  15.863  0.00  0.00    +0.117 C 
ATOM     13  C   UNL     1      -7.026 -12.497  17.675  0.00  0.00    +0.035 A 
ATOM     14  C   UNL     1      -7.381 -11.887  18.838  0.00  0.00    +0.009 A 
ATOM     15  C   UNL     1      -4.823 -11.382  17.704  0.00  0.00    +0.252 A 
ATOM     16  C   UNL     1      -7.784 -10.692  14.473  0.00  0.00    +0.247 C 
ATOM     17  C   UNL     1      -6.449 -10.965  19.463  0.00  0.00    +0.016 A 
ATOM     18  C   UNL     1      -5.252 -10.698  18.944  0.00  0.00    +0.071 A 
ENDROOT
BRANCH  16  20
ATOM      2  F   UNL     1     -10.865  -6.969  17.287  0.00  0.00    -0.205 F 
ATOM     20  C   UNL     1      -8.592  -9.714  15.212  0.00  0.00    +0.037 A 
ATOM     22  C   UNL     1      -9.763  -9.216  14.646  0.00  0.00    +0.016 A 
ATOM     23  C   UNL     1      -8.185  -9.291  16.475  0.00  0.00    +0.016 A 
ATOM     26  C   UNL     1     -10.531  -8.287  15.348  0.00  0.00    +0.039 A 
ATOM     27  C   UNL     1      -8.953  -8.362  17.176  0.00  0.00    +0.039 A 
ATOM     28  C   UNL     1     -10.127  -7.861  16.614  0.00  0.00    +0.123 A 
ENDBRANCH  16  20
BRANCH  14  19
ATOM      1  S   UNL     1      -8.932 -13.597  20.281  0.00  0.00    -0.097 S 
ATOM     19  C   UNL     1      -8.665 -12.132  19.436  0.00  0.00    +0.021 A 
ATOM     21  C   UNL     1      -9.781 -11.326  19.435  0.00  0.00    +0.016 A 
ATOM     24  C   UNL     1     -10.871 -11.918  20.138  0.00  0.00    +0.008 A 
ATOM     25  C   UNL     1     -10.544 -13.155  20.649  0.00  0.00    +0.046 A 
ENDBRANCH  14  19
TORSDOF 2
ENDMDL
MODEL 9
REMARK VINA RESULT:      -5.6     23.511     26.296
REMARK  Name = 7685227
REMARK  2 active torsions:
REMARK  status: ('A' for Active; 'I' for Inactive)
REMARK    1  A    between atoms: C_14  and  C_19
REMARK    2  A    between atoms: C_16  and  C_20
REMARK                            x       y       z     vdW  Elec       q    Type
REMARK                         _______ _______ _______ _____ _____    ______ ____
ROOT
ATOM      3  O   UNL     1      -2.963  -8.956  10.307  0.00  0.00    -0.268 OA
ATOM      4  O   UNL     1      -7.286  -9.170  12.915  0.00  0.00    -0.270 OA
ATOM      5  N   UNL     1      -6.802 -11.367  12.279  0.00  0.00    -0.297 N 
ATOM      6  N   UNL     1      -4.008 -10.975  10.869  0.00  0.00    -0.311 N 
ATOM      7  C   UNL     1      -6.280 -11.627   9.868  0.00  0.00    +0.027 C 
ATOM      8  C   UNL     1      -5.190 -13.098  11.511  0.00  0.00    +0.054 C 
ATOM      9  C   UNL     1      -5.817 -13.053  10.117  0.00  0.00    +0.018 C 
ATOM     10  C   UNL     1      -7.317 -11.201  10.921  0.00  0.00    +0.113 C 
ATOM     11  C   UNL     1      -5.054 -10.712   9.869  0.00  0.00    +0.130 C 
ATOM     12  C   UNL     1      -6.246 -12.697  12.565  0.00  0.00    +0.117 C 
ATOM     13  C   UNL     1      -3.972 -12.174  11.613  0.00  0.00    +0.035 A 
ATOM     14  C   UNL     1      -2.899 -12.448  12.403  0.00  0.00    +0.009 A 
ATOM     15  C   UNL     1      -2.987 -10.011  10.942  0.00  0.00    +0.252 A 
ATOM     16  C   UNL     1      -6.820 -10.282  13.158  0.00  0.00    +0.247 C 
ATOM     17  C   UNL     1      -1.829 -11.471  12.503  0.00  0.00    +0.016 A 
ATOM     18  C   UNL     1      -1.854 -10.315  11.843  0.00  0.00    +0.071 A 
ENDROOT
BRANCH  16  20
ATOM      2  F   UNL     1      -4.524 -10.935  18.215  0.00  0.00    -0.205 F 
ATOM     20  C   UNL     1      -6.217 -10.454  14.486  0.00  0.00    +0.037 A 
ATOM     22  C   UNL     1      -4.840 -10.317  14.644  0.00  0.00    +0.016 A 
ATOM     23  C   UNL     1      -7.025 -10.752  15.580  0.00  0.00    +0.016 A 
ATOM     26  C   UNL     1      -4.268 -10.481  15.905  0.00  0.00    +0.039 A 
ATOM     27  C   UNL     1      -6.453 -10.915  16.841  0.00  0.00    +0.039 A 
ATOM     28  C   UNL     1      -5.074 -10.779  17.005  0.00  0.00    +0.123 A 
ENDBRANCH  16  20
BRANCH  14  19
ATOM      1  S   UNL     1      -2.204 -15.081  12.387  0.00  0.00    -0.097 S 
ATOM     19  C   UNL     1      -2.826 -13.678  13.145  0.00  0.00    +0.021 A 
ATOM     21  C   UNL     1      -3.203 -13.918  14.447  0.00  0.00    +0.016 A 
ATOM     24  C   UNL     1      -2.977 -15.272  14.829  0.00  0.00    +0.008 A 
ATOM     25  C   UNL     1      -2.436 -16.015  13.803  0.00  0.00    +0.046 A 
ENDBRANCH  14  19
TORSDOF 2
ENDMDL
MODEL 10
REMARK VINA RESULT:      -5.5      2.774      4.780
REMARK  Name = 7685227
REMARK  2 active torsions:
REMARK  status: ('A' for Active; 'I' for Inactive)
REMARK    1  A    between atoms: C_14  and  C_19
REMARK    2  A    between atoms: C_16  and  C_20
REMARK                            x       y       z     vdW  Elec       q    Type
REMARK                         _______ _______ _______ _____ _____    ______ ____
ROOT
ATOM      3  O   UNL     1      14.470   7.791   2.835  0.00  0.00    -0.268 OA
ATOM      4  O   UNL     1       9.895   8.446   0.791  0.00  0.00    -0.270 OA
ATOM      5  N   UNL     1       9.691   6.654   2.278  0.00  0.00    -0.297 N 
ATOM      6  N   UNL     1      12.583   6.594   3.536  0.00  0.00    -0.311 N 
ATOM      7  C   UNL     1      11.425   4.903   1.991  0.00  0.00    +0.027 C 
ATOM      8  C   UNL     1      10.512   5.351   4.231  0.00  0.00    +0.054 C 
ATOM      9  C   UNL     1      10.980   4.244   3.286  0.00  0.00    +0.018 C 
ATOM     10  C   UNL     1      10.262   5.680   1.350  0.00  0.00    +0.113 C 
ATOM     11  C   UNL     1      12.620   5.809   2.293  0.00  0.00    +0.130 C 
ATOM     12  C   UNL     1       9.326   6.107   3.593  0.00  0.00    +0.117 C 
ATOM     13  C   UNL     1      11.644   6.332   4.556  0.00  0.00    +0.035 A 
ATOM     14  C   UNL     1      11.750   6.968   5.754  0.00  0.00    +0.009 A 
ATOM     15  C   UNL     1      13.619   7.533   3.687  0.00  0.00    +0.252 A 
ATOM     16  C   UNL     1       9.589   7.992   1.892  0.00  0.00    +0.247 C 
ATOM     17  C   UNL     1      12.807   7.947   5.941  0.00  0.00    +0.016 A 
ATOM     18  C   UNL     1      13.684   8.242   4.984  0.00  0.00    +0.071 A 
ENDROOT
BRANCH  16  20
ATOM      2  F   UNL     1       7.700  11.689   5.639  0.00  0.00    -0.205 F 
ATOM     20  C   UNL     1       9.092   8.963   2.876  0.00  0.00    +0.037 A 
ATOM     22  C   UNL     1       9.995   9.671   3.666  0.00  0.00    +0.016 A 
ATOM     23  C   UNL     1       7.723   9.170   3.014  0.00  0.00    +0.016 A 
ATOM     26  C   UNL     1       9.524  10.593   4.600  0.00  0.00    +0.039 A 
ATOM     27  C   UNL     1       7.251  10.092   3.949  0.00  0.00    +0.039 A 
ATOM     28  C   UNL     1       8.151  10.804   4.741  0.00  0.00    +0.123 A 
ENDBRANCH  16  20
BRANCH  14  19
ATOM      1  S   UNL     1       9.475   7.722   7.046  0.00  0.00    -0.097 S 
ATOM     19  C   UNL     1      10.824   6.693   6.818  0.00  0.00    +0.021 A 
ATOM     21  C   UNL     1      10.856   5.670   7.740  0.00  0.00    +0.016 A 
ATOM     24  C   UNL     1       9.756   5.731   8.645  0.00  0.00    +0.008 A 
ATOM     25  C   UNL     1       8.928   6.799   8.380  0.00  0.00    +0.046 A 
ENDBRANCH  14  19
TORSDOF 2
ENDMDL
