REMARK  Name = 51136666
REMARK  8 active torsions:
REMARK  status: ('A' for Active; 'I' for Inactive)
REMARK    1  A    between atoms: O_2  and  C_18
REMARK    2  A    between atoms: O_4  and  C_26
REMARK    3  A    between atoms: O_4  and  C_31
REMARK    4  A    between atoms: C_8  and  C_13
REMARK    5  A    between atoms: C_9  and  C_14
REMARK    6  A    between atoms: C_13  and  C_15
REMARK    7  A    between atoms: C_14  and  C_18
REMARK    8  A    between atoms: C_16  and  C_22
REMARK                            x       y       z     vdW  Elec       q    Type
REMARK                         _______ _______ _______ _____ _____    ______ ____
ROOT
ATOM      1  O   UNL     1       0.828   3.451   1.770  0.00  0.00    -0.270 OA
ATOM      5  N   UNL     1       1.805   2.028   0.192  0.00  0.00    -0.297 N 
ATOM      8  C   UNL     1       2.165  -0.261  -0.707  0.00  0.00    +0.016 C 
ATOM      9  C   UNL     1       3.578  -0.247  -0.070  0.00  0.00    +0.006 C 
ATOM     10  C   UNL     1       3.640   0.691   1.148  0.00  0.00    +0.023 C 
ATOM     11  C   UNL     1       1.708   1.179  -1.004  0.00  0.00    +0.112 C 
ATOM     12  C   UNL     1       3.134   2.087   0.797  0.00  0.00    +0.108 C 
ATOM     16  C   UNL     1       0.753   2.745   0.767  0.00  0.00    +0.248 C 
ENDROOT
BRANCH  16  22
ATOM      7  N   UNL     1      -1.945   3.013  -1.823  0.00  0.00    -0.263 NA
ATOM     22  C   UNL     1      -0.567   2.661   0.132  0.00  0.00    +0.055 A 
ATOM     27  C   UNL     1      -1.667   2.171   0.828  0.00  0.00    +0.016 A 
ATOM     28  C   UNL     1      -0.757   3.066  -1.180  0.00  0.00    +0.123 A 
ATOM     29  C   UNL     1      -2.905   2.101   0.199  0.00  0.00    +0.020 A 
ATOM     30  C   UNL     1      -2.991   2.531  -1.115  0.00  0.00    +0.111 A 
ENDBRANCH  16  22
BRANCH   8  13
ATOM     13  C   UNL     1       1.110  -0.991   0.135  0.00  0.00    +0.061 C 
BRANCH  13  15
ATOM      6  N   UNL     1       0.189  -1.642  -1.985  0.00  0.00    -0.287 NA
ATOM     15  C   UNL     1      -0.051  -1.398  -0.739  0.00  0.00    +0.044 C 
ATOM     17  C   UNL     1      -1.404  -1.493  -0.133  0.00  0.00    -0.001 A 
ATOM     19  C   UNL     1      -2.492  -1.487  -1.014  0.00  0.00    -0.033 A 
ATOM     20  C   UNL     1      -2.227  -1.374  -2.486  0.00  0.00    +0.059 C 
ATOM     21  C   UNL     1      -0.928  -2.096  -2.820  0.00  0.00    +0.146 C 
ATOM     23  C   UNL     1      -1.610  -1.570   1.246  0.00  0.00    +0.013 A 
ATOM     24  C   UNL     1      -3.793  -1.533  -0.505  0.00  0.00    +0.050 A 
ATOM     25  C   UNL     1      -2.912  -1.631   1.744  0.00  0.00    +0.046 A 
ATOM     26  C   UNL     1      -4.001  -1.610   0.872  0.00  0.00    +0.120 A 
BRANCH  26   4
ATOM      4  O   UNL     1      -5.268  -1.662   1.366  0.00  0.00    -0.495 OA
ATOM     31  C   UNL     1      -5.409  -1.737   2.784  0.00  0.00    +0.277 C 
ENDBRANCH  26   4
ENDBRANCH  13  15
ENDBRANCH   8  13
BRANCH   9  14
ATOM     14  C   UNL     1       4.086  -1.641   0.296  0.00  0.00    +0.124 C 
BRANCH  14  18
ATOM      3  O   UNL     1       6.350  -0.742   0.205  0.00  0.00    -0.251 OA
ATOM     18  C   UNL     1       5.587  -1.678   0.387  0.00  0.00    +0.305 C 
BRANCH  18   2
ATOM      2  O   UNL     1       5.995  -2.933   0.709  0.00  0.00    -0.481 OA
ATOM     32  H   UNL     1       6.972  -2.993   0.777  0.00  0.00    +0.295 HD
ENDBRANCH  18   2
ENDBRANCH  14  18
ENDBRANCH   9  14
TORSDOF 7
