MODEL 1
REMARK VINA RESULT:      -6.3      0.000      0.000
REMARK  Name = 75537123
REMARK  2 active torsions:
REMARK  status: ('A' for Active; 'I' for Inactive)
REMARK    1  A    between atoms: N_2  and  C_6
REMARK    2  A    between atoms: N_4  and  C_11
REMARK                            x       y       z     vdW  Elec       q    Type
REMARK                         _______ _______ _______ _____ _____    ______ ____
ROOT
ATOM      1  O   UNL     1      -1.763 -10.717  16.010  0.00  0.00    -0.252 OA
ATOM      2  N   UNL     1      -3.253 -10.357  11.175  0.00  0.00    -0.296 NA
ATOM      3  N   UNL     1      -2.780 -10.861  13.898  0.00  0.00    -0.278 N 
ATOM      4  N   UNL     1      -4.102 -10.707  15.707  0.00  0.00    -0.281 N 
ATOM      5  C   UNL     1      -4.125 -11.007  13.379  0.00  0.00    +0.109 C 
ATOM      7  C   UNL     1      -4.325 -10.108  12.160  0.00  0.00    +0.108 C 
ATOM      8  C   UNL     1      -5.014 -10.674  14.575  0.00  0.00    +0.133 C 
ATOM     12  C   UNL     1      -1.926 -10.065  11.754  0.00  0.00    +0.104 C 
ATOM     13  C   UNL     1      -1.657 -10.931  12.986  0.00  0.00    +0.125 C 
ATOM     15  C   UNL     1      -2.756 -10.760  15.295  0.00  0.00    +0.305 C 
ENDROOT
BRANCH   4  11
ATOM     11  C   UNL     1      -4.564 -10.552  17.065  0.00  0.00    +0.078 C 
ATOM     16  C   UNL     1      -4.252 -11.806  17.884  0.00  0.00    +0.022 C 
ATOM     17  C   UNL     1      -6.058 -10.223  17.095  0.00  0.00    +0.022 C 
ATOM     18  C   UNL     1      -4.778 -11.690  19.313  0.00  0.00    +0.002 C 
ATOM     19  C   UNL     1      -6.580 -10.108  18.525  0.00  0.00    +0.002 C 
ATOM     20  C   UNL     1      -6.267 -11.359  19.340  0.00  0.00    +0.000 C 
ENDBRANCH   4  11
BRANCH   2   6
ATOM      6  C   UNL     1      -3.465  -9.506  10.012  0.00  0.00    +0.057 C 
ATOM      9  C   UNL     1      -4.691  -8.600  10.261  0.00  0.00    +0.019 C 
ATOM     10  C   UNL     1      -4.326 -10.263   8.978  0.00  0.00    +0.019 C 
ATOM     14  C   UNL     1      -5.134  -8.954   8.823  0.00  0.00    +0.003 C 
ENDBRANCH   2   6
TORSDOF 2
ENDMDL
MODEL 2
REMARK VINA RESULT:      -6.0     21.782     24.887
REMARK  Name = 75537123
REMARK  2 active torsions:
REMARK  status: ('A' for Active; 'I' for Inactive)
REMARK    1  A    between atoms: N_2  and  C_6
REMARK    2  A    between atoms: N_4  and  C_11
REMARK                            x       y       z     vdW  Elec       q    Type
REMARK                         _______ _______ _______ _____ _____    ______ ____
ROOT
ATOM      1  O   UNL     1      10.579   7.696   2.213  0.00  0.00    -0.252 OA
ATOM      2  N   UNL     1       9.570   5.775   6.797  0.00  0.00    -0.296 NA
ATOM      3  N   UNL     1       9.922   6.452   4.094  0.00  0.00    -0.278 N 
ATOM      4  N   UNL     1      10.891   5.363   2.386  0.00  0.00    -0.281 N 
ATOM      5  C   UNL     1       9.846   5.054   4.464  0.00  0.00    +0.109 C 
ATOM      7  C   UNL     1      10.311   4.859   5.907  0.00  0.00    +0.108 C 
ATOM      8  C   UNL     1      10.703   4.353   3.413  0.00  0.00    +0.133 C 
ATOM     12  C   UNL     1       9.805   7.183   6.421  0.00  0.00    +0.104 C 
ATOM     13  C   UNL     1       9.362   7.452   4.980  0.00  0.00    +0.125 C 
ATOM     15  C   UNL     1      10.474   6.637   2.820  0.00  0.00    +0.305 C 
ENDROOT
BRANCH   4  11
ATOM     11  C   UNL     1      11.563   5.074   1.142  0.00  0.00    +0.078 C 
ATOM     16  C   UNL     1      10.549   4.711   0.055  0.00  0.00    +0.022 C 
ATOM     17  C   UNL     1      12.599   3.963   1.332  0.00  0.00    +0.022 C 
ATOM     18  C   UNL     1      11.237   4.348  -1.258  0.00  0.00    +0.002 C 
ATOM     19  C   UNL     1      13.284   3.604   0.017  0.00  0.00    +0.002 C 
ATOM     20  C   UNL     1      12.272   3.242  -1.065  0.00  0.00    +0.000 C 
ENDBRANCH   4  11
BRANCH   2   6
ATOM      6  C   UNL     1      10.011   5.568   8.170  0.00  0.00    +0.057 C 
ATOM      9  C   UNL     1       9.709   4.112   8.587  0.00  0.00    +0.019 C 
ATOM     10  C   UNL     1       8.888   6.001   9.136  0.00  0.00    +0.019 C 
ATOM     14  C   UNL     1       9.175   4.696   9.915  0.00  0.00    +0.003 C 
ENDBRANCH   2   6
TORSDOF 2
ENDMDL
MODEL 3
REMARK VINA RESULT:      -5.8      3.007      7.443
REMARK  Name = 75537123
REMARK  2 active torsions:
REMARK  status: ('A' for Active; 'I' for Inactive)
REMARK    1  A    between atoms: N_2  and  C_6
REMARK    2  A    between atoms: N_4  and  C_11
REMARK                            x       y       z     vdW  Elec       q    Type
REMARK                         _______ _______ _______ _____ _____    ______ ____
ROOT
ATOM      1  O   UNL     1      -4.479 -12.887  18.384  0.00  0.00    -0.252 OA
ATOM      2  N   UNL     1      -9.036 -10.724  18.916  0.00  0.00    -0.296 NA
ATOM      3  N   UNL     1      -6.359 -11.487  18.541  0.00  0.00    -0.278 N 
ATOM      4  N   UNL     1      -4.923 -11.153  16.847  0.00  0.00    -0.281 N 
ATOM      5  C   UNL     1      -6.849 -10.296  17.879  0.00  0.00    +0.109 C 
ATOM      7  C   UNL     1      -8.355 -10.399  17.646  0.00  0.00    +0.108 C 
ATOM      8  C   UNL     1      -6.006 -10.214  16.608  0.00  0.00    +0.133 C 
ATOM     12  C   UNL     1      -8.560 -12.014  19.455  0.00  0.00    +0.104 C 
ATOM     13  C   UNL     1      -7.052 -11.985  19.712  0.00  0.00    +0.125 C 
ATOM     15  C   UNL     1      -5.165 -11.958  17.978  0.00  0.00    +0.305 C 
ENDROOT
BRANCH   4  11
ATOM     11  C   UNL     1      -3.824 -11.303  15.925  0.00  0.00    +0.078 C 
ATOM     16  C   UNL     1      -2.550 -10.681  16.500  0.00  0.00    +0.022 C 
ATOM     17  C   UNL     1      -4.174 -10.698  14.562  0.00  0.00    +0.022 C 
ATOM     18  C   UNL     1      -1.383 -10.779  15.520  0.00  0.00    +0.002 C 
ATOM     19  C   UNL     1      -3.005 -10.798  13.586  0.00  0.00    +0.002 C 
ATOM     20  C   UNL     1      -1.736 -10.178  14.162  0.00  0.00    +0.000 C 
ENDBRANCH   4  11
BRANCH   2   6
ATOM      6  C   UNL     1     -10.471 -10.804  18.683  0.00  0.00    +0.057 C 
ATOM      9  C   UNL     1     -10.967  -9.463  18.099  0.00  0.00    +0.019 C 
ATOM     10  C   UNL     1     -11.219 -10.431  19.981  0.00  0.00    +0.019 C 
ATOM     14  C   UNL     1     -12.144  -9.565  19.095  0.00  0.00    +0.003 C 
ENDBRANCH   2   6
TORSDOF 2
ENDMDL
MODEL 4
REMARK VINA RESULT:      -5.8      2.987      4.740
REMARK  Name = 75537123
REMARK  2 active torsions:
REMARK  status: ('A' for Active; 'I' for Inactive)
REMARK    1  A    between atoms: N_2  and  C_6
REMARK    2  A    between atoms: N_4  and  C_11
REMARK                            x       y       z     vdW  Elec       q    Type
REMARK                         _______ _______ _______ _____ _____    ______ ____
ROOT
ATOM      1  O   UNL     1      -6.520 -10.188  19.172  0.00  0.00    -0.252 OA
ATOM      2  N   UNL     1      -3.732 -11.102  15.035  0.00  0.00    -0.296 NA
ATOM      3  N   UNL     1      -5.624 -10.801  17.089  0.00  0.00    -0.278 N 
ATOM      4  N   UNL     1      -7.656  -9.847  17.133  0.00  0.00    -0.281 N 
ATOM      5  C   UNL     1      -6.081 -10.855  15.715  0.00  0.00    +0.109 C 
ATOM      7  C   UNL     1      -4.984 -10.365  14.771  0.00  0.00    +0.108 C 
ATOM      8  C   UNL     1      -7.351 -10.007  15.722  0.00  0.00    +0.133 C 
ATOM     12  C   UNL     1      -3.277 -10.889  16.423  0.00  0.00    +0.104 C 
ATOM     13  C   UNL     1      -4.331 -11.358  17.429  0.00  0.00    +0.125 C 
ATOM     15  C   UNL     1      -6.592 -10.272  17.953  0.00  0.00    +0.305 C 
ENDROOT
BRANCH   4  11
ATOM     11  C   UNL     1      -8.859  -9.192  17.585  0.00  0.00    +0.078 C 
ATOM     16  C   UNL     1      -9.917 -10.224  17.983  0.00  0.00    +0.022 C 
ATOM     17  C   UNL     1      -9.390  -8.234  16.515  0.00  0.00    +0.022 C 
ATOM     18  C   UNL     1     -11.220  -9.557  18.415  0.00  0.00    +0.002 C 
ATOM     19  C   UNL     1     -10.693  -7.570  16.951  0.00  0.00    +0.002 C 
ATOM     20  C   UNL     1     -11.745  -8.601  17.347  0.00  0.00    +0.000 C 
ENDBRANCH   4  11
BRANCH   2   6
ATOM      6  C   UNL     1      -2.701 -10.636  14.117  0.00  0.00    +0.057 C 
ATOM      9  C   UNL     1      -3.312 -10.466  12.709  0.00  0.00    +0.019 C 
ATOM     10  C   UNL     1      -1.932 -11.852  13.556  0.00  0.00    +0.019 C 
ATOM     14  C   UNL     1      -2.049 -11.176  12.171  0.00  0.00    +0.003 C 
ENDBRANCH   2   6
TORSDOF 2
ENDMDL
MODEL 5
REMARK VINA RESULT:      -5.6     26.028     27.837
REMARK  Name = 75537123
REMARK  2 active torsions:
REMARK  status: ('A' for Active; 'I' for Inactive)
REMARK    1  A    between atoms: N_2  and  C_6
REMARK    2  A    between atoms: N_4  and  C_11
REMARK                            x       y       z     vdW  Elec       q    Type
REMARK                         _______ _______ _______ _____ _____    ______ ____
ROOT
ATOM      1  O   UNL     1      13.727   8.656  15.073  0.00  0.00    -0.252 OA
ATOM      2  N   UNL     1      13.276   8.063  20.090  0.00  0.00    -0.296 NA
ATOM      3  N   UNL     1      13.947   8.571  17.410  0.00  0.00    -0.278 N 
ATOM      4  N   UNL     1      14.587  10.444  16.349  0.00  0.00    -0.281 N 
ATOM      5  C   UNL     1      14.530   9.396  18.449  0.00  0.00    +0.109 C 
ATOM      7  C   UNL     1      13.613   9.438  19.670  0.00  0.00    +0.108 C 
ATOM      8  C   UNL     1      14.749  10.742  17.762  0.00  0.00    +0.133 C 
ATOM     12  C   UNL     1      12.577   7.338  19.011  0.00  0.00    +0.104 C 
ATOM     13  C   UNL     1      13.439   7.257  17.749  0.00  0.00    +0.125 C 
ATOM     15  C   UNL     1      14.050   9.158  16.142  0.00  0.00    +0.305 C 
ENDROOT
BRANCH   4  11
ATOM     11  C   UNL     1      14.825  11.433  15.327  0.00  0.00    +0.078 C 
ATOM     16  C   UNL     1      13.559  11.667  14.500  0.00  0.00    +0.022 C 
ATOM     17  C   UNL     1      16.004  11.023  14.440  0.00  0.00    +0.022 C 
ATOM     18  C   UNL     1      13.798  12.672  13.376  0.00  0.00    +0.002 C 
ATOM     19  C   UNL     1      16.239  12.031  13.317  0.00  0.00    +0.002 C 
ATOM     20  C   UNL     1      14.975  12.262  12.495  0.00  0.00    +0.000 C 
ENDBRANCH   4  11
BRANCH   2   6
ATOM      6  C   UNL     1      12.416   8.118  21.264  0.00  0.00    +0.057 C 
ATOM      9  C   UNL     1      11.829   6.715  21.531  0.00  0.00    +0.019 C 
ATOM     10  C   UNL     1      10.997   8.550  20.835  0.00  0.00    +0.019 C 
ATOM     14  C   UNL     1      10.471   7.421  21.752  0.00  0.00    +0.003 C 
ENDBRANCH   2   6
TORSDOF 2
ENDMDL
MODEL 6
REMARK VINA RESULT:      -5.6      1.405      7.021
REMARK  Name = 75537123
REMARK  2 active torsions:
REMARK  status: ('A' for Active; 'I' for Inactive)
REMARK    1  A    between atoms: N_2  and  C_6
REMARK    2  A    between atoms: N_4  and  C_11
REMARK                            x       y       z     vdW  Elec       q    Type
REMARK                         _______ _______ _______ _____ _____    ______ ____
ROOT
ATOM      1  O   UNL     1      -1.832 -10.887  13.626  0.00  0.00    -0.252 OA
ATOM      2  N   UNL     1      -5.518 -11.136  17.101  0.00  0.00    -0.296 NA
ATOM      3  N   UNL     1      -3.711 -10.628  15.012  0.00  0.00    -0.278 N 
ATOM      4  N   UNL     1      -3.994 -10.441  12.792  0.00  0.00    -0.281 N 
ATOM      5  C   UNL     1      -5.097 -10.236  14.854  0.00  0.00    +0.109 C 
ATOM      7  C   UNL     1      -6.001 -11.125  15.706  0.00  0.00    +0.108 C 
ATOM      8  C   UNL     1      -5.332 -10.335  13.348  0.00  0.00    +0.133 C 
ATOM     12  C   UNL     1      -4.141 -11.665  17.179  0.00  0.00    +0.104 C 
ATOM     13  C   UNL     1      -3.176 -10.821  16.344  0.00  0.00    +0.125 C 
ATOM     15  C   UNL     1      -3.027 -10.675  13.790  0.00  0.00    +0.305 C 
ENDROOT
BRANCH   4  11
ATOM     11  C   UNL     1      -3.756 -10.445  11.369  0.00  0.00    +0.078 C 
ATOM     16  C   UNL     1      -4.275  -9.153  10.733  0.00  0.00    +0.022 C 
ATOM     17  C   UNL     1      -4.385 -11.679  10.718  0.00  0.00    +0.022 C 
ATOM     18  C   UNL     1      -4.083  -9.154   9.219  0.00  0.00    +0.002 C 
ATOM     19  C   UNL     1      -4.191 -11.676   9.203  0.00  0.00    +0.002 C 
ATOM     20  C   UNL     1      -4.709 -10.387   8.573  0.00  0.00    +0.000 C 
ENDBRANCH   4  11
BRANCH   2   6
ATOM      6  C   UNL     1      -6.397 -11.973  17.905  0.00  0.00    +0.057 C 
ATOM      9  C   UNL     1      -7.817 -11.364  17.909  0.00  0.00    +0.019 C 
ATOM     10  C   UNL     1      -6.291 -11.549  19.386  0.00  0.00    +0.019 C 
ATOM     14  C   UNL     1      -7.834 -11.635  19.431  0.00  0.00    +0.003 C 
ENDBRANCH   2   6
TORSDOF 2
ENDMDL
MODEL 7
REMARK VINA RESULT:      -5.4      2.019      7.006
REMARK  Name = 75537123
REMARK  2 active torsions:
REMARK  status: ('A' for Active; 'I' for Inactive)
REMARK    1  A    between atoms: N_2  and  C_6
REMARK    2  A    between atoms: N_4  and  C_11
REMARK                            x       y       z     vdW  Elec       q    Type
REMARK                         _______ _______ _______ _____ _____    ______ ____
ROOT
ATOM      1  O   UNL     1      -5.697 -13.390  12.748  0.00  0.00    -0.252 OA
ATOM      2  N   UNL     1      -4.550 -12.480  17.603  0.00  0.00    -0.296 NA
ATOM      3  N   UNL     1      -4.749 -12.840  14.825  0.00  0.00    -0.278 N 
ATOM      4  N   UNL     1      -4.417 -11.440  13.100  0.00  0.00    -0.281 N 
ATOM      5  C   UNL     1      -3.839 -11.837  15.340  0.00  0.00    +0.109 C 
ATOM      7  C   UNL     1      -4.319 -11.334  16.701  0.00  0.00    +0.108 C 
ATOM      8  C   UNL     1      -3.805 -10.779  14.240  0.00  0.00    +0.133 C 
ATOM     12  C   UNL     1      -5.579 -13.385  17.055  0.00  0.00    +0.104 C 
ATOM     13  C   UNL     1      -5.166 -13.928  15.685  0.00  0.00    +0.125 C 
ATOM     15  C   UNL     1      -5.035 -12.653  13.466  0.00  0.00    +0.305 C 
ENDROOT
BRANCH   4  11
ATOM     11  C   UNL     1      -4.484 -10.818  11.800  0.00  0.00    +0.078 C 
ATOM     16  C   UNL     1      -3.161 -10.123  11.469  0.00  0.00    +0.022 C 
ATOM     17  C   UNL     1      -5.661  -9.842  11.727  0.00  0.00    +0.022 C 
ATOM     18  C   UNL     1      -3.223  -9.411  10.120  0.00  0.00    +0.002 C 
ATOM     19  C   UNL     1      -5.718  -9.132  10.376  0.00  0.00    +0.002 C 
ATOM     20  C   UNL     1      -4.398  -8.441  10.048  0.00  0.00    +0.000 C 
ENDBRANCH   4  11
BRANCH   2   6
ATOM      6  C   UNL     1      -4.990 -11.986  18.901  0.00  0.00    +0.057 C 
ATOM      9  C   UNL     1      -6.477 -12.351  19.107  0.00  0.00    +0.019 C 
ATOM     10  C   UNL     1      -5.445 -10.518  18.759  0.00  0.00    +0.019 C 
ATOM     14  C   UNL     1      -6.669 -10.906  19.621  0.00  0.00    +0.003 C 
ENDBRANCH   2   6
TORSDOF 2
ENDMDL
MODEL 8
REMARK VINA RESULT:      -5.3     23.256     25.562
REMARK  Name = 75537123
REMARK  2 active torsions:
REMARK  status: ('A' for Active; 'I' for Inactive)
REMARK    1  A    between atoms: N_2  and  C_6
REMARK    2  A    between atoms: N_4  and  C_11
REMARK                            x       y       z     vdW  Elec       q    Type
REMARK                         _______ _______ _______ _____ _____    ______ ____
ROOT
ATOM      1  O   UNL     1      13.250   7.070   2.989  0.00  0.00    -0.252 OA
ATOM      2  N   UNL     1      13.349   3.556  -0.667  0.00  0.00    -0.296 NA
ATOM      3  N   UNL     1      13.177   5.148   1.641  0.00  0.00    -0.278 N 
ATOM      4  N   UNL     1      11.525   5.468   3.127  0.00  0.00    -0.281 N 
ATOM      5  C   UNL     1      12.374   3.946   1.555  0.00  0.00    +0.109 C 
ATOM      7  C   UNL     1      12.085   3.603   0.095  0.00  0.00    +0.108 C 
ATOM      8  C   UNL     1      11.141   4.273   2.395  0.00  0.00    +0.133 C 
ATOM     12  C   UNL     1      14.039   4.861  -0.625  0.00  0.00    +0.104 C 
ATOM     13  C   UNL     1      14.361   5.272   0.814  0.00  0.00    +0.125 C 
ATOM     15  C   UNL     1      12.721   6.026   2.633  0.00  0.00    +0.305 C 
ENDROOT
BRANCH   4  11
ATOM     11  C   UNL     1      10.673   6.053   4.134  0.00  0.00    +0.078 C 
ATOM     16  C   UNL     1      10.181   4.983   5.111  0.00  0.00    +0.022 C 
ATOM     17  C   UNL     1       9.503   6.798   3.486  0.00  0.00    +0.022 C 
ATOM     18  C   UNL     1       9.234   5.568   6.156  0.00  0.00    +0.002 C 
ATOM     19  C   UNL     1       8.559   7.381   4.535  0.00  0.00    +0.002 C 
ATOM     20  C   UNL     1       8.070   6.312   5.508  0.00  0.00    +0.000 C 
ENDBRANCH   4  11
BRANCH   2   6
ATOM      6  C   UNL     1      13.061   3.213  -2.052  0.00  0.00    +0.057 C 
ATOM      9  C   UNL     1      13.178   4.481  -2.926  0.00  0.00    +0.019 C 
ATOM     10  C   UNL     1      11.537   3.281  -2.287  0.00  0.00    +0.019 C 
ATOM     14  C   UNL     1      11.860   4.033  -3.599  0.00  0.00    +0.003 C 
ENDBRANCH   2   6
TORSDOF 2
ENDMDL
MODEL 9
REMARK VINA RESULT:      -5.3      3.276      5.399
REMARK  Name = 75537123
REMARK  2 active torsions:
REMARK  status: ('A' for Active; 'I' for Inactive)
REMARK    1  A    between atoms: N_2  and  C_6
REMARK    2  A    between atoms: N_4  and  C_11
REMARK                            x       y       z     vdW  Elec       q    Type
REMARK                         _______ _______ _______ _____ _____    ______ ____
ROOT
ATOM      1  O   UNL     1      -9.225 -11.269  14.843  0.00  0.00    -0.252 OA
ATOM      2  N   UNL     1      -4.207 -10.540  14.955  0.00  0.00    -0.296 NA
ATOM      3  N   UNL     1      -7.009 -10.554  15.151  0.00  0.00    -0.278 N 
ATOM      4  N   UNL     1      -8.392 -10.519  16.919  0.00  0.00    -0.281 N 
ATOM      5  C   UNL     1      -6.233  -9.936  16.207  0.00  0.00    +0.109 C 
ATOM      7  C   UNL     1      -4.845 -10.568  16.287  0.00  0.00    +0.108 C 
ATOM      8  C   UNL     1      -7.099 -10.126  17.451  0.00  0.00    +0.133 C 
ATOM     12  C   UNL     1      -5.005 -11.298  13.971  0.00  0.00    +0.104 C 
ATOM     13  C   UNL     1      -6.416 -10.719  13.839  0.00  0.00    +0.125 C 
ATOM     15  C   UNL     1      -8.324 -10.832  15.547  0.00  0.00    +0.305 C 
ENDROOT
BRANCH   4  11
ATOM     11  C   UNL     1      -9.546 -10.694  17.768  0.00  0.00    +0.078 C 
ATOM     16  C   UNL     1     -10.400  -9.424  17.782  0.00  0.00    +0.022 C 
ATOM     17  C   UNL     1      -9.123 -11.097  19.182  0.00  0.00    +0.022 C 
ATOM     18  C   UNL     1     -11.600  -9.563  18.715  0.00  0.00    +0.002 C 
ATOM     19  C   UNL     1     -10.327 -11.235  20.111  0.00  0.00    +0.002 C 
ATOM     20  C   UNL     1     -11.176  -9.968  20.123  0.00  0.00    +0.000 C 
ENDBRANCH   4  11
BRANCH   2   6
ATOM      6  C   UNL     1      -2.879 -11.131  15.049  0.00  0.00    +0.057 C 
ATOM      9  C   UNL     1      -2.238 -10.731  16.396  0.00  0.00    +0.019 C 
ATOM     10  C   UNL     1      -1.857 -10.195  14.369  0.00  0.00    +0.019 C 
ATOM     14  C   UNL     1      -0.948 -10.439  15.596  0.00  0.00    +0.003 C 
ENDBRANCH   2   6
TORSDOF 2
ENDMDL
MODEL 10
REMARK VINA RESULT:      -5.3      4.909      7.285
REMARK  Name = 75537123
REMARK  2 active torsions:
REMARK  status: ('A' for Active; 'I' for Inactive)
REMARK    1  A    between atoms: N_2  and  C_6
REMARK    2  A    between atoms: N_4  and  C_11
REMARK                            x       y       z     vdW  Elec       q    Type
REMARK                         _______ _______ _______ _____ _____    ______ ____
ROOT
ATOM      1  O   UNL     1      -8.870 -12.255  15.918  0.00  0.00    -0.252 OA
ATOM      2  N   UNL     1     -11.429  -7.980  16.866  0.00  0.00    -0.296 NA
ATOM      3  N   UNL     1      -9.787 -10.255  16.741  0.00  0.00    -0.278 N 
ATOM      4  N   UNL     1      -7.555 -10.504  16.795  0.00  0.00    -0.281 N 
ATOM      5  C   UNL     1      -9.307  -9.080  17.439  0.00  0.00    +0.109 C 
ATOM      7  C   UNL     1      -9.960  -7.821  16.871  0.00  0.00    +0.108 C 
ATOM      8  C   UNL     1      -7.791  -9.150  17.267  0.00  0.00    +0.133 C 
ATOM     12  C   UNL     1     -11.833  -9.129  16.032  0.00  0.00    +0.104 C 
ATOM     13  C   UNL     1     -11.211 -10.430  16.543  0.00  0.00    +0.125 C 
ATOM     15  C   UNL     1      -8.753 -11.147  16.424  0.00  0.00    +0.305 C 
ENDROOT
BRANCH   4  11
ATOM     11  C   UNL     1      -6.224 -11.028  16.609  0.00  0.00    +0.078 C 
ATOM     16  C   UNL     1      -5.424 -10.937  17.911  0.00  0.00    +0.022 C 
ATOM     17  C   UNL     1      -5.511 -10.303  15.464  0.00  0.00    +0.022 C 
ATOM     18  C   UNL     1      -3.993 -11.436  17.728  0.00  0.00    +0.002 C 
ATOM     19  C   UNL     1      -4.081 -10.805  15.286  0.00  0.00    +0.002 C 
ATOM     20  C   UNL     1      -3.286 -10.714  16.584  0.00  0.00    +0.000 C 
ENDBRANCH   4  11
BRANCH   2   6
ATOM      6  C   UNL     1     -12.039  -6.768  16.339  0.00  0.00    +0.057 C 
ATOM      9  C   UNL     1     -12.651  -7.068  14.952  0.00  0.00    +0.019 C 
ATOM     10  C   UNL     1     -10.966  -5.936  15.604  0.00  0.00    +0.019 C 
ATOM     14  C   UNL     1     -12.011  -5.742  14.480  0.00  0.00    +0.003 C 
ENDBRANCH   2   6
TORSDOF 2
ENDMDL
