MODEL 1
REMARK VINA RESULT:      -6.4      0.000      0.000
REMARK  Name = 75536691
REMARK  9 active torsions:
REMARK  status: ('A' for Active; 'I' for Inactive)
REMARK    1  A    between atoms: S_1  and  N_7
REMARK    2  A    between atoms: S_1  and  C_17
REMARK    3  A    between atoms: O_3  and  C_11
REMARK    4  A    between atoms: N_6  and  C_10
REMARK    5  A    between atoms: N_6  and  C_15
REMARK    6  A    between atoms: N_7  and  C_14
REMARK    7  A    between atoms: N_8  and  C_19
REMARK    8  A    between atoms: C_12  and  C_14
REMARK    9  A    between atoms: C_15  and  C_16
REMARK                            x       y       z     vdW  Elec       q    Type
REMARK                         _______ _______ _______ _____ _____    ______ ____
ROOT
ATOM      2  O   UNL     1      15.969   6.085  19.017  0.00  0.00    -0.371 OA
ATOM     10  C   UNL     1      18.007   6.211  20.230  0.00  0.00    +0.111 C 
ATOM     11  C   UNL     1      17.216   7.486  20.457  0.00  0.00    +0.164 C 
ATOM     12  C   UNL     1      15.811   7.030  20.088  0.00  0.00    +0.164 C 
ATOM     13  C   UNL     1      17.343   5.664  18.976  0.00  0.00    +0.181 C 
ENDROOT
BRANCH  11   3
ATOM      3  O   UNL     1      17.290   7.943  21.794  0.00  0.00    -0.388 OA
ATOM     27  H   UNL     1      17.923   7.383  22.273  0.00  0.00    +0.210 HD
ENDBRANCH  11   3
BRANCH  10   6
ATOM      6  N   UNL     1      19.434   6.430  20.065  0.00  0.00    -0.302 NA
ATOM     26  H   UNL     1      19.709   7.256  20.598  0.00  0.00    +0.123 HD
BRANCH   6  15
ATOM     15  C   UNL     1      20.201   5.284  20.541  0.00  0.00    +0.156 C 
BRANCH  15  16
ATOM      8  N   UNL     1      21.711   6.314  22.269  0.00  0.00    -0.336 N 
ATOM      9  N   UNL     1      22.703   5.512  20.451  0.00  0.00    -0.239 NA
ATOM     16  C   UNL     1      21.554   5.692  21.062  0.00  0.00    +0.123 A 
ATOM     18  C   UNL     1      23.048   6.545  22.439  0.00  0.00    +0.106 A 
ATOM     19  C   UNL     1      20.671   6.668  23.206  0.00  0.00    +0.150 C 
ATOM     20  C   UNL     1      23.639   6.042  21.304  0.00  0.00    +0.130 A 
ENDBRANCH  15  16
ENDBRANCH   6  15
ENDBRANCH  10   6
BRANCH  12  14
ATOM     14  C   UNL     1      14.908   8.166  19.643  0.00  0.00    +0.140 C 
BRANCH  14   7
ATOM      7  N   UNL     1      14.211   7.786  18.399  0.00  0.00    -0.187 NA
ATOM     28  H   UNL     1      14.812   7.633  17.579  0.00  0.00    +0.148 HD
BRANCH   7   1
ATOM      1  S   UNL     1      12.600   8.271  18.142  0.00  0.00    +0.058 S 
ATOM      4  O   UNL     1      11.940   7.308  17.283  0.00  0.00    -0.153 OA
ATOM      5  O   UNL     1      12.581   9.683  17.808  0.00  0.00    -0.153 OA
BRANCH   1  17
ATOM     17  C   UNL     1      11.913   8.115  19.764  0.00  0.00    +0.105 A 
ATOM     21  C   UNL     1      11.478   9.250  20.449  0.00  0.00    +0.028 A 
ATOM     22  C   UNL     1      11.810   6.859  20.360  0.00  0.00    +0.028 A 
ATOM     23  C   UNL     1      10.940   9.128  21.730  0.00  0.00    +0.002 A 
ATOM     24  C   UNL     1      11.271   6.737  21.641  0.00  0.00    +0.002 A 
ATOM     25  C   UNL     1      10.836   7.871  22.326  0.00  0.00    +0.000 A 
ENDBRANCH   1  17
ENDBRANCH   7   1
ENDBRANCH  14   7
ENDBRANCH  12  14
TORSDOF 8
ENDMDL
MODEL 2
REMARK VINA RESULT:      -6.3     27.966     31.355
REMARK  Name = 75536691
REMARK  9 active torsions:
REMARK  status: ('A' for Active; 'I' for Inactive)
REMARK    1  A    between atoms: S_1  and  N_7
REMARK    2  A    between atoms: S_1  and  C_17
REMARK    3  A    between atoms: O_3  and  C_11
REMARK    4  A    between atoms: N_6  and  C_10
REMARK    5  A    between atoms: N_6  and  C_15
REMARK    6  A    between atoms: N_7  and  C_14
REMARK    7  A    between atoms: N_8  and  C_19
REMARK    8  A    between atoms: C_12  and  C_14
REMARK    9  A    between atoms: C_15  and  C_16
REMARK                            x       y       z     vdW  Elec       q    Type
REMARK                         _______ _______ _______ _____ _____    ______ ____
ROOT
ATOM      2  O   UNL     1     -15.882   6.947  22.797  0.00  0.00    -0.371 OA
ATOM     10  C   UNL     1     -15.040   4.775  23.263  0.00  0.00    +0.111 C 
ATOM     11  C   UNL     1     -14.516   5.231  21.914  0.00  0.00    +0.164 C 
ATOM     12  C   UNL     1     -14.687   6.740  22.026  0.00  0.00    +0.164 C 
ATOM     13  C   UNL     1     -16.218   5.717  23.461  0.00  0.00    +0.181 C 
ENDROOT
BRANCH  11   3
ATOM      3  O   UNL     1     -13.165   4.867  21.702  0.00  0.00    -0.388 OA
ATOM     27  H   UNL     1     -12.687   4.969  22.542  0.00  0.00    +0.210 HD
ENDBRANCH  11   3
BRANCH  10   6
ATOM      6  N   UNL     1     -15.425   3.374  23.297  0.00  0.00    -0.302 NA
ATOM     26  H   UNL     1     -14.754   2.858  23.867  0.00  0.00    +0.123 HD
BRANCH   6  15
ATOM     15  C   UNL     1     -16.756   3.209  23.868  0.00  0.00    +0.156 C 
BRANCH  15  16
ATOM      8  N   UNL     1     -16.761   2.920  26.367  0.00  0.00    -0.336 N 
ATOM      9  N   UNL     1     -16.674   1.056  25.164  0.00  0.00    -0.239 NA
ATOM     16  C   UNL     1     -16.730   2.368  25.118  0.00  0.00    +0.123 A 
ATOM     18  C   UNL     1     -16.724   1.894  27.270  0.00  0.00    +0.106 A 
ATOM     19  C   UNL     1     -16.824   4.325  26.694  0.00  0.00    +0.150 C 
ATOM     20  C   UNL     1     -16.670   0.754  26.503  0.00  0.00    +0.130 A 
ENDBRANCH  15  16
ENDBRANCH   6  15
ENDBRANCH  10   6
BRANCH  12  14
ATOM     14  C   UNL     1     -14.816   7.432  20.681  0.00  0.00    +0.140 C 
BRANCH  14   7
ATOM      7  N   UNL     1     -13.538   7.336  19.950  0.00  0.00    -0.187 NA
ATOM     28  H   UNL     1     -13.449   6.537  19.309  0.00  0.00    +0.148 HD
BRANCH   7   1
ATOM      1  S   UNL     1     -12.121   7.997  20.621  0.00  0.00    +0.058 S 
ATOM      4  O   UNL     1     -11.301   6.929  21.160  0.00  0.00    -0.153 OA
ATOM      5  O   UNL     1     -12.477   9.133  21.450  0.00  0.00    -0.153 OA
BRANCH   1  17
ATOM     17  C   UNL     1     -11.308   8.638  19.189  0.00  0.00    +0.105 A 
ATOM     21  C   UNL     1     -10.799   9.938  19.199  0.00  0.00    +0.028 A 
ATOM     22  C   UNL     1     -11.178   7.847  18.048  0.00  0.00    +0.028 A 
ATOM     23  C   UNL     1     -10.161  10.445  18.067  0.00  0.00    +0.002 A 
ATOM     24  C   UNL     1     -10.539   8.355  16.916  0.00  0.00    +0.002 A 
ATOM     25  C   UNL     1     -10.031   9.654  16.925  0.00  0.00    +0.000 A 
ENDBRANCH   1  17
ENDBRANCH   7   1
ENDBRANCH  14   7
ENDBRANCH  12  14
TORSDOF 8
ENDMDL
MODEL 3
REMARK VINA RESULT:      -6.2     28.690     32.701
REMARK  Name = 75536691
REMARK  9 active torsions:
REMARK  status: ('A' for Active; 'I' for Inactive)
REMARK    1  A    between atoms: S_1  and  N_7
REMARK    2  A    between atoms: S_1  and  C_17
REMARK    3  A    between atoms: O_3  and  C_11
REMARK    4  A    between atoms: N_6  and  C_10
REMARK    5  A    between atoms: N_6  and  C_15
REMARK    6  A    between atoms: N_7  and  C_14
REMARK    7  A    between atoms: N_8  and  C_19
REMARK    8  A    between atoms: C_12  and  C_14
REMARK    9  A    between atoms: C_15  and  C_16
REMARK                            x       y       z     vdW  Elec       q    Type
REMARK                         _______ _______ _______ _____ _____    ______ ____
ROOT
ATOM      2  O   UNL     1     -12.284  -9.549  18.116  0.00  0.00    -0.371 OA
ATOM     10  C   UNL     1     -12.475 -10.002  20.440  0.00  0.00    +0.111 C 
ATOM     11  C   UNL     1     -11.078 -10.372  19.976  0.00  0.00    +0.164 C 
ATOM     12  C   UNL     1     -10.969  -9.557  18.695  0.00  0.00    +0.164 C 
ATOM     13  C   UNL     1     -13.228  -9.960  19.119  0.00  0.00    +0.181 C 
ENDROOT
BRANCH  11   3
ATOM      3  O   UNL     1     -10.081 -10.017  20.915  0.00  0.00    -0.388 OA
ATOM     27  H   UNL     1      -9.220 -10.308  20.570  0.00  0.00    +0.210 HD
ENDBRANCH  11   3
BRANCH  10   6
ATOM      6  N   UNL     1     -13.046 -10.947  21.386  0.00  0.00    -0.302 NA
ATOM     26  H   UNL     1     -14.047 -10.768  21.473  0.00  0.00    +0.123 HD
BRANCH   6  15
ATOM     15  C   UNL     1     -12.848 -12.321  20.940  0.00  0.00    +0.156 C 
BRANCH  15  16
ATOM      8  N   UNL     1     -11.194 -13.908  21.975  0.00  0.00    -0.336 N 
ATOM      9  N   UNL     1     -12.979 -13.415  23.199  0.00  0.00    -0.239 NA
ATOM     16  C   UNL     1     -12.365 -13.209  22.056  0.00  0.00    +0.123 A 
ATOM     18  C   UNL     1     -11.051 -14.606  23.141  0.00  0.00    +0.106 A 
ATOM     19  C   UNL     1     -10.265 -13.921  20.869  0.00  0.00    +0.150 C 
ATOM     20  C   UNL     1     -12.165 -14.286  23.881  0.00  0.00    +0.130 A 
ENDBRANCH  15  16
ENDBRANCH   6  15
ENDBRANCH  10   6
BRANCH  12  14
ATOM     14  C   UNL     1      -9.973 -10.130  17.702  0.00  0.00    +0.140 C 
BRANCH  14   7
ATOM      7  N   UNL     1      -8.600  -9.843  18.157  0.00  0.00    -0.187 NA
ATOM     28  H   UNL     1      -8.145  -9.030  17.722  0.00  0.00    +0.148 HD
BRANCH   7   1
ATOM      1  S   UNL     1      -7.616 -11.102  18.745  0.00  0.00    +0.058 S 
ATOM      4  O   UNL     1      -8.208 -12.378  18.392  0.00  0.00    -0.153 OA
ATOM      5  O   UNL     1      -7.259 -10.817  20.121  0.00  0.00    -0.153 OA
BRANCH   1  17
ATOM     17  C   UNL     1      -6.150 -10.896  17.778  0.00  0.00    +0.105 A 
ATOM     21  C   UNL     1      -4.937 -11.413  18.234  0.00  0.00    +0.028 A 
ATOM     22  C   UNL     1      -6.206 -10.215  16.563  0.00  0.00    +0.028 A 
ATOM     23  C   UNL     1      -3.779 -11.247  17.473  0.00  0.00    +0.002 A 
ATOM     24  C   UNL     1      -5.048 -10.049  15.802  0.00  0.00    +0.002 A 
ATOM     25  C   UNL     1      -3.835 -10.566  16.257  0.00  0.00    +0.000 A 
ENDBRANCH   1  17
ENDBRANCH   7   1
ENDBRANCH  14   7
ENDBRANCH  12  14
TORSDOF 8
ENDMDL
MODEL 4
REMARK VINA RESULT:      -6.1     26.807     29.511
REMARK  Name = 75536691
REMARK  9 active torsions:
REMARK  status: ('A' for Active; 'I' for Inactive)
REMARK    1  A    between atoms: S_1  and  N_7
REMARK    2  A    between atoms: S_1  and  C_17
REMARK    3  A    between atoms: O_3  and  C_11
REMARK    4  A    between atoms: N_6  and  C_10
REMARK    5  A    between atoms: N_6  and  C_15
REMARK    6  A    between atoms: N_7  and  C_14
REMARK    7  A    between atoms: N_8  and  C_19
REMARK    8  A    between atoms: C_12  and  C_14
REMARK    9  A    between atoms: C_15  and  C_16
REMARK                            x       y       z     vdW  Elec       q    Type
REMARK                         _______ _______ _______ _____ _____    ______ ____
ROOT
ATOM      2  O   UNL     1      -7.165 -13.333  18.157  0.00  0.00    -0.371 OA
ATOM     10  C   UNL     1      -5.054 -12.494  18.852  0.00  0.00    +0.111 C 
ATOM     11  C   UNL     1      -6.144 -11.559  19.341  0.00  0.00    +0.164 C 
ATOM     12  C   UNL     1      -7.360 -12.473  19.292  0.00  0.00    +0.164 C 
ATOM     13  C   UNL     1      -5.784 -13.262  17.762  0.00  0.00    +0.181 C 
ENDROOT
BRANCH  11   3
ATOM      3  O   UNL     1      -5.900 -11.073  20.648  0.00  0.00    -0.388 OA
ATOM     27  H   UNL     1      -5.377 -10.257  20.577  0.00  0.00    +0.210 HD
ENDBRANCH  11   3
BRANCH  10   6
ATOM      6  N   UNL     1      -3.870 -11.807  18.364  0.00  0.00    -0.302 NA
ATOM     26  H   UNL     1      -3.253 -12.483  17.912  0.00  0.00    +0.123 HD
BRANCH   6  15
ATOM     15  C   UNL     1      -4.224 -10.772  17.399  0.00  0.00    +0.156 C 
BRANCH  15  16
ATOM      8  N   UNL     1      -3.665 -10.662  14.948  0.00  0.00    -0.336 N 
ATOM      9  N   UNL     1      -1.941 -10.731  16.346  0.00  0.00    -0.239 NA
ATOM     16  C   UNL     1      -3.252 -10.722  16.249  0.00  0.00    +0.123 A 
ATOM     18  C   UNL     1      -2.546 -10.630  14.163  0.00  0.00    +0.106 A 
ATOM     19  C   UNL     1      -5.028 -10.636  14.471  0.00  0.00    +0.150 C 
ATOM     20  C   UNL     1      -1.495 -10.673  15.048  0.00  0.00    +0.130 A 
ENDBRANCH  15  16
ENDBRANCH   6  15
ENDBRANCH  10   6
BRANCH  12  14
ATOM     14  C   UNL     1      -8.671 -11.722  19.148  0.00  0.00    +0.140 C 
BRANCH  14   7
ATOM      7  N   UNL     1      -8.404 -10.344  18.694  0.00  0.00    -0.187 NA
ATOM     28  H   UNL     1      -8.682  -9.597  19.344  0.00  0.00    +0.148 HD
BRANCH   7   1
ATOM      1  S   UNL     1      -8.352  -9.990  17.030  0.00  0.00    +0.058 S 
ATOM      4  O   UNL     1      -8.455 -11.223  16.274  0.00  0.00    -0.153 OA
ATOM      5  O   UNL     1      -7.261  -9.067  16.779  0.00  0.00    -0.153 OA
BRANCH   1  17
ATOM     17  C   UNL     1      -9.855  -9.086  16.805  0.00  0.00    +0.105 A 
ATOM     21  C   UNL     1      -9.839  -7.691  16.829  0.00  0.00    +0.028 A 
ATOM     22  C   UNL     1     -11.055  -9.767  16.609  0.00  0.00    +0.028 A 
ATOM     23  C   UNL     1     -11.025  -6.978  16.655  0.00  0.00    +0.002 A 
ATOM     24  C   UNL     1     -12.242  -9.054  16.435  0.00  0.00    +0.002 A 
ATOM     25  C   UNL     1     -12.227  -7.659  16.458  0.00  0.00    +0.000 A 
ENDBRANCH   1  17
ENDBRANCH   7   1
ENDBRANCH  14   7
ENDBRANCH  12  14
TORSDOF 8
ENDMDL
MODEL 5
REMARK VINA RESULT:      -6.1     27.260     29.824
REMARK  Name = 75536691
REMARK  9 active torsions:
REMARK  status: ('A' for Active; 'I' for Inactive)
REMARK    1  A    between atoms: S_1  and  N_7
REMARK    2  A    between atoms: S_1  and  C_17
REMARK    3  A    between atoms: O_3  and  C_11
REMARK    4  A    between atoms: N_6  and  C_10
REMARK    5  A    between atoms: N_6  and  C_15
REMARK    6  A    between atoms: N_7  and  C_14
REMARK    7  A    between atoms: N_8  and  C_19
REMARK    8  A    between atoms: C_12  and  C_14
REMARK    9  A    between atoms: C_15  and  C_16
REMARK                            x       y       z     vdW  Elec       q    Type
REMARK                         _______ _______ _______ _____ _____    ______ ____
ROOT
ATOM      2  O   UNL     1      -5.293 -10.219  16.890  0.00  0.00    -0.371 OA
ATOM     10  C   UNL     1      -5.439 -10.870  19.170  0.00  0.00    +0.111 C 
ATOM     11  C   UNL     1      -4.549 -11.851  18.430  0.00  0.00    +0.164 C 
ATOM     12  C   UNL     1      -4.150 -11.027  17.214  0.00  0.00    +0.164 C 
ATOM     13  C   UNL     1      -6.185 -10.215  18.018  0.00  0.00    +0.181 C 
ENDROOT
BRANCH  11   3
ATOM      3  O   UNL     1      -3.424 -12.247  19.192  0.00  0.00    -0.388 OA
ATOM     27  H   UNL     1      -3.720 -12.433  20.099  0.00  0.00    +0.210 HD
ENDBRANCH  11   3
BRANCH  10   6
ATOM      6  N   UNL     1      -6.327 -11.499  20.133  0.00  0.00    -0.302 NA
ATOM     26  H   UNL     1      -6.877 -10.777  20.601  0.00  0.00    +0.123 HD
BRANCH   6  15
ATOM     15  C   UNL     1      -7.235 -12.434  19.479  0.00  0.00    +0.156 C 
BRANCH  15  16
ATOM      8  N   UNL     1      -9.554 -13.152  20.141  0.00  0.00    -0.336 N 
ATOM      9  N   UNL     1      -9.241 -10.971  19.871  0.00  0.00    -0.239 NA
ATOM     16  C   UNL     1      -8.674 -12.155  19.827  0.00  0.00    +0.123 A 
ATOM     18  C   UNL     1     -10.761 -12.567  20.402  0.00  0.00    +0.106 A 
ATOM     19  C   UNL     1      -9.278 -14.569  20.192  0.00  0.00    +0.150 C 
ATOM     20  C   UNL     1     -10.543 -11.220  20.229  0.00  0.00    +0.130 A 
ENDBRANCH  15  16
ENDBRANCH   6  15
ENDBRANCH  10   6
BRANCH  12  14
ATOM     14  C   UNL     1      -3.763 -11.875  16.015  0.00  0.00    +0.140 C 
BRANCH  14   7
ATOM      7  N   UNL     1      -3.829 -11.057  14.789  0.00  0.00    -0.187 NA
ATOM     28  H   UNL     1      -4.768 -10.920  14.393  0.00  0.00    +0.148 HD
BRANCH   7   1
ATOM      1  S   UNL     1      -2.491 -10.982  13.740  0.00  0.00    +0.058 S 
ATOM      4  O   UNL     1      -2.046 -12.328  13.433  0.00  0.00    -0.153 OA
ATOM      5  O   UNL     1      -1.551 -10.000  14.245  0.00  0.00    -0.153 OA
BRANCH   1  17
ATOM     17  C   UNL     1      -3.214 -10.301  12.278  0.00  0.00    +0.105 A 
ATOM     21  C   UNL     1      -2.397  -9.789  11.270  0.00  0.00    +0.028 A 
ATOM     22  C   UNL     1      -4.601 -10.271  12.134  0.00  0.00    +0.028 A 
ATOM     23  C   UNL     1      -2.967  -9.248  10.118  0.00  0.00    +0.002 A 
ATOM     24  C   UNL     1      -5.171  -9.730  10.982  0.00  0.00    +0.002 A 
ATOM     25  C   UNL     1      -4.355  -9.219   9.974  0.00  0.00    +0.000 A 
ENDBRANCH   1  17
ENDBRANCH   7   1
ENDBRANCH  14   7
ENDBRANCH  12  14
TORSDOF 8
ENDMDL
MODEL 6
REMARK VINA RESULT:      -6.1     27.883     31.993
REMARK  Name = 75536691
REMARK  9 active torsions:
REMARK  status: ('A' for Active; 'I' for Inactive)
REMARK    1  A    between atoms: S_1  and  N_7
REMARK    2  A    between atoms: S_1  and  C_17
REMARK    3  A    between atoms: O_3  and  C_11
REMARK    4  A    between atoms: N_6  and  C_10
REMARK    5  A    between atoms: N_6  and  C_15
REMARK    6  A    between atoms: N_7  and  C_14
REMARK    7  A    between atoms: N_8  and  C_19
REMARK    8  A    between atoms: C_12  and  C_14
REMARK    9  A    between atoms: C_15  and  C_16
REMARK                            x       y       z     vdW  Elec       q    Type
REMARK                         _______ _______ _______ _____ _____    ______ ____
ROOT
ATOM      2  O   UNL     1     -15.994   6.753  23.201  0.00  0.00    -0.371 OA
ATOM     10  C   UNL     1     -15.217   4.526  23.485  0.00  0.00    +0.111 C 
ATOM     11  C   UNL     1     -14.722   5.058  22.153  0.00  0.00    +0.164 C 
ATOM     12  C   UNL     1     -14.834   6.560  22.376  0.00  0.00    +0.164 C 
ATOM     13  C   UNL     1     -16.352   5.491  23.790  0.00  0.00    +0.181 C 
ENDROOT
BRANCH  11   3
ATOM      3  O   UNL     1     -13.393   4.663  21.868  0.00  0.00    -0.388 OA
ATOM     27  H   UNL     1     -13.034   4.215  22.652  0.00  0.00    +0.210 HD
ENDBRANCH  11   3
BRANCH  10   6
ATOM      6  N   UNL     1     -15.651   3.140  23.436  0.00  0.00    -0.302 NA
ATOM     26  H   UNL     1     -14.994   2.566  23.967  0.00  0.00    +0.123 HD
BRANCH   6  15
ATOM     15  C   UNL     1     -16.983   2.986  24.010  0.00  0.00    +0.156 C 
BRANCH  15  16
ATOM      8  N   UNL     1     -18.545   2.021  22.290  0.00  0.00    -0.336 N 
ATOM      9  N   UNL     1     -17.714   0.592  23.773  0.00  0.00    -0.239 NA
ATOM     16  C   UNL     1     -17.736   1.845  23.377  0.00  0.00    +0.123 A 
ATOM     18  C   UNL     1     -19.073   0.802  21.970  0.00  0.00    +0.106 A 
ATOM     19  C   UNL     1     -18.806   3.259  21.593  0.00  0.00    +0.150 C 
ATOM     20  C   UNL     1     -18.546  -0.064  22.899  0.00  0.00    +0.130 A 
ENDBRANCH  15  16
ENDBRANCH   6  15
ENDBRANCH  10   6
BRANCH  12  14
ATOM     14  C   UNL     1     -14.983   7.348  21.087  0.00  0.00    +0.140 C 
BRANCH  14   7
ATOM      7  N   UNL     1     -13.774   7.176  20.259  0.00  0.00    -0.187 NA
ATOM     28  H   UNL     1     -13.761   6.343  19.656  0.00  0.00    +0.148 HD
BRANCH   7   1
ATOM      1  S   UNL     1     -12.289   7.828  20.772  0.00  0.00    +0.058 S 
ATOM      4  O   UNL     1     -11.446   6.762  21.279  0.00  0.00    -0.153 OA
ATOM      5  O   UNL     1     -12.545   9.004  21.582  0.00  0.00    -0.153 OA
BRANCH   1  17
ATOM     17  C   UNL     1     -11.595   8.391  19.248  0.00  0.00    +0.105 A 
ATOM     21  C   UNL     1     -10.456   9.198  19.256  0.00  0.00    +0.028 A 
ATOM     22  C   UNL     1     -12.186   8.033  18.037  0.00  0.00    +0.028 A 
ATOM     23  C   UNL     1      -9.911   9.647  18.053  0.00  0.00    +0.002 A 
ATOM     24  C   UNL     1     -11.641   8.482  16.834  0.00  0.00    +0.002 A 
ATOM     25  C   UNL     1     -10.503   9.288  16.842  0.00  0.00    +0.000 A 
ENDBRANCH   1  17
ENDBRANCH   7   1
ENDBRANCH  14   7
ENDBRANCH  12  14
TORSDOF 8
ENDMDL
MODEL 7
REMARK VINA RESULT:      -6.0     29.155     31.845
REMARK  Name = 75536691
REMARK  9 active torsions:
REMARK  status: ('A' for Active; 'I' for Inactive)
REMARK    1  A    between atoms: S_1  and  N_7
REMARK    2  A    between atoms: S_1  and  C_17
REMARK    3  A    between atoms: O_3  and  C_11
REMARK    4  A    between atoms: N_6  and  C_10
REMARK    5  A    between atoms: N_6  and  C_15
REMARK    6  A    between atoms: N_7  and  C_14
REMARK    7  A    between atoms: N_8  and  C_19
REMARK    8  A    between atoms: C_12  and  C_14
REMARK    9  A    between atoms: C_15  and  C_16
REMARK                            x       y       z     vdW  Elec       q    Type
REMARK                         _______ _______ _______ _____ _____    ______ ____
ROOT
ATOM      2  O   UNL     1     -12.382  -9.055  16.630  0.00  0.00    -0.371 OA
ATOM     10  C   UNL     1     -11.811  -7.145  15.339  0.00  0.00    +0.111 C 
ATOM     11  C   UNL     1     -10.696  -7.425  16.329  0.00  0.00    +0.164 C 
ATOM     12  C   UNL     1     -10.955  -8.889  16.657  0.00  0.00    +0.164 C 
ATOM     13  C   UNL     1     -12.962  -7.926  15.954  0.00  0.00    +0.181 C 
ENDROOT
BRANCH  11   3
ATOM      3  O   UNL     1      -9.410  -7.228  15.772  0.00  0.00    -0.388 OA
ATOM     27  H   UNL     1      -8.914  -6.628  16.354  0.00  0.00    +0.210 HD
ENDBRANCH  11   3
BRANCH  10   6
ATOM      6  N   UNL     1     -12.110  -5.731  15.180  0.00  0.00    -0.302 NA
ATOM     26  H   UNL     1     -11.282  -5.253  14.821  0.00  0.00    +0.123 HD
BRANCH   6  15
ATOM     15  C   UNL     1     -13.212  -5.528  14.247  0.00  0.00    +0.156 C 
BRANCH  15  16
ATOM      8  N   UNL     1     -12.459  -5.513  11.847  0.00  0.00    -0.336 N 
ATOM      9  N   UNL     1     -12.610  -3.533  12.841  0.00  0.00    -0.239 NA
ATOM     16  C   UNL     1     -12.762  -4.830  12.991  0.00  0.00    +0.123 A 
ATOM     18  C   UNL     1     -12.090  -4.592  10.906  0.00  0.00    +0.106 A 
ATOM     19  C   UNL     1     -12.514  -6.942  11.648  0.00  0.00    +0.150 C 
ATOM     20  C   UNL     1     -12.190  -3.379  11.543  0.00  0.00    +0.130 A 
ENDBRANCH  15  16
ENDBRANCH   6  15
ENDBRANCH  10   6
BRANCH  12  14
ATOM     14  C   UNL     1     -10.414  -9.305  18.013  0.00  0.00    +0.140 C 
BRANCH  14   7
ATOM      7  N   UNL     1      -8.939  -9.308  17.978  0.00  0.00    -0.187 NA
ATOM     28  H   UNL     1      -8.483  -8.434  18.267  0.00  0.00    +0.148 HD
BRANCH   7   1
ATOM      1  S   UNL     1      -8.115 -10.331  16.895  0.00  0.00    +0.058 S 
ATOM      4  O   UNL     1      -7.611  -9.547  15.783  0.00  0.00    -0.153 OA
ATOM      5  O   UNL     1      -8.924 -11.509  16.651  0.00  0.00    -0.153 OA
BRANCH   1  17
ATOM     17  C   UNL     1      -6.732 -10.847  17.867  0.00  0.00    +0.105 A 
ATOM     21  C   UNL     1      -5.563 -11.283  17.241  0.00  0.00    +0.028 A 
ATOM     22  C   UNL     1      -6.809 -10.822  19.259  0.00  0.00    +0.028 A 
ATOM     23  C   UNL     1      -4.473 -11.694  18.008  0.00  0.00    +0.002 A 
ATOM     24  C   UNL     1      -5.719 -11.233  20.026  0.00  0.00    +0.002 A 
ATOM     25  C   UNL     1      -4.551 -11.669  19.401  0.00  0.00    +0.000 A 
ENDBRANCH   1  17
ENDBRANCH   7   1
ENDBRANCH  14   7
ENDBRANCH  12  14
TORSDOF 8
ENDMDL
MODEL 8
REMARK VINA RESULT:      -6.0     15.407     17.785
REMARK  Name = 75536691
REMARK  9 active torsions:
REMARK  status: ('A' for Active; 'I' for Inactive)
REMARK    1  A    between atoms: S_1  and  N_7
REMARK    2  A    between atoms: S_1  and  C_17
REMARK    3  A    between atoms: O_3  and  C_11
REMARK    4  A    between atoms: N_6  and  C_10
REMARK    5  A    between atoms: N_6  and  C_15
REMARK    6  A    between atoms: N_7  and  C_14
REMARK    7  A    between atoms: N_8  and  C_19
REMARK    8  A    between atoms: C_12  and  C_14
REMARK    9  A    between atoms: C_15  and  C_16
REMARK                            x       y       z     vdW  Elec       q    Type
REMARK                         _______ _______ _______ _____ _____    ______ ____
ROOT
ATOM      2  O   UNL     1      14.843   9.542   5.042  0.00  0.00    -0.371 OA
ATOM     10  C   UNL     1      14.761   7.404   6.076  0.00  0.00    +0.111 C 
ATOM     11  C   UNL     1      14.703   7.229   4.570  0.00  0.00    +0.164 C 
ATOM     12  C   UNL     1      15.285   8.554   4.097  0.00  0.00    +0.164 C 
ATOM     13  C   UNL     1      14.374   8.868   6.223  0.00  0.00    +0.181 C 
ENDROOT
BRANCH  11   3
ATOM      3  O   UNL     1      15.466   6.125   4.120  0.00  0.00    -0.388 OA
ATOM     27  H   UNL     1      16.361   6.440   3.908  0.00  0.00    +0.210 HD
ENDBRANCH  11   3
BRANCH  10   6
ATOM      6  N   UNL     1      13.876   6.510   6.803  0.00  0.00    -0.302 NA
ATOM     26  H   UNL     1      14.348   6.186   7.648  0.00  0.00    +0.123 HD
BRANCH   6  15
ATOM     15  C   UNL     1      12.641   7.187   7.183  0.00  0.00    +0.156 C 
BRANCH  15  16
ATOM      8  N   UNL     1      10.752   5.912   6.119  0.00  0.00    -0.336 N 
ATOM      9  N   UNL     1      11.020   5.628   8.304  0.00  0.00    -0.239 NA
ATOM     16  C   UNL     1      11.473   6.237   7.232  0.00  0.00    +0.123 A 
ATOM     18  C   UNL     1       9.774   5.038   6.505  0.00  0.00    +0.106 A 
ATOM     19  C   UNL     1      10.967   6.392   4.774  0.00  0.00    +0.150 C 
ATOM     20  C   UNL     1       9.959   4.878   7.857  0.00  0.00    +0.130 A 
ENDBRANCH  15  16
ENDBRANCH   6  15
ENDBRANCH  10   6
BRANCH  12  14
ATOM     14  C   UNL     1      14.836   8.942   2.699  0.00  0.00    +0.140 C 
BRANCH  14   7
ATOM      7  N   UNL     1      13.710   8.083   2.285  0.00  0.00    -0.187 NA
ATOM     28  H   UNL     1      13.031   7.850   3.021  0.00  0.00    +0.148 HD
BRANCH   7   1
ATOM      1  S   UNL     1      13.897   7.002   0.984  0.00  0.00    +0.058 S 
ATOM      4  O   UNL     1      15.136   6.266   1.145  0.00  0.00    -0.153 OA
ATOM      5  O   UNL     1      13.618   7.702  -0.255  0.00  0.00    -0.153 OA
BRANCH   1  17
ATOM     17  C   UNL     1      12.559   5.878   1.254  0.00  0.00    +0.105 A 
ATOM     21  C   UNL     1      12.795   4.647   1.866  0.00  0.00    +0.028 A 
ATOM     22  C   UNL     1      11.268   6.220   0.852  0.00  0.00    +0.028 A 
ATOM     23  C   UNL     1      11.740   3.758   2.075  0.00  0.00    +0.002 A 
ATOM     24  C   UNL     1      10.213   5.332   1.061  0.00  0.00    +0.002 A 
ATOM     25  C   UNL     1      10.449   4.101   1.672  0.00  0.00    +0.000 A 
ENDBRANCH   1  17
ENDBRANCH   7   1
ENDBRANCH  14   7
ENDBRANCH  12  14
TORSDOF 8
ENDMDL
MODEL 9
REMARK VINA RESULT:      -5.9     27.526     29.377
REMARK  Name = 75536691
REMARK  9 active torsions:
REMARK  status: ('A' for Active; 'I' for Inactive)
REMARK    1  A    between atoms: S_1  and  N_7
REMARK    2  A    between atoms: S_1  and  C_17
REMARK    3  A    between atoms: O_3  and  C_11
REMARK    4  A    between atoms: N_6  and  C_10
REMARK    5  A    between atoms: N_6  and  C_15
REMARK    6  A    between atoms: N_7  and  C_14
REMARK    7  A    between atoms: N_8  and  C_19
REMARK    8  A    between atoms: C_12  and  C_14
REMARK    9  A    between atoms: C_15  and  C_16
REMARK                            x       y       z     vdW  Elec       q    Type
REMARK                         _______ _______ _______ _____ _____    ______ ____
ROOT
ATOM      2  O   UNL     1      -4.386 -13.016  16.045  0.00  0.00    -0.371 OA
ATOM     10  C   UNL     1      -5.448 -11.426  17.454  0.00  0.00    +0.111 C 
ATOM     11  C   UNL     1      -4.455 -10.709  16.558  0.00  0.00    +0.164 C 
ATOM     12  C   UNL     1      -4.293 -11.720  15.431  0.00  0.00    +0.164 C 
ATOM     13  C   UNL     1      -4.959 -12.863  17.354  0.00  0.00    +0.181 C 
ENDROOT
BRANCH  11   3
ATOM      3  O   UNL     1      -4.944  -9.467  16.088  0.00  0.00    -0.388 OA
ATOM     27  H   UNL     1      -5.580  -9.124  16.737  0.00  0.00    +0.210 HD
ENDBRANCH  11   3
BRANCH  10   6
ATOM      6  N   UNL     1      -5.466 -10.929  18.820  0.00  0.00    -0.302 NA
ATOM     26  H   UNL     1      -4.951 -10.049  18.863  0.00  0.00    +0.123 HD
BRANCH   6  15
ATOM     15  C   UNL     1      -6.832 -10.698  19.276  0.00  0.00    +0.156 C 
BRANCH  15  16
ATOM      8  N   UNL     1      -8.711 -11.121  17.658  0.00  0.00    -0.336 N 
ATOM      9  N   UNL     1      -7.714  -9.143  17.508  0.00  0.00    -0.239 NA
ATOM     16  C   UNL     1      -7.740 -10.293  18.144  0.00  0.00    +0.123 A 
ATOM     18  C   UNL     1      -9.348 -10.458  16.646  0.00  0.00    +0.106 A 
ATOM     19  C   UNL     1      -9.024 -12.455  18.116  0.00  0.00    +0.150 C 
ATOM     20  C   UNL     1      -8.714  -9.240  16.572  0.00  0.00    +0.130 A 
ENDBRANCH  15  16
ENDBRANCH   6  15
ENDBRANCH  10   6
BRANCH  12  14
ATOM     14  C   UNL     1      -2.970 -11.592  14.696  0.00  0.00    +0.140 C 
BRANCH  14   7
ATOM      7  N   UNL     1      -3.051 -10.489  13.721  0.00  0.00    -0.187 NA
ATOM     28  H   UNL     1      -3.786  -9.791  13.894  0.00  0.00    +0.148 HD
BRANCH   7   1
ATOM      1  S   UNL     1      -2.521 -10.725  12.121  0.00  0.00    +0.058 S 
ATOM      4  O   UNL     1      -2.621 -12.132  11.785  0.00  0.00    -0.153 OA
ATOM      5  O   UNL     1      -1.272 -10.015  11.928  0.00  0.00    -0.153 OA
BRANCH   1  17
ATOM     17  C   UNL     1      -3.756  -9.857  11.199  0.00  0.00    +0.105 A 
ATOM     21  C   UNL     1      -5.017  -9.642  11.755  0.00  0.00    +0.028 A 
ATOM     22  C   UNL     1      -3.470  -9.391   9.916  0.00  0.00    +0.028 A 
ATOM     23  C   UNL     1      -5.993  -8.961  11.027  0.00  0.00    +0.002 A 
ATOM     24  C   UNL     1      -4.446  -8.710   9.189  0.00  0.00    +0.002 A 
ATOM     25  C   UNL     1      -5.707  -8.495   9.743  0.00  0.00    +0.000 A 
ENDBRANCH   1  17
ENDBRANCH   7   1
ENDBRANCH  14   7
ENDBRANCH  12  14
TORSDOF 8
ENDMDL
MODEL 10
REMARK VINA RESULT:      -5.9     27.573     30.219
REMARK  Name = 75536691
REMARK  9 active torsions:
REMARK  status: ('A' for Active; 'I' for Inactive)
REMARK    1  A    between atoms: S_1  and  N_7
REMARK    2  A    between atoms: S_1  and  C_17
REMARK    3  A    between atoms: O_3  and  C_11
REMARK    4  A    between atoms: N_6  and  C_10
REMARK    5  A    between atoms: N_6  and  C_15
REMARK    6  A    between atoms: N_7  and  C_14
REMARK    7  A    between atoms: N_8  and  C_19
REMARK    8  A    between atoms: C_12  and  C_14
REMARK    9  A    between atoms: C_15  and  C_16
REMARK                            x       y       z     vdW  Elec       q    Type
REMARK                         _______ _______ _______ _____ _____    ______ ____
ROOT
ATOM      2  O   UNL     1      -3.725 -11.567  18.275  0.00  0.00    -0.371 OA
ATOM     10  C   UNL     1      -5.959 -12.028  18.938  0.00  0.00    +0.111 C 
ATOM     11  C   UNL     1      -5.977 -11.030  17.796  0.00  0.00    +0.164 C 
ATOM     12  C   UNL     1      -4.604 -11.262  17.180  0.00  0.00    +0.164 C 
ATOM     13  C   UNL     1      -4.522 -11.903  19.423  0.00  0.00    +0.181 C 
ENDROOT
BRANCH  11   3
ATOM      3  O   UNL     1      -7.020 -11.278  16.872  0.00  0.00    -0.388 OA
ATOM     27  H   UNL     1      -7.094 -12.239  16.747  0.00  0.00    +0.210 HD
ENDBRANCH  11   3
BRANCH  10   6
ATOM      6  N   UNL     1      -6.933 -11.743  19.979  0.00  0.00    -0.302 NA
ATOM     26  H   UNL     1      -7.201 -10.760  19.925  0.00  0.00    +0.123 HD
BRANCH   6  15
ATOM     15  C   UNL     1      -8.126 -12.567  19.821  0.00  0.00    +0.156 C 
BRANCH  15  16
ATOM      8  N   UNL     1     -10.206 -11.970  18.538  0.00  0.00    -0.336 N 
ATOM      9  N   UNL     1      -9.751 -10.713  20.311  0.00  0.00    -0.239 NA
ATOM     16  C   UNL     1      -9.356 -11.732  19.581  0.00  0.00    +0.123 A 
ATOM     18  C   UNL     1     -11.209 -11.043  18.607  0.00  0.00    +0.106 A 
ATOM     19  C   UNL     1     -10.085 -13.005  17.538  0.00  0.00    +0.150 C 
ATOM     20  C   UNL     1     -10.906 -10.278  19.708  0.00  0.00    +0.130 A 
ENDBRANCH  15  16
ENDBRANCH   6  15
ENDBRANCH  10   6
BRANCH  12  14
ATOM     14  C   UNL     1      -4.077 -10.061  16.416  0.00  0.00    +0.140 C 
BRANCH  14   7
ATOM      7  N   UNL     1      -3.784 -10.449  15.023  0.00  0.00    -0.187 NA
ATOM     28  H   UNL     1      -2.887 -10.119  14.646  0.00  0.00    +0.148 HD
BRANCH   7   1
ATOM      1  S   UNL     1      -5.059 -10.745  13.935  0.00  0.00    +0.058 S 
ATOM      4  O   UNL     1      -6.195  -9.917  14.290  0.00  0.00    -0.153 OA
ATOM      5  O   UNL     1      -5.220 -12.177  13.775  0.00  0.00    -0.153 OA
BRANCH   1  17
ATOM     17  C   UNL     1      -4.390 -10.129  12.419  0.00  0.00    +0.105 A 
ATOM     21  C   UNL     1      -3.051 -10.363  12.102  0.00  0.00    +0.028 A 
ATOM     22  C   UNL     1      -5.198  -9.406  11.542  0.00  0.00    +0.028 A 
ATOM     23  C   UNL     1      -2.521  -9.874  10.908  0.00  0.00    +0.002 A 
ATOM     24  C   UNL     1      -4.668  -8.917  10.348  0.00  0.00    +0.002 A 
ATOM     25  C   UNL     1      -3.330  -9.151  10.030  0.00  0.00    +0.000 A 
ENDBRANCH   1  17
ENDBRANCH   7   1
ENDBRANCH  14   7
ENDBRANCH  12  14
TORSDOF 8
ENDMDL
