MODEL 1
REMARK VINA RESULT:      -7.8      0.000      0.000
REMARK  Name = 40781585
REMARK  8 active torsions:
REMARK  status: ('A' for Active; 'I' for Inactive)
REMARK    1  A    between atoms: S_1  and  N_10
REMARK    2  A    between atoms: S_1  and  C_24
REMARK    3  A    between atoms: O_3  and  C_13
REMARK    4  A    between atoms: O_4  and  C_14
REMARK    5  A    between atoms: N_10  and  C_17
REMARK    6  A    between atoms: C_12  and  C_16
REMARK    7  A    between atoms: C_15  and  C_17
REMARK    8  A    between atoms: C_16  and  C_18
REMARK                            x       y       z     vdW  Elec       q    Type
REMARK                         _______ _______ _______ _____ _____    ______ ____
ROOT
ATOM      2  O   UNL     1      10.986   8.976  20.241  0.00  0.00    -0.366 OA
ATOM     12  C   UNL     1      11.595   7.694  20.008  0.00  0.00    +0.158 C 
ATOM     13  C   UNL     1      12.037   7.195  21.373  0.00  0.00    +0.175 C 
ATOM     14  C   UNL     1      10.931   7.724  22.262  0.00  0.00    +0.175 C 
ATOM     15  C   UNL     1      10.650   9.088  21.643  0.00  0.00    +0.165 C 
ENDROOT
BRANCH  13   3
ATOM      3  O   UNL     1      12.160   5.789  21.409  0.00  0.00    -0.387 OA
ATOM     29  H   UNL     1      13.108   5.581  21.462  0.00  0.00    +0.210 HD
ENDBRANCH  13   3
BRANCH  14   4
ATOM      4  O   UNL     1       9.757   6.923  22.121  0.00  0.00    -0.387 OA
ATOM     30  H   UNL     1       9.388   6.789  23.011  0.00  0.00    +0.210 HD
ENDBRANCH  14   4
BRANCH  12  16
ATOM     16  C   UNL     1      12.739   7.842  19.022  0.00  0.00    +0.130 C 
BRANCH  16  18
ATOM      5  O   UNL     1      13.469   9.990  19.724  0.00  0.00    -0.276 OA
ATOM      8  N   UNL     1      15.021   8.266  19.858  0.00  0.00    -0.298 N 
ATOM      9  N   UNL     1      17.585   7.218  20.697  0.00  0.00    -0.312 N 
ATOM     11  N   UNL     1      19.604   6.083  20.236  0.00  0.00    -0.240 NA
ATOM     18  C   UNL     1      13.767   8.804  19.567  0.00  0.00    +0.218 C 
ATOM     19  C   UNL     1      16.072   9.134  20.384  0.00  0.00    +0.126 C 
ATOM     20  C   UNL     1      15.371   6.855  19.679  0.00  0.00    +0.126 C 
ATOM     21  C   UNL     1      16.996   8.392  21.346  0.00  0.00    +0.125 C 
ATOM     22  C   UNL     1      16.878   6.630  19.557  0.00  0.00    +0.125 C 
ATOM     23  C   UNL     1      18.803   6.701  21.133  0.00  0.00    +0.121 A 
ATOM     25  C   UNL     1      19.115   6.857  22.474  0.00  0.00    +0.043 A 
ATOM     26  C   UNL     1      20.327   6.346  22.923  0.00  0.00    +0.005 A 
ATOM     27  C   UNL     1      20.774   5.598  20.710  0.00  0.00    +0.113 A 
ATOM     28  C   UNL     1      21.179   5.703  22.030  0.00  0.00    +0.020 A 
ENDBRANCH  16  18
ENDBRANCH  12  16
BRANCH  15  17
ATOM     17  C   UNL     1      11.504  10.200  22.239  0.00  0.00    +0.139 C 
BRANCH  17  10
ATOM     10  N   UNL     1      10.628  11.219  22.847  0.00  0.00    -0.192 NA
ATOM     31  H   UNL     1       9.630  11.072  22.649  0.00  0.00    +0.148 HD
BRANCH  10   1
ATOM      1  S   UNL     1      11.009  11.826  24.396  0.00  0.00    +0.027 S 
ATOM      6  O   UNL     1      11.154  10.728  25.332  0.00  0.00    -0.158 OA
ATOM      7  O   UNL     1      10.123  12.936  24.687  0.00  0.00    -0.158 OA
ATOM     24  C   UNL     1      12.625  12.503  24.093  0.00  0.00    +0.214 C 
ENDBRANCH  10   1
ENDBRANCH  17  10
ENDBRANCH  15  17
TORSDOF 7
ENDMDL
MODEL 2
REMARK VINA RESULT:      -7.3      3.388      4.912
REMARK  Name = 40781585
REMARK  8 active torsions:
REMARK  status: ('A' for Active; 'I' for Inactive)
REMARK    1  A    between atoms: S_1  and  N_10
REMARK    2  A    between atoms: S_1  and  C_24
REMARK    3  A    between atoms: O_3  and  C_13
REMARK    4  A    between atoms: O_4  and  C_14
REMARK    5  A    between atoms: N_10  and  C_17
REMARK    6  A    between atoms: C_12  and  C_16
REMARK    7  A    between atoms: C_15  and  C_17
REMARK    8  A    between atoms: C_16  and  C_18
REMARK                            x       y       z     vdW  Elec       q    Type
REMARK                         _______ _______ _______ _____ _____    ______ ____
ROOT
ATOM      2  O   UNL     1      13.729   7.607  18.221  0.00  0.00    -0.366 OA
ATOM     12  C   UNL     1      12.661   7.528  19.181  0.00  0.00    +0.158 C 
ATOM     13  C   UNL     1      11.726   8.679  18.851  0.00  0.00    +0.175 C 
ATOM     14  C   UNL     1      11.824   8.726  17.340  0.00  0.00    +0.175 C 
ATOM     15  C   UNL     1      13.300   8.425  17.108  0.00  0.00    +0.165 C 
ENDROOT
BRANCH  13   3
ATOM      3  O   UNL     1      10.415   8.448  19.320  0.00  0.00    -0.387 OA
ATOM     29  H   UNL     1      10.290   8.993  20.116  0.00  0.00    +0.210 HD
ENDBRANCH  13   3
BRANCH  14   4
ATOM      4  O   UNL     1      11.060   7.669  16.761  0.00  0.00    -0.387 OA
ATOM     30  H   UNL     1      11.413   6.831  17.108  0.00  0.00    +0.210 HD
ENDBRANCH  14   4
BRANCH  12  16
ATOM     16  C   UNL     1      13.230   7.598  20.586  0.00  0.00    +0.130 C 
BRANCH  16  18
ATOM      5  O   UNL     1      14.179   9.774  20.567  0.00  0.00    -0.276 OA
ATOM      8  N   UNL     1      15.662   7.992  20.718  0.00  0.00    -0.298 N 
ATOM      9  N   UNL     1      18.323   6.931  21.129  0.00  0.00    -0.312 N 
ATOM     11  N   UNL     1      20.121   5.550  20.469  0.00  0.00    -0.240 NA
ATOM     18  C   UNL     1      14.392   8.561  20.623  0.00  0.00    +0.218 C 
ATOM     19  C   UNL     1      16.838   8.858  20.754  0.00  0.00    +0.126 C 
ATOM     20  C   UNL     1      15.912   6.551  20.795  0.00  0.00    +0.126 C 
ATOM     21  C   UNL     1      17.956   8.266  21.609  0.00  0.00    +0.125 C 
ATOM     22  C   UNL     1      17.330   6.172  20.366  0.00  0.00    +0.125 C 
ATOM     23  C   UNL     1      19.597   6.417  21.364  0.00  0.00    +0.121 A 
ATOM     25  C   UNL     1      20.248   6.835  22.513  0.00  0.00    +0.043 A 
ATOM     26  C   UNL     1      21.519   6.330  22.760  0.00  0.00    +0.005 A 
ATOM     27  C   UNL     1      21.359   5.079  20.744  0.00  0.00    +0.113 A 
ATOM     28  C   UNL     1      22.093   5.436  21.863  0.00  0.00    +0.020 A 
ENDBRANCH  16  18
ENDBRANCH  12  16
BRANCH  15  17
ATOM     17  C   UNL     1      14.168   9.676  17.088  0.00  0.00    +0.139 C 
BRANCH  17  10
ATOM     10  N   UNL     1      13.443  10.767  16.410  0.00  0.00    -0.192 NA
ATOM     31  H   UNL     1      13.156  11.524  17.044  0.00  0.00    +0.148 HD
BRANCH  10   1
ATOM      1  S   UNL     1      13.926  11.237  14.842  0.00  0.00    +0.027 S 
ATOM      6  O   UNL     1      12.766  11.333  13.978  0.00  0.00    -0.158 OA
ATOM      7  O   UNL     1      15.074  10.441  14.455  0.00  0.00    -0.158 OA
ATOM     24  C   UNL     1      14.508  12.887  15.162  0.00  0.00    +0.214 C 
ENDBRANCH  10   1
ENDBRANCH  17  10
ENDBRANCH  15  17
TORSDOF 7
ENDMDL
MODEL 3
REMARK VINA RESULT:      -7.3      3.926      6.125
REMARK  Name = 40781585
REMARK  8 active torsions:
REMARK  status: ('A' for Active; 'I' for Inactive)
REMARK    1  A    between atoms: S_1  and  N_10
REMARK    2  A    between atoms: S_1  and  C_24
REMARK    3  A    between atoms: O_3  and  C_13
REMARK    4  A    between atoms: O_4  and  C_14
REMARK    5  A    between atoms: N_10  and  C_17
REMARK    6  A    between atoms: C_12  and  C_16
REMARK    7  A    between atoms: C_15  and  C_17
REMARK    8  A    between atoms: C_16  and  C_18
REMARK                            x       y       z     vdW  Elec       q    Type
REMARK                         _______ _______ _______ _____ _____    ______ ____
ROOT
ATOM      2  O   UNL     1      11.555   8.747  20.015  0.00  0.00    -0.366 OA
ATOM     12  C   UNL     1      12.086   7.411  20.005  0.00  0.00    +0.158 C 
ATOM     13  C   UNL     1      12.130   6.975  21.459  0.00  0.00    +0.175 C 
ATOM     14  C   UNL     1      10.889   7.644  22.013  0.00  0.00    +0.175 C 
ATOM     15  C   UNL     1      10.893   8.980  21.279  0.00  0.00    +0.165 C 
ENDROOT
BRANCH  13   3
ATOM      3  O   UNL     1      12.114   5.570  21.591  0.00  0.00    -0.387 OA
ATOM     29  H   UNL     1      11.198   5.274  21.455  0.00  0.00    +0.210 HD
ENDBRANCH  13   3
BRANCH  14   4
ATOM      4  O   UNL     1       9.720   6.925  21.618  0.00  0.00    -0.387 OA
ATOM     30  H   UNL     1       9.808   6.727  20.670  0.00  0.00    +0.210 HD
ENDBRANCH  14   4
BRANCH  12  16
ATOM     16  C   UNL     1      13.447   7.407  19.333  0.00  0.00    +0.130 C 
BRANCH  16  18
ATOM      5  O   UNL     1      14.498   9.289  20.330  0.00  0.00    -0.276 OA
ATOM      8  N   UNL     1      13.935   9.477  18.083  0.00  0.00    -0.298 N 
ATOM      9  N   UNL     1      14.023  10.878  15.552  0.00  0.00    -0.312 N 
ATOM     11  N   UNL     1      12.949  11.795  13.660  0.00  0.00    -0.240 NA
ATOM     18  C   UNL     1      14.011   8.807  19.304  0.00  0.00    +0.218 C 
ATOM     19  C   UNL     1      14.454  10.838  17.975  0.00  0.00    +0.126 C 
ATOM     20  C   UNL     1      13.365   8.899  16.864  0.00  0.00    +0.126 C 
ATOM     21  C   UNL     1      15.029  11.121  16.590  0.00  0.00    +0.125 C 
ATOM     22  C   UNL     1      12.923   9.960  15.856  0.00  0.00    +0.125 C 
ATOM     23  C   UNL     1      14.096  11.532  14.324  0.00  0.00    +0.121 A 
ATOM     25  C   UNL     1      15.357  11.874  13.861  0.00  0.00    +0.043 A 
ATOM     26  C   UNL     1      15.445  12.526  12.637  0.00  0.00    +0.005 A 
ATOM     27  C   UNL     1      13.074  12.430  12.472  0.00  0.00    +0.113 A 
ATOM     28  C   UNL     1      14.286  12.815  11.924  0.00  0.00    +0.020 A 
ENDBRANCH  16  18
ENDBRANCH  12  16
BRANCH  15  17
ATOM     17  C   UNL     1      11.667  10.063  22.018  0.00  0.00    +0.139 C 
BRANCH  17  10
ATOM     10  N   UNL     1      10.743  10.830  22.875  0.00  0.00    -0.192 NA
ATOM     31  H   UNL     1       9.851  10.348  23.048  0.00  0.00    +0.148 HD
BRANCH  10   1
ATOM      1  S   UNL     1      11.375  11.739  24.175  0.00  0.00    +0.027 S 
ATOM      6  O   UNL     1      12.692  12.236  23.831  0.00  0.00    -0.158 OA
ATOM      7  O   UNL     1      11.159  10.998  25.403  0.00  0.00    -0.158 OA
ATOM     24  C   UNL     1      10.254  13.118  24.182  0.00  0.00    +0.214 C 
ENDBRANCH  10   1
ENDBRANCH  17  10
ENDBRANCH  15  17
TORSDOF 7
ENDMDL
MODEL 4
REMARK VINA RESULT:      -6.9      1.460      2.247
REMARK  Name = 40781585
REMARK  8 active torsions:
REMARK  status: ('A' for Active; 'I' for Inactive)
REMARK    1  A    between atoms: S_1  and  N_10
REMARK    2  A    between atoms: S_1  and  C_24
REMARK    3  A    between atoms: O_3  and  C_13
REMARK    4  A    between atoms: O_4  and  C_14
REMARK    5  A    between atoms: N_10  and  C_17
REMARK    6  A    between atoms: C_12  and  C_16
REMARK    7  A    between atoms: C_15  and  C_17
REMARK    8  A    between atoms: C_16  and  C_18
REMARK                            x       y       z     vdW  Elec       q    Type
REMARK                         _______ _______ _______ _____ _____    ______ ____
ROOT
ATOM      2  O   UNL     1      12.701  10.115  20.250  0.00  0.00    -0.366 OA
ATOM     12  C   UNL     1      13.275   8.797  20.227  0.00  0.00    +0.158 C 
ATOM     13  C   UNL     1      12.948   8.182  21.577  0.00  0.00    +0.175 C 
ATOM     14  C   UNL     1      11.576   8.761  21.849  0.00  0.00    +0.175 C 
ATOM     15  C   UNL     1      11.716  10.179  21.307  0.00  0.00    +0.165 C 
ENDROOT
BRANCH  13   3
ATOM      3  O   UNL     1      12.962   6.771  21.533  0.00  0.00    -0.387 OA
ATOM     29  H   UNL     1      13.847   6.480  21.813  0.00  0.00    +0.210 HD
ENDBRANCH  13   3
BRANCH  14   4
ATOM      4  O   UNL     1      10.589   8.084  21.071  0.00  0.00    -0.387 OA
ATOM     30  H   UNL     1       9.859   8.709  20.920  0.00  0.00    +0.210 HD
ENDBRANCH  14   4
BRANCH  12  16
ATOM     16  C   UNL     1      14.765   8.893  19.954  0.00  0.00    +0.130 C 
BRANCH  16  18
ATOM      5  O   UNL     1      14.654   6.849  18.751  0.00  0.00    -0.276 OA
ATOM      8  N   UNL     1      16.523   7.168  20.093  0.00  0.00    -0.298 N 
ATOM      9  N   UNL     1      19.152   6.381  21.016  0.00  0.00    -0.312 N 
ATOM     11  N   UNL     1      20.672   5.903  22.758  0.00  0.00    -0.240 NA
ATOM     18  C   UNL     1      15.301   7.544  19.537  0.00  0.00    +0.218 C 
ATOM     19  C   UNL     1      17.106   5.875  19.744  0.00  0.00    +0.126 C 
ATOM     20  C   UNL     1      17.295   8.000  21.020  0.00  0.00    +0.126 C 
ATOM     21  C   UNL     1      18.631   5.922  19.725  0.00  0.00    +0.125 C 
ATOM     22  C   UNL     1      18.276   7.190  21.867  0.00  0.00    +0.125 C 
ATOM     23  C   UNL     1      20.432   6.024  21.434  0.00  0.00    +0.121 A 
ATOM     25  C   UNL     1      21.385   5.814  20.450  0.00  0.00    +0.043 A 
ATOM     26  C   UNL     1      22.667   5.458  20.852  0.00  0.00    +0.005 A 
ATOM     27  C   UNL     1      21.930   5.556  23.111  0.00  0.00    +0.113 A 
ATOM     28  C   UNL     1      22.953   5.323  22.207  0.00  0.00    +0.020 A 
ENDBRANCH  16  18
ENDBRANCH  12  16
BRANCH  15  17
ATOM     17  C   UNL     1      12.214  11.170  22.350  0.00  0.00    +0.139 C 
BRANCH  17  10
ATOM     10  N   UNL     1      11.701  10.785  23.679  0.00  0.00    -0.192 NA
ATOM     31  H   UNL     1      11.849   9.792  23.902  0.00  0.00    +0.148 HD
BRANCH  10   1
ATOM      1  S   UNL     1      11.851  11.881  24.978  0.00  0.00    +0.027 S 
ATOM      6  O   UNL     1      13.128  11.691  25.637  0.00  0.00    -0.158 OA
ATOM      7  O   UNL     1      10.616  11.867  25.737  0.00  0.00    -0.158 OA
ATOM     24  C   UNL     1      11.915  13.424  24.096  0.00  0.00    +0.214 C 
ENDBRANCH  10   1
ENDBRANCH  17  10
ENDBRANCH  15  17
TORSDOF 7
ENDMDL
MODEL 5
REMARK VINA RESULT:      -6.8     26.848     28.982
REMARK  Name = 40781585
REMARK  8 active torsions:
REMARK  status: ('A' for Active; 'I' for Inactive)
REMARK    1  A    between atoms: S_1  and  N_10
REMARK    2  A    between atoms: S_1  and  C_24
REMARK    3  A    between atoms: O_3  and  C_13
REMARK    4  A    between atoms: O_4  and  C_14
REMARK    5  A    between atoms: N_10  and  C_17
REMARK    6  A    between atoms: C_12  and  C_16
REMARK    7  A    between atoms: C_15  and  C_17
REMARK    8  A    between atoms: C_16  and  C_18
REMARK                            x       y       z     vdW  Elec       q    Type
REMARK                         _______ _______ _______ _____ _____    ______ ____
ROOT
ATOM      2  O   UNL     1      -5.114 -12.517  15.920  0.00  0.00    -0.366 OA
ATOM     12  C   UNL     1      -3.931 -11.944  16.503  0.00  0.00    +0.158 C 
ATOM     13  C   UNL     1      -4.204 -11.869  17.996  0.00  0.00    +0.175 C 
ATOM     14  C   UNL     1      -5.023 -13.124  18.218  0.00  0.00    +0.175 C 
ATOM     15  C   UNL     1      -5.880 -13.170  16.958  0.00  0.00    +0.165 C 
ENDROOT
BRANCH  13   3
ATOM      3  O   UNL     1      -3.012 -11.838  18.751  0.00  0.00    -0.387 OA
ATOM     29  H   UNL     1      -2.977 -10.979  19.205  0.00  0.00    +0.210 HD
ENDBRANCH  13   3
BRANCH  14   4
ATOM      4  O   UNL     1      -4.176 -14.273  18.220  0.00  0.00    -0.387 OA
ATOM     30  H   UNL     1      -3.548 -14.170  18.956  0.00  0.00    +0.210 HD
ENDBRANCH  14   4
BRANCH  12  16
ATOM     16  C   UNL     1      -3.655 -10.591  15.873  0.00  0.00    +0.130 C 
BRANCH  16  18
ATOM      5  O   UNL     1      -1.445 -10.927  15.072  0.00  0.00    -0.276 OA
ATOM      8  N   UNL     1      -3.101 -10.630  13.470  0.00  0.00    -0.298 N 
ATOM      9  N   UNL     1      -4.006 -10.646  10.720  0.00  0.00    -0.312 N 
ATOM     11  N   UNL     1      -5.093  -9.612   8.897  0.00  0.00    -0.240 NA
ATOM     18  C   UNL     1      -2.626 -10.734  14.777  0.00  0.00    +0.218 C 
ATOM     19  C   UNL     1      -2.167 -10.752  12.353  0.00  0.00    +0.126 C 
ATOM     20  C   UNL     1      -4.507 -10.411  13.121  0.00  0.00    +0.126 C 
ATOM     21  C   UNL     1      -2.818 -11.398  11.132  0.00  0.00    +0.125 C 
ATOM     22  C   UNL     1      -4.685  -9.821  11.722  0.00  0.00    +0.125 C 
ATOM     23  C   UNL     1      -4.453 -10.690   9.401  0.00  0.00    +0.121 A 
ATOM     25  C   UNL     1      -4.207 -11.851   8.687  0.00  0.00    +0.043 A 
ATOM     26  C   UNL     1      -4.648 -11.909   7.369  0.00  0.00    +0.005 A 
ATOM     27  C   UNL     1      -5.507  -9.705   7.613  0.00  0.00    +0.113 A 
ATOM     28  C   UNL     1      -5.310 -10.819   6.814  0.00  0.00    +0.020 A 
ENDBRANCH  16  18
ENDBRANCH  12  16
BRANCH  15  17
ATOM     17  C   UNL     1      -7.198 -12.422  17.107  0.00  0.00    +0.139 C 
BRANCH  17  10
ATOM     10  N   UNL     1      -7.631 -12.465  18.516  0.00  0.00    -0.192 NA
ATOM     31  H   UNL     1      -7.184 -13.215  19.059  0.00  0.00    +0.148 HD
BRANCH  10   1
ATOM      1  S   UNL     1      -7.914 -10.999  19.344  0.00  0.00    +0.027 S 
ATOM      6  O   UNL     1      -6.720 -10.603  20.063  0.00  0.00    -0.158 OA
ATOM      7  O   UNL     1      -9.192 -11.092  20.023  0.00  0.00    -0.158 OA
ATOM     24  C   UNL     1      -8.122  -9.886  17.973  0.00  0.00    +0.214 C 
ENDBRANCH  10   1
ENDBRANCH  17  10
ENDBRANCH  15  17
TORSDOF 7
ENDMDL
MODEL 6
REMARK VINA RESULT:      -6.7     18.286     21.058
REMARK  Name = 40781585
REMARK  8 active torsions:
REMARK  status: ('A' for Active; 'I' for Inactive)
REMARK    1  A    between atoms: S_1  and  N_10
REMARK    2  A    between atoms: S_1  and  C_24
REMARK    3  A    between atoms: O_3  and  C_13
REMARK    4  A    between atoms: O_4  and  C_14
REMARK    5  A    between atoms: N_10  and  C_17
REMARK    6  A    between atoms: C_12  and  C_16
REMARK    7  A    between atoms: C_15  and  C_17
REMARK    8  A    between atoms: C_16  and  C_18
REMARK                            x       y       z     vdW  Elec       q    Type
REMARK                         _______ _______ _______ _____ _____    ______ ____
ROOT
ATOM      2  O   UNL     1      13.831   5.374  -0.587  0.00  0.00    -0.366 OA
ATOM     12  C   UNL     1      14.193   5.943   0.683  0.00  0.00    +0.158 C 
ATOM     13  C   UNL     1      14.336   4.767   1.634  0.00  0.00    +0.175 C 
ATOM     14  C   UNL     1      14.910   3.705   0.720  0.00  0.00    +0.175 C 
ATOM     15  C   UNL     1      14.157   3.965  -0.580  0.00  0.00    +0.165 C 
ENDROOT
BRANCH  13   3
ATOM      3  O   UNL     1      15.171   5.072   2.731  0.00  0.00    -0.387 OA
ATOM     29  H   UNL     1      14.726   4.749   3.534  0.00  0.00    +0.210 HD
ENDBRANCH  13   3
BRANCH  14   4
ATOM      4  O   UNL     1      16.296   3.950   0.486  0.00  0.00    -0.387 OA
ATOM     30  H   UNL     1      16.799   3.308   1.017  0.00  0.00    +0.210 HD
ENDBRANCH  14   4
BRANCH  12  16
ATOM     16  C   UNL     1      13.136   6.943   1.115  0.00  0.00    +0.130 C 
BRANCH  16  18
ATOM      5  O   UNL     1      11.203   5.756   0.414  0.00  0.00    -0.276 OA
ATOM      8  N   UNL     1      11.403   6.170   2.691  0.00  0.00    -0.298 N 
ATOM      9  N   UNL     1      10.534   5.792   5.426  0.00  0.00    -0.312 N 
ATOM     11  N   UNL     1       9.906   6.656   7.532  0.00  0.00    -0.240 NA
ATOM     18  C   UNL     1      11.827   6.233   1.364  0.00  0.00    +0.218 C 
ATOM     19  C   UNL     1      10.143   5.504   3.014  0.00  0.00    +0.126 C 
ATOM     20  C   UNL     1      12.151   6.729   3.820  0.00  0.00    +0.126 C 
ATOM     21  C   UNL     1      10.189   4.826   4.380  0.00  0.00    +0.125 C 
ATOM     22  C   UNL     1      11.269   6.999   5.039  0.00  0.00    +0.125 C 
ATOM     23  C   UNL     1      10.141   5.582   6.746  0.00  0.00    +0.121 A 
ATOM     25  C   UNL     1      10.015   4.269   7.169  0.00  0.00    +0.043 A 
ATOM     26  C   UNL     1       9.623   4.044   8.484  0.00  0.00    +0.005 A 
ATOM     27  C   UNL     1       9.527   6.398   8.805  0.00  0.00    +0.113 A 
ATOM     28  C   UNL     1       9.372   5.123   9.324  0.00  0.00    +0.020 A 
ENDBRANCH  16  18
ENDBRANCH  12  16
BRANCH  15  17
ATOM     17  C   UNL     1      12.854   3.184  -0.681  0.00  0.00    +0.139 C 
BRANCH  17  10
ATOM     10  N   UNL     1      12.575   2.874  -2.096  0.00  0.00    -0.192 NA
ATOM     31  H   UNL     1      13.220   2.182  -2.498  0.00  0.00    +0.148 HD
BRANCH  10   1
ATOM      1  S   UNL     1      10.954   2.794  -2.625  0.00  0.00    +0.027 S 
ATOM      6  O   UNL     1      10.191   3.879  -2.040  0.00  0.00    -0.158 OA
ATOM      7  O   UNL     1      10.499   1.422  -2.510  0.00  0.00    -0.158 OA
ATOM     24  C   UNL     1      11.159   3.141  -4.357  0.00  0.00    +0.214 C 
ENDBRANCH  10   1
ENDBRANCH  17  10
ENDBRANCH  15  17
TORSDOF 7
ENDMDL
MODEL 7
REMARK VINA RESULT:      -6.7     26.150     29.415
REMARK  Name = 40781585
REMARK  8 active torsions:
REMARK  status: ('A' for Active; 'I' for Inactive)
REMARK    1  A    between atoms: S_1  and  N_10
REMARK    2  A    between atoms: S_1  and  C_24
REMARK    3  A    between atoms: O_3  and  C_13
REMARK    4  A    between atoms: O_4  and  C_14
REMARK    5  A    between atoms: N_10  and  C_17
REMARK    6  A    between atoms: C_12  and  C_16
REMARK    7  A    between atoms: C_15  and  C_17
REMARK    8  A    between atoms: C_16  and  C_18
REMARK                            x       y       z     vdW  Elec       q    Type
REMARK                         _______ _______ _______ _____ _____    ______ ____
ROOT
ATOM      2  O   UNL     1      -3.760 -10.429  14.075  0.00  0.00    -0.366 OA
ATOM     12  C   UNL     1      -3.599 -10.799  15.456  0.00  0.00    +0.158 C 
ATOM     13  C   UNL     1      -2.178 -11.322  15.579  0.00  0.00    +0.175 C 
ATOM     14  C   UNL     1      -1.441 -10.429  14.604  0.00  0.00    +0.175 C 
ATOM     15  C   UNL     1      -2.453 -10.290  13.472  0.00  0.00    +0.165 C 
ENDROOT
BRANCH  13   3
ATOM      3  O   UNL     1      -1.693 -11.229  16.901  0.00  0.00    -0.387 OA
ATOM     29  H   UNL     1      -2.297 -11.736  17.470  0.00  0.00    +0.210 HD
ENDBRANCH  13   3
BRANCH  14   4
ATOM      4  O   UNL     1      -1.234  -9.137  15.175  0.00  0.00    -0.387 OA
ATOM     30  H   UNL     1      -1.011  -9.266  16.113  0.00  0.00    +0.210 HD
ENDBRANCH  14   4
BRANCH  12  16
ATOM     16  C   UNL     1      -4.653 -11.822  15.837  0.00  0.00    +0.130 C 
BRANCH  16  18
ATOM      5  O   UNL     1      -5.009 -11.484  18.160  0.00  0.00    -0.276 OA
ATOM      8  N   UNL     1      -6.666 -10.708  16.729  0.00  0.00    -0.298 N 
ATOM      9  N   UNL     1      -9.099  -9.222  16.230  0.00  0.00    -0.312 N 
ATOM     11  N   UNL     1     -11.272  -9.062  15.319  0.00  0.00    -0.240 NA
ATOM     18  C   UNL     1      -5.450 -11.326  17.020  0.00  0.00    +0.218 C 
ATOM     19  C   UNL     1      -7.498 -10.205  17.819  0.00  0.00    +0.126 C 
ATOM     20  C   UNL     1      -7.183 -10.512  15.372  0.00  0.00    +0.126 C 
ATOM     21  C   UNL     1      -8.278  -8.957  17.413  0.00  0.00    +0.125 C 
ATOM     22  C   UNL     1      -8.699 -10.314  15.339  0.00  0.00    +0.125 C 
ATOM     23  C   UNL     1     -10.250  -8.477  15.981  0.00  0.00    +0.121 A 
ATOM     25  C   UNL     1     -10.268  -7.168  16.436  0.00  0.00    +0.043 A 
ATOM     26  C   UNL     1     -11.409  -6.412  16.195  0.00  0.00    +0.005 A 
ATOM     27  C   UNL     1     -12.365  -8.296  15.103  0.00  0.00    +0.113 A 
ATOM     28  C   UNL     1     -12.483  -6.979  15.518  0.00  0.00    +0.020 A 
ENDBRANCH  16  18
ENDBRANCH  12  16
BRANCH  15  17
ATOM     17  C   UNL     1      -2.312 -11.371  12.410  0.00  0.00    +0.139 C 
BRANCH  17  10
ATOM     10  N   UNL     1      -3.502 -11.363  11.539  0.00  0.00    -0.192 NA
ATOM     31  H   UNL     1      -4.366 -11.636  12.024  0.00  0.00    +0.148 HD
BRANCH  10   1
ATOM      1  S   UNL     1      -3.655 -10.147  10.351  0.00  0.00    +0.027 S 
ATOM      6  O   UNL     1      -4.096 -10.733   9.101  0.00  0.00    -0.158 OA
ATOM      7  O   UNL     1      -2.475  -9.305  10.400  0.00  0.00    -0.158 OA
ATOM     24  C   UNL     1      -5.006  -9.205  11.021  0.00  0.00    +0.214 C 
ENDBRANCH  10   1
ENDBRANCH  17  10
ENDBRANCH  15  17
TORSDOF 7
ENDMDL
MODEL 8
REMARK VINA RESULT:      -6.7      3.337      5.506
REMARK  Name = 40781585
REMARK  8 active torsions:
REMARK  status: ('A' for Active; 'I' for Inactive)
REMARK    1  A    between atoms: S_1  and  N_10
REMARK    2  A    between atoms: S_1  and  C_24
REMARK    3  A    between atoms: O_3  and  C_13
REMARK    4  A    between atoms: O_4  and  C_14
REMARK    5  A    between atoms: N_10  and  C_17
REMARK    6  A    between atoms: C_12  and  C_16
REMARK    7  A    between atoms: C_15  and  C_17
REMARK    8  A    between atoms: C_16  and  C_18
REMARK                            x       y       z     vdW  Elec       q    Type
REMARK                         _______ _______ _______ _____ _____    ______ ____
ROOT
ATOM      2  O   UNL     1      16.066   8.224  21.031  0.00  0.00    -0.366 OA
ATOM     12  C   UNL     1      16.975   7.342  20.350  0.00  0.00    +0.158 C 
ATOM     13  C   UNL     1      16.121   6.207  19.812  0.00  0.00    +0.175 C 
ATOM     14  C   UNL     1      14.843   6.934  19.451  0.00  0.00    +0.175 C 
ATOM     15  C   UNL     1      14.719   7.942  20.588  0.00  0.00    +0.165 C 
ENDROOT
BRANCH  13   3
ATOM      3  O   UNL     1      16.728   5.563  18.713  0.00  0.00    -0.387 OA
ATOM     29  H   UNL     1      17.342   6.198  18.306  0.00  0.00    +0.210 HD
ENDBRANCH  13   3
BRANCH  14   4
ATOM      4  O   UNL     1      15.012   7.660  18.233  0.00  0.00    -0.387 OA
ATOM     30  H   UNL     1      14.659   7.107  17.515  0.00  0.00    +0.210 HD
ENDBRANCH  14   4
BRANCH  12  16
ATOM     16  C   UNL     1      18.055   6.879  21.312  0.00  0.00    +0.130 C 
BRANCH  16  18
ATOM      5  O   UNL     1      19.247   8.922  21.102  0.00  0.00    -0.276 OA
ATOM      8  N   UNL     1      20.489   6.967  20.920  0.00  0.00    -0.298 N 
ATOM      9  N   UNL     1      23.020   5.575  20.742  0.00  0.00    -0.312 N 
ATOM     11  N   UNL     1      24.446   4.005  19.702  0.00  0.00    -0.240 NA
ATOM     18  C   UNL     1      19.311   7.691  21.104  0.00  0.00    +0.218 C 
ATOM     19  C   UNL     1      21.746   7.680  20.707  0.00  0.00    +0.126 C 
ATOM     20  C   UNL     1      20.565   5.504  20.932  0.00  0.00    +0.126 C 
ATOM     21  C   UNL     1      22.936   6.928  21.297  0.00  0.00    +0.125 C 
ATOM     22  C   UNL     1      21.799   4.969  20.206  0.00  0.00    +0.125 C 
ATOM     23  C   UNL     1      24.238   4.900  20.694  0.00  0.00    +0.121 A 
ATOM     25  C   UNL     1      25.167   5.197  21.679  0.00  0.00    +0.043 A 
ATOM     26  C   UNL     1      26.387   4.531  21.643  0.00  0.00    +0.005 A 
ATOM     27  C   UNL     1      25.644   3.378  19.701  0.00  0.00    +0.113 A 
ATOM     28  C   UNL     1      26.638   3.604  20.639  0.00  0.00    +0.020 A 
ENDBRANCH  16  18
ENDBRANCH  12  16
BRANCH  15  17
ATOM     17  C   UNL     1      13.939   7.402  21.780  0.00  0.00    +0.139 C 
BRANCH  17  10
ATOM     10  N   UNL     1      12.839   8.328  22.108  0.00  0.00    -0.192 NA
ATOM     31  H   UNL     1      13.068   9.315  21.930  0.00  0.00    +0.148 HD
BRANCH  10   1
ATOM      1  S   UNL     1      11.231   7.856  21.784  0.00  0.00    +0.027 S 
ATOM      6  O   UNL     1      10.320   8.597  22.633  0.00  0.00    -0.158 OA
ATOM      7  O   UNL     1      11.179   6.408  21.727  0.00  0.00    -0.158 OA
ATOM     24  C   UNL     1      11.042   8.459  20.122  0.00  0.00    +0.214 C 
ENDBRANCH  10   1
ENDBRANCH  17  10
ENDBRANCH  15  17
TORSDOF 7
ENDMDL
MODEL 9
REMARK VINA RESULT:      -6.6      3.300      7.406
REMARK  Name = 40781585
REMARK  8 active torsions:
REMARK  status: ('A' for Active; 'I' for Inactive)
REMARK    1  A    between atoms: S_1  and  N_10
REMARK    2  A    between atoms: S_1  and  C_24
REMARK    3  A    between atoms: O_3  and  C_13
REMARK    4  A    between atoms: O_4  and  C_14
REMARK    5  A    between atoms: N_10  and  C_17
REMARK    6  A    between atoms: C_12  and  C_16
REMARK    7  A    between atoms: C_15  and  C_17
REMARK    8  A    between atoms: C_16  and  C_18
REMARK                            x       y       z     vdW  Elec       q    Type
REMARK                         _______ _______ _______ _____ _____    ______ ____
ROOT
ATOM      2  O   UNL     1      15.478   8.457  19.897  0.00  0.00    -0.366 OA
ATOM     12  C   UNL     1      16.757   8.188  20.498  0.00  0.00    +0.158 C 
ATOM     13  C   UNL     1      16.681   6.755  20.999  0.00  0.00    +0.175 C 
ATOM     14  C   UNL     1      15.828   6.105  19.931  0.00  0.00    +0.175 C 
ATOM     15  C   UNL     1      14.815   7.202  19.621  0.00  0.00    +0.165 C 
ENDROOT
BRANCH  13   3
ATOM      3  O   UNL     1      17.960   6.172  21.126  0.00  0.00    -0.387 OA
ATOM     29  H   UNL     1      18.430   6.651  21.830  0.00  0.00    +0.210 HD
ENDBRANCH  13   3
BRANCH  14   4
ATOM      4  O   UNL     1      16.601   5.870  18.754  0.00  0.00    -0.387 OA
ATOM     30  H   UNL     1      16.190   6.376  18.031  0.00  0.00    +0.210 HD
ENDBRANCH  14   4
BRANCH  12  16
ATOM     16  C   UNL     1      17.027   9.198  21.598  0.00  0.00    +0.130 C 
BRANCH  16  18
ATOM      5  O   UNL     1      17.518  11.102  20.267  0.00  0.00    -0.276 OA
ATOM      8  N   UNL     1      15.632  11.232  21.616  0.00  0.00    -0.298 N 
ATOM      9  N   UNL     1      13.209  12.564  22.472  0.00  0.00    -0.312 N 
ATOM     11  N   UNL     1      11.820  13.434  24.172  0.00  0.00    -0.240 NA
ATOM     18  C   UNL     1      16.756  10.594  21.093  0.00  0.00    +0.218 C 
ATOM     19  C   UNL     1      15.304  12.587  21.182  0.00  0.00    +0.126 C 
ATOM     20  C   UNL     1      14.722  10.624  22.591  0.00  0.00    +0.126 C 
ATOM     21  C   UNL     1      13.798  12.831  21.158  0.00  0.00    +0.125 C 
ATOM     22  C   UNL     1      13.920  11.659  23.378  0.00  0.00    +0.125 C 
ATOM     23  C   UNL     1      12.023  13.185  22.860  0.00  0.00    +0.121 A 
ATOM     25  C   UNL     1      11.121  13.509  21.859  0.00  0.00    +0.043 A 
ATOM     26  C   UNL     1       9.933  14.129  22.231  0.00  0.00    +0.005 A 
ATOM     27  C   UNL     1      10.653  14.037  24.496  0.00  0.00    +0.113 A 
ATOM     28  C   UNL     1       9.688  14.402  23.572  0.00  0.00    +0.020 A 
ENDBRANCH  16  18
ENDBRANCH  12  16
BRANCH  15  17
ATOM     17  C   UNL     1      13.572   7.129  20.497  0.00  0.00    +0.139 C 
BRANCH  17  10
ATOM     10  N   UNL     1      12.368   7.143  19.644  0.00  0.00    -0.192 NA
ATOM     31  H   UNL     1      12.055   6.205  19.363  0.00  0.00    +0.148 HD
BRANCH  10   1
ATOM      1  S   UNL     1      11.141   8.287  19.957  0.00  0.00    +0.027 S 
ATOM      6  O   UNL     1      10.437   7.933  21.174  0.00  0.00    -0.158 OA
ATOM      7  O   UNL     1      10.415   8.533  18.726  0.00  0.00    -0.158 OA
ATOM     24  C   UNL     1      12.121   9.733  20.292  0.00  0.00    +0.214 C 
ENDBRANCH  10   1
ENDBRANCH  17  10
ENDBRANCH  15  17
TORSDOF 7
ENDMDL
MODEL 10
REMARK VINA RESULT:      -6.6     27.243     30.729
REMARK  Name = 40781585
REMARK  8 active torsions:
REMARK  status: ('A' for Active; 'I' for Inactive)
REMARK    1  A    between atoms: S_1  and  N_10
REMARK    2  A    between atoms: S_1  and  C_24
REMARK    3  A    between atoms: O_3  and  C_13
REMARK    4  A    between atoms: O_4  and  C_14
REMARK    5  A    between atoms: N_10  and  C_17
REMARK    6  A    between atoms: C_12  and  C_16
REMARK    7  A    between atoms: C_15  and  C_17
REMARK    8  A    between atoms: C_16  and  C_18
REMARK                            x       y       z     vdW  Elec       q    Type
REMARK                         _______ _______ _______ _____ _____    ______ ____
ROOT
ATOM      2  O   UNL     1      -6.884  -9.944  17.172  0.00  0.00    -0.366 OA
ATOM     12  C   UNL     1      -8.142  -9.902  17.868  0.00  0.00    +0.158 C 
ATOM     13  C   UNL     1      -8.072 -11.005  18.911  0.00  0.00    +0.175 C 
ATOM     14  C   UNL     1      -6.611 -10.954  19.307  0.00  0.00    +0.175 C 
ATOM     15  C   UNL     1      -5.929 -10.676  17.973  0.00  0.00    +0.165 C 
ENDROOT
BRANCH  13   3
ATOM      3  O   UNL     1      -8.953 -10.773  19.988  0.00  0.00    -0.387 OA
ATOM     29  H   UNL     1      -9.799 -11.200  19.770  0.00  0.00    +0.210 HD
ENDBRANCH  13   3
BRANCH  14   4
ATOM      4  O   UNL     1      -6.371  -9.842  20.169  0.00  0.00    -0.387 OA
ATOM     30  H   UNL     1      -6.448  -9.035  19.631  0.00  0.00    +0.210 HD
ENDBRANCH  14   4
BRANCH  12  16
ATOM     16  C   UNL     1      -9.280 -10.079  16.880  0.00  0.00    +0.130 C 
BRANCH  16  18
ATOM      5  O   UNL     1     -10.792  -9.034  18.382  0.00  0.00    -0.276 OA
ATOM      8  N   UNL     1     -10.948  -8.415  16.149  0.00  0.00    -0.298 N 
ATOM      9  N   UNL     1     -12.002  -6.723  14.050  0.00  0.00    -0.312 N 
ATOM     11  N   UNL     1     -13.044  -6.443  11.949  0.00  0.00    -0.240 NA
ATOM     18  C   UNL     1     -10.406  -9.131  17.216  0.00  0.00    +0.218 C 
ATOM     19  C   UNL     1     -12.045  -7.482  16.391  0.00  0.00    +0.126 C 
ATOM     20  C   UNL     1     -10.482  -8.525  14.764  0.00  0.00    +0.126 C 
ATOM     21  C   UNL     1     -11.994  -6.283  15.447  0.00  0.00    +0.125 C 
ATOM     22  C   UNL     1     -11.532  -8.077  13.748  0.00  0.00    +0.125 C 
ATOM     23  C   UNL     1     -12.479  -5.886  13.044  0.00  0.00    +0.121 A 
ATOM     25  C   UNL     1     -12.341  -4.521  13.236  0.00  0.00    +0.043 A 
ATOM     26  C   UNL     1     -12.812  -3.673  12.239  0.00  0.00    +0.005 A 
ATOM     27  C   UNL     1     -13.491  -5.588  11.002  0.00  0.00    +0.113 A 
ATOM     28  C   UNL     1     -13.400  -4.209  11.099  0.00  0.00    +0.020 A 
ENDBRANCH  16  18
ENDBRANCH  12  16
BRANCH  15  17
ATOM     17  C   UNL     1      -5.560 -11.944  17.216  0.00  0.00    +0.139 C 
BRANCH  17  10
ATOM     10  N   UNL     1      -4.098 -11.996  17.027  0.00  0.00    -0.192 NA
ATOM     31  H   UNL     1      -3.658 -12.814  17.470  0.00  0.00    +0.148 HD
BRANCH  10   1
ATOM      1  S   UNL     1      -3.433 -11.494  15.538  0.00  0.00    +0.027 S 
ATOM      6  O   UNL     1      -4.271 -10.470  14.946  0.00  0.00    -0.158 OA
ATOM      7  O   UNL     1      -3.055 -12.672  14.781  0.00  0.00    -0.158 OA
ATOM     24  C   UNL     1      -1.933 -10.718  16.096  0.00  0.00    +0.214 C 
ENDBRANCH  10   1
ENDBRANCH  17  10
ENDBRANCH  15  17
TORSDOF 7
ENDMDL
