MODEL 1
REMARK VINA RESULT:      -7.1      0.000      0.000
REMARK  Name = 51136607
REMARK  11 active torsions:
REMARK  status: ('A' for Active; 'I' for Inactive)
REMARK    1  A    between atoms: O_2  and  C_18
REMARK    2  A    between atoms: O_4  and  C_26
REMARK    3  A    between atoms: O_4  and  C_33
REMARK    4  A    between atoms: O_5  and  C_27
REMARK    5  A    between atoms: O_5  and  C_34
REMARK    6  A    between atoms: C_8  and  C_13
REMARK    7  A    between atoms: C_9  and  C_14
REMARK    8  A    between atoms: C_13  and  C_15
REMARK    9  A    between atoms: C_14  and  C_18
REMARK   10  A    between atoms: C_16  and  C_19
REMARK   11  A    between atoms: C_19  and  C_25
REMARK                            x       y       z     vdW  Elec       q    Type
REMARK                         _______ _______ _______ _____ _____    ______ ____
ROOT
ATOM      1  O   UNL     1      11.660   5.946  21.233  0.00  0.00    -0.275 OA
ATOM      6  N   UNL     1      11.379   8.229  20.908  0.00  0.00    -0.301 N 
ATOM      8  C   UNL     1      12.189  10.572  21.064  0.00  0.00    +0.016 C 
ATOM      9  C   UNL     1      11.257  10.774  22.285  0.00  0.00    +0.006 C 
ATOM     10  C   UNL     1      10.984   9.447  23.014  0.00  0.00    +0.023 C 
ATOM     11  C   UNL     1      11.627   9.464  20.155  0.00  0.00    +0.112 C 
ATOM     12  C   UNL     1      10.476   8.379  22.049  0.00  0.00    +0.108 C 
ATOM     16  C   UNL     1      11.905   6.975  20.599  0.00  0.00    +0.220 C 
ENDROOT
BRANCH   8  13
ATOM     13  C   UNL     1      13.645  10.269  21.435  0.00  0.00    +0.061 C 
BRANCH  13  15
ATOM      7  N   UNL     1      15.107  12.161  21.652  0.00  0.00    -0.287 NA
ATOM     15  C   UNL     1      14.556  11.317  20.843  0.00  0.00    +0.044 C 
ATOM     17  C   UNL     1      14.767  11.336  19.374  0.00  0.00    +0.003 A 
ATOM     20  C   UNL     1      15.280  12.518  18.824  0.00  0.00    -0.033 A 
ATOM     21  C   UNL     1      15.565  13.672  19.737  0.00  0.00    +0.059 C 
ATOM     22  C   UNL     1      16.038  13.142  21.085  0.00  0.00    +0.146 C 
ATOM     23  C   UNL     1      14.462  10.247  18.553  0.00  0.00    +0.059 A 
ATOM     24  C   UNL     1      15.464  12.613  17.442  0.00  0.00    +0.053 A 
ATOM     26  C   UNL     1      14.663  10.347  17.176  0.00  0.00    +0.162 A 
ATOM     27  C   UNL     1      15.160  11.527  16.621  0.00  0.00    +0.162 A 
BRANCH  26   4
ATOM      4  O   UNL     1      14.367   9.281  16.380  0.00  0.00    -0.491 OA
ATOM     33  C   UNL     1      12.992   8.913  16.275  0.00  0.00    +0.277 C 
ENDBRANCH  26   4
BRANCH  27   5
ATOM      5  O   UNL     1      15.350  11.631  15.276  0.00  0.00    -0.491 OA
ATOM     34  C   UNL     1      16.695  11.770  14.821  0.00  0.00    +0.277 C 
ENDBRANCH  27   5
ENDBRANCH  13  15
ENDBRANCH   8  13
BRANCH   9  14
ATOM     14  C   UNL     1      11.769  11.831  23.264  0.00  0.00    +0.124 C 
BRANCH  14  18
ATOM      3  O   UNL     1      11.060  11.597  25.584  0.00  0.00    -0.251 OA
ATOM     18  C   UNL     1      10.850  11.984  24.445  0.00  0.00    +0.305 C 
BRANCH  18   2
ATOM      2  O   UNL     1       9.719  12.631  24.064  0.00  0.00    -0.481 OA
ATOM     35  H   UNL     1       8.931  12.307  24.550  0.00  0.00    +0.295 HD
ENDBRANCH  18   2
ENDBRANCH  14  18
ENDBRANCH   9  14
BRANCH  16  19
ATOM     19  C   UNL     1      12.830   6.905  19.409  0.00  0.00    +0.131 C 
BRANCH  19  25
ATOM     25  C   UNL     1      14.259   6.854  19.854  0.00  0.00    -0.039 A 
ATOM     28  C   UNL     1      14.577   7.041  21.200  0.00  0.00    +0.004 A 
ATOM     29  C   UNL     1      15.271   6.623  18.923  0.00  0.00    +0.004 A 
ATOM     30  C   UNL     1      15.908   6.995  21.614  0.00  0.00    +0.000 A 
ATOM     31  C   UNL     1      16.602   6.576  19.337  0.00  0.00    +0.000 A 
ATOM     32  C   UNL     1      16.921   6.763  20.683  0.00  0.00    +0.000 A 
ENDBRANCH  19  25
ENDBRANCH  16  19
TORSDOF 9
ENDMDL
MODEL 2
REMARK VINA RESULT:      -6.5     26.633     29.606
REMARK  Name = 51136607
REMARK  11 active torsions:
REMARK  status: ('A' for Active; 'I' for Inactive)
REMARK    1  A    between atoms: O_2  and  C_18
REMARK    2  A    between atoms: O_4  and  C_26
REMARK    3  A    between atoms: O_4  and  C_33
REMARK    4  A    between atoms: O_5  and  C_27
REMARK    5  A    between atoms: O_5  and  C_34
REMARK    6  A    between atoms: C_8  and  C_13
REMARK    7  A    between atoms: C_9  and  C_14
REMARK    8  A    between atoms: C_13  and  C_15
REMARK    9  A    between atoms: C_14  and  C_18
REMARK   10  A    between atoms: C_16  and  C_19
REMARK   11  A    between atoms: C_19  and  C_25
REMARK                            x       y       z     vdW  Elec       q    Type
REMARK                         _______ _______ _______ _____ _____    ______ ____
ROOT
ATOM      1  O   UNL     1      -4.680 -14.981  11.502  0.00  0.00    -0.275 OA
ATOM      6  N   UNL     1      -3.435 -13.021  11.405  0.00  0.00    -0.301 N 
ATOM      8  C   UNL     1      -3.095 -10.622  11.952  0.00  0.00    +0.016 C 
ATOM      9  C   UNL     1      -3.498 -10.271  10.497  0.00  0.00    +0.006 C 
ATOM     10  C   UNL     1      -4.420 -11.343   9.891  0.00  0.00    +0.023 C 
ATOM     11  C   UNL     1      -2.516 -12.047  12.005  0.00  0.00    +0.112 C 
ATOM     12  C   UNL     1      -3.810 -12.737  10.020  0.00  0.00    +0.108 C 
ATOM     16  C   UNL     1      -3.928 -14.162  12.037  0.00  0.00    +0.220 C 
ENDROOT
BRANCH   8  13
ATOM     13  C   UNL     1      -4.234 -10.472  12.967  0.00  0.00    +0.061 C 
BRANCH  13  15
ATOM      7  N   UNL     1      -2.395 -10.573  14.507  0.00  0.00    -0.287 NA
ATOM     15  C   UNL     1      -3.676 -10.469  14.369  0.00  0.00    +0.044 C 
ATOM     17  C   UNL     1      -4.614 -10.355  15.513  0.00  0.00    +0.003 A 
ATOM     20  C   UNL     1      -4.128 -10.740  16.770  0.00  0.00    -0.033 A 
ATOM     21  C   UNL     1      -2.720 -11.245  16.873  0.00  0.00    +0.059 C 
ATOM     22  C   UNL     1      -1.847 -10.509  15.866  0.00  0.00    +0.146 C 
ATOM     23  C   UNL     1      -5.929  -9.905  15.370  0.00  0.00    +0.059 A 
ATOM     24  C   UNL     1      -4.975 -10.695  17.881  0.00  0.00    +0.053 A 
ATOM     26  C   UNL     1      -6.762  -9.850  16.487  0.00  0.00    +0.162 A 
ATOM     27  C   UNL     1      -6.288 -10.246  17.739  0.00  0.00    +0.162 A 
BRANCH  26   4
ATOM      4  O   UNL     1      -8.043  -9.407  16.344  0.00  0.00    -0.491 OA
ATOM     33  C   UNL     1      -8.975 -10.305  15.744  0.00  0.00    +0.277 C 
ENDBRANCH  26   4
BRANCH  27   5
ATOM      5  O   UNL     1      -7.101 -10.200  18.832  0.00  0.00    -0.491 OA
ATOM     34  C   UNL     1      -7.674 -11.433  19.265  0.00  0.00    +0.277 C 
ENDBRANCH  27   5
ENDBRANCH  13  15
ENDBRANCH   8  13
BRANCH   9  14
ATOM     14  C   UNL     1      -4.125  -8.884  10.364  0.00  0.00    +0.124 C 
BRANCH  14  18
ATOM      3  O   UNL     1      -6.459  -8.930   9.664  0.00  0.00    -0.251 OA
ATOM     18  C   UNL     1      -5.270  -8.883   9.390  0.00  0.00    +0.305 C 
BRANCH  18   2
ATOM      2  O   UNL     1      -4.790  -8.823   8.120  0.00  0.00    -0.481 OA
ATOM     35  H   UNL     1      -5.512  -8.830   7.456  0.00  0.00    +0.295 HD
ENDBRANCH  18   2
ENDBRANCH  14  18
ENDBRANCH   9  14
BRANCH  16  19
ATOM     19  C   UNL     1      -3.497 -14.383  13.466  0.00  0.00    +0.131 C 
BRANCH  19  25
ATOM     25  C   UNL     1      -4.631 -14.113  14.406  0.00  0.00    -0.039 A 
ATOM     28  C   UNL     1      -5.817 -13.554  13.927  0.00  0.00    +0.004 A 
ATOM     29  C   UNL     1      -4.501 -14.417  15.761  0.00  0.00    +0.004 A 
ATOM     30  C   UNL     1      -6.872 -13.302  14.803  0.00  0.00    +0.000 A 
ATOM     31  C   UNL     1      -5.557 -14.165  16.637  0.00  0.00    +0.000 A 
ATOM     32  C   UNL     1      -6.742 -13.607  16.158  0.00  0.00    +0.000 A 
ENDBRANCH  19  25
ENDBRANCH  16  19
TORSDOF 9
ENDMDL
MODEL 3
REMARK VINA RESULT:      -6.3      3.137      5.073
REMARK  Name = 51136607
REMARK  11 active torsions:
REMARK  status: ('A' for Active; 'I' for Inactive)
REMARK    1  A    between atoms: O_2  and  C_18
REMARK    2  A    between atoms: O_4  and  C_26
REMARK    3  A    between atoms: O_4  and  C_33
REMARK    4  A    between atoms: O_5  and  C_27
REMARK    5  A    between atoms: O_5  and  C_34
REMARK    6  A    between atoms: C_8  and  C_13
REMARK    7  A    between atoms: C_9  and  C_14
REMARK    8  A    between atoms: C_13  and  C_15
REMARK    9  A    between atoms: C_14  and  C_18
REMARK   10  A    between atoms: C_16  and  C_19
REMARK   11  A    between atoms: C_19  and  C_25
REMARK                            x       y       z     vdW  Elec       q    Type
REMARK                         _______ _______ _______ _____ _____    ______ ____
ROOT
ATOM      1  O   UNL     1      15.146   7.440  22.375  0.00  0.00    -0.275 OA
ATOM      6  N   UNL     1      14.580   7.606  20.127  0.00  0.00    -0.301 N 
ATOM      8  C   UNL     1      13.734   8.893  18.178  0.00  0.00    +0.016 C 
ATOM      9  C   UNL     1      12.383   8.146  18.318  0.00  0.00    +0.006 C 
ATOM     10  C   UNL     1      12.143   7.678  19.763  0.00  0.00    +0.023 C 
ATOM     11  C   UNL     1      14.871   8.029  18.752  0.00  0.00    +0.112 C 
ATOM     12  C   UNL     1      13.326   6.869  20.289  0.00  0.00    +0.108 C 
ATOM     16  C   UNL     1      15.401   7.830  21.232  0.00  0.00    +0.220 C 
ENDROOT
BRANCH   8  13
ATOM     13  C   UNL     1      13.746  10.285  18.822  0.00  0.00    +0.061 C 
BRANCH  13  15
ATOM      7  N   UNL     1      13.999  11.470  16.749  0.00  0.00    -0.287 NA
ATOM     15  C   UNL     1      14.479  11.257  17.930  0.00  0.00    +0.044 C 
ATOM     17  C   UNL     1      15.709  11.911  18.442  0.00  0.00    +0.003 A 
ATOM     20  C   UNL     1      16.563  12.485  17.491  0.00  0.00    -0.033 A 
ATOM     21  C   UNL     1      16.192  12.391  16.041  0.00  0.00    +0.059 C 
ATOM     22  C   UNL     1      14.677  12.459  15.904  0.00  0.00    +0.146 C 
ATOM     23  C   UNL     1      16.032  11.954  19.801  0.00  0.00    +0.059 A 
ATOM     24  C   UNL     1      17.757  13.081  17.906  0.00  0.00    +0.053 A 
ATOM     26  C   UNL     1      17.219  12.564  20.206  0.00  0.00    +0.162 A 
ATOM     27  C   UNL     1      18.081  13.124  19.262  0.00  0.00    +0.162 A 
BRANCH  26   4
ATOM      4  O   UNL     1      17.530  12.605  21.533  0.00  0.00    -0.491 OA
ATOM     33  C   UNL     1      16.489  12.279  22.452  0.00  0.00    +0.277 C 
ENDBRANCH  26   4
BRANCH  27   5
ATOM      5  O   UNL     1      19.245  13.714  19.653  0.00  0.00    -0.491 OA
ATOM     34  C   UNL     1      19.279  15.140  19.656  0.00  0.00    +0.277 C 
ENDBRANCH  27   5
ENDBRANCH  13  15
ENDBRANCH   8  13
BRANCH   9  14
ATOM     14  C   UNL     1      11.192   8.958  17.810  0.00  0.00    +0.124 C 
BRANCH  14  18
ATOM      3  O   UNL     1      11.604   9.171  15.417  0.00  0.00    -0.251 OA
ATOM     18  C   UNL     1      10.947   8.725  16.345  0.00  0.00    +0.305 C 
BRANCH  18   2
ATOM      2  O   UNL     1       9.860   7.926  16.184  0.00  0.00    -0.481 OA
ATOM     35  H   UNL     1       9.939   7.357  15.388  0.00  0.00    +0.295 HD
ENDBRANCH  18   2
ENDBRANCH  14  18
ENDBRANCH   9  14
BRANCH  16  19
ATOM     19  C   UNL     1      16.674   8.599  20.983  0.00  0.00    +0.131 C 
BRANCH  19  25
ATOM     25  C   UNL     1      17.859   7.684  21.018  0.00  0.00    -0.039 A 
ATOM     28  C   UNL     1      17.893   6.557  20.197  0.00  0.00    +0.004 A 
ATOM     29  C   UNL     1      18.927   7.958  21.872  0.00  0.00    +0.004 A 
ATOM     30  C   UNL     1      18.996   5.704  20.229  0.00  0.00    +0.000 A 
ATOM     31  C   UNL     1      20.030   7.105  21.905  0.00  0.00    +0.000 A 
ATOM     32  C   UNL     1      20.065   5.978  21.084  0.00  0.00    +0.000 A 
ENDBRANCH  19  25
ENDBRANCH  16  19
TORSDOF 9
ENDMDL
MODEL 4
REMARK VINA RESULT:      -6.2     27.328     30.026
REMARK  Name = 51136607
REMARK  11 active torsions:
REMARK  status: ('A' for Active; 'I' for Inactive)
REMARK    1  A    between atoms: O_2  and  C_18
REMARK    2  A    between atoms: O_4  and  C_26
REMARK    3  A    between atoms: O_4  and  C_33
REMARK    4  A    between atoms: O_5  and  C_27
REMARK    5  A    between atoms: O_5  and  C_34
REMARK    6  A    between atoms: C_8  and  C_13
REMARK    7  A    between atoms: C_9  and  C_14
REMARK    8  A    between atoms: C_13  and  C_15
REMARK    9  A    between atoms: C_14  and  C_18
REMARK   10  A    between atoms: C_16  and  C_19
REMARK   11  A    between atoms: C_19  and  C_25
REMARK                            x       y       z     vdW  Elec       q    Type
REMARK                         _______ _______ _______ _____ _____    ______ ____
ROOT
ATOM      1  O   UNL     1      -2.767  -9.977  12.093  0.00  0.00    -0.275 OA
ATOM      6  N   UNL     1      -3.856 -11.227  13.720  0.00  0.00    -0.301 N 
ATOM      8  C   UNL     1      -5.320 -11.408  15.719  0.00  0.00    +0.016 C 
ATOM      9  C   UNL     1      -4.054 -11.654  16.578  0.00  0.00    +0.006 C 
ATOM     10  C   UNL     1      -2.806 -11.021  15.940  0.00  0.00    +0.023 C 
ATOM     11  C   UNL     1      -5.064 -11.856  14.269  0.00  0.00    +0.112 C 
ATOM     12  C   UNL     1      -2.636 -11.468  14.491  0.00  0.00    +0.108 C 
ATOM     16  C   UNL     1      -3.800 -10.473  12.549  0.00  0.00    +0.220 C 
ENDROOT
BRANCH   8  13
ATOM     13  C   UNL     1      -5.820  -9.958  15.747  0.00  0.00    +0.061 C 
BRANCH  13  15
ATOM      7  N   UNL     1      -7.681  -9.703  14.251  0.00  0.00    -0.287 NA
ATOM     15  C   UNL     1      -7.303  -9.921  15.467  0.00  0.00    +0.044 C 
ATOM     17  C   UNL     1      -8.249 -10.126  16.593  0.00  0.00    +0.003 A 
ATOM     20  C   UNL     1      -9.571  -9.708  16.391  0.00  0.00    -0.033 A 
ATOM     21  C   UNL     1      -9.935  -9.079  15.079  0.00  0.00    +0.059 C 
ATOM     22  C   UNL     1      -9.120  -9.726  13.968  0.00  0.00    +0.146 C 
ATOM     23  C   UNL     1      -7.863 -10.691  17.810  0.00  0.00    +0.059 A 
ATOM     24  C   UNL     1     -10.501  -9.836  17.426  0.00  0.00    +0.053 A 
ATOM     26  C   UNL     1      -8.802 -10.829  18.833  0.00  0.00    +0.162 A 
ATOM     27  C   UNL     1     -10.117 -10.400  18.643  0.00  0.00    +0.162 A 
BRANCH  26   4
ATOM      4  O   UNL     1      -8.423 -11.383  20.018  0.00  0.00    -0.491 OA
ATOM     33  C   UNL     1      -7.894 -12.707  19.974  0.00  0.00    +0.277 C 
ENDBRANCH  26   4
BRANCH  27   5
ATOM      5  O   UNL     1     -11.036 -10.526  19.641  0.00  0.00    -0.491 OA
ATOM     34  C   UNL     1     -12.265  -9.819  19.483  0.00  0.00    +0.277 C 
ENDBRANCH  27   5
ENDBRANCH  13  15
ENDBRANCH   8  13
BRANCH   9  14
ATOM     14  C   UNL     1      -4.212 -11.192  18.027  0.00  0.00    +0.124 C 
BRANCH  14  18
ATOM      3  O   UNL     1      -3.364 -12.247  20.055  0.00  0.00    -0.251 OA
ATOM     18  C   UNL     1      -3.970 -12.316  18.996  0.00  0.00    +0.305 C 
BRANCH  18   2
ATOM      2  O   UNL     1      -4.534 -13.458  18.523  0.00  0.00    -0.481 OA
ATOM     35  H   UNL     1      -3.920 -14.221  18.584  0.00  0.00    +0.295 HD
ENDBRANCH  18   2
ENDBRANCH  14  18
ENDBRANCH   9  14
BRANCH  16  19
ATOM     19  C   UNL     1      -5.101 -10.269  11.813  0.00  0.00    +0.131 C 
BRANCH  19  25
ATOM     25  C   UNL     1      -4.937 -10.573  10.357  0.00  0.00    -0.039 A 
ATOM     28  C   UNL     1      -5.111  -9.563   9.409  0.00  0.00    +0.004 A 
ATOM     29  C   UNL     1      -4.612 -11.866   9.946  0.00  0.00    +0.004 A 
ATOM     30  C   UNL     1      -4.958  -9.847   8.052  0.00  0.00    +0.000 A 
ATOM     31  C   UNL     1      -4.460 -12.150   8.589  0.00  0.00    +0.000 A 
ATOM     32  C   UNL     1      -4.634 -11.141   7.642  0.00  0.00    +0.000 A 
ENDBRANCH  19  25
ENDBRANCH  16  19
TORSDOF 9
ENDMDL
MODEL 5
REMARK VINA RESULT:      -6.2     27.649     29.329
REMARK  Name = 51136607
REMARK  11 active torsions:
REMARK  status: ('A' for Active; 'I' for Inactive)
REMARK    1  A    between atoms: O_2  and  C_18
REMARK    2  A    between atoms: O_4  and  C_26
REMARK    3  A    between atoms: O_4  and  C_33
REMARK    4  A    between atoms: O_5  and  C_27
REMARK    5  A    between atoms: O_5  and  C_34
REMARK    6  A    between atoms: C_8  and  C_13
REMARK    7  A    between atoms: C_9  and  C_14
REMARK    8  A    between atoms: C_13  and  C_15
REMARK    9  A    between atoms: C_14  and  C_18
REMARK   10  A    between atoms: C_16  and  C_19
REMARK   11  A    between atoms: C_19  and  C_25
REMARK                            x       y       z     vdW  Elec       q    Type
REMARK                         _______ _______ _______ _____ _____    ______ ____
ROOT
ATOM      1  O   UNL     1      -9.894 -10.498  17.380  0.00  0.00    -0.275 OA
ATOM      6  N   UNL     1      -7.678  -9.838  17.155  0.00  0.00    -0.301 N 
ATOM      8  C   UNL     1      -5.371 -10.189  16.303  0.00  0.00    +0.016 C 
ATOM      9  C   UNL     1      -4.949 -10.625  17.729  0.00  0.00    +0.006 C 
ATOM     10  C   UNL     1      -6.138 -11.196  18.520  0.00  0.00    +0.023 C 
ATOM     11  C   UNL     1      -6.581  -9.242  16.381  0.00  0.00    +0.112 C 
ATOM     12  C   UNL     1      -7.321 -10.231  18.519  0.00  0.00    +0.108 C 
ATOM     16  C   UNL     1      -8.983 -10.018  16.699  0.00  0.00    +0.220 C 
ENDROOT
BRANCH   8  13
ATOM     13  C   UNL     1      -5.670 -11.359  15.357  0.00  0.00    +0.061 C 
BRANCH  13  15
ATOM      7  N   UNL     1      -3.573 -12.220  14.565  0.00  0.00    -0.287 NA
ATOM     15  C   UNL     1      -4.588 -11.462  14.309  0.00  0.00    +0.044 C 
ATOM     17  C   UNL     1      -4.735 -10.690  13.050  0.00  0.00    +0.003 A 
ATOM     20  C   UNL     1      -3.575 -10.496  12.289  0.00  0.00    -0.033 A 
ATOM     21  C   UNL     1      -2.280 -11.059  12.794  0.00  0.00    +0.059 C 
ATOM     22  C   UNL     1      -2.552 -12.368  13.523  0.00  0.00    +0.146 C 
ATOM     23  C   UNL     1      -5.956 -10.158  12.628  0.00  0.00    +0.059 A 
ATOM     24  C   UNL     1      -3.639  -9.744  11.113  0.00  0.00    +0.053 A 
ATOM     26  C   UNL     1      -6.013  -9.421  11.446  0.00  0.00    +0.162 A 
ATOM     27  C   UNL     1      -4.858  -9.212  10.691  0.00  0.00    +0.162 A 
BRANCH  26   4
ATOM      4  O   UNL     1      -7.206  -8.906  11.036  0.00  0.00    -0.491 OA
ATOM     33  C   UNL     1      -8.110  -9.800  10.389  0.00  0.00    +0.277 C 
ENDBRANCH  26   4
BRANCH  27   5
ATOM      5  O   UNL     1      -4.907  -8.486   9.539  0.00  0.00    -0.491 OA
ATOM     34  C   UNL     1      -4.985  -9.216   8.316  0.00  0.00    +0.277 C 
ENDBRANCH  27   5
ENDBRANCH  13  15
ENDBRANCH   8  13
BRANCH   9  14
ATOM     14  C   UNL     1      -3.776 -11.605  17.737  0.00  0.00    +0.124 C 
BRANCH  14  18
ATOM      3  O   UNL     1      -3.511 -12.159  20.096  0.00  0.00    -0.251 OA
ATOM     18  C   UNL     1      -3.799 -12.487  18.955  0.00  0.00    +0.305 C 
BRANCH  18   2
ATOM      2  O   UNL     1      -4.194 -13.739  18.606  0.00  0.00    -0.481 OA
ATOM     35  H   UNL     1      -3.696 -14.429  19.093  0.00  0.00    +0.295 HD
ENDBRANCH  18   2
ENDBRANCH  14  18
ENDBRANCH   9  14
BRANCH  16  19
ATOM     19  C   UNL     1      -9.269  -9.591  15.282  0.00  0.00    +0.131 C 
BRANCH  19  25
ATOM     25  C   UNL     1     -10.225  -8.439  15.261  0.00  0.00    -0.039 A 
ATOM     28  C   UNL     1     -10.005  -7.336  16.087  0.00  0.00    +0.004 A 
ATOM     29  C   UNL     1     -11.336  -8.469  14.418  0.00  0.00    +0.004 A 
ATOM     30  C   UNL     1     -10.895  -6.262  16.068  0.00  0.00    +0.000 A 
ATOM     31  C   UNL     1     -12.226  -7.395  14.399  0.00  0.00    +0.000 A 
ATOM     32  C   UNL     1     -12.007  -6.292  15.225  0.00  0.00    +0.000 A 
ENDBRANCH  19  25
ENDBRANCH  16  19
TORSDOF 9
ENDMDL
MODEL 6
REMARK VINA RESULT:      -6.2     26.514     29.770
REMARK  Name = 51136607
REMARK  11 active torsions:
REMARK  status: ('A' for Active; 'I' for Inactive)
REMARK    1  A    between atoms: O_2  and  C_18
REMARK    2  A    between atoms: O_4  and  C_26
REMARK    3  A    between atoms: O_4  and  C_33
REMARK    4  A    between atoms: O_5  and  C_27
REMARK    5  A    between atoms: O_5  and  C_34
REMARK    6  A    between atoms: C_8  and  C_13
REMARK    7  A    between atoms: C_9  and  C_14
REMARK    8  A    between atoms: C_13  and  C_15
REMARK    9  A    between atoms: C_14  and  C_18
REMARK   10  A    between atoms: C_16  and  C_19
REMARK   11  A    between atoms: C_19  and  C_25
REMARK                            x       y       z     vdW  Elec       q    Type
REMARK                         _______ _______ _______ _____ _____    ______ ____
ROOT
ATOM      1  O   UNL     1      -1.410  -9.829  12.453  0.00  0.00    -0.275 OA
ATOM      6  N   UNL     1      -2.319 -11.340  13.965  0.00  0.00    -0.301 N 
ATOM      8  C   UNL     1      -4.167 -12.116  15.432  0.00  0.00    +0.016 C 
ATOM      9  C   UNL     1      -3.370 -11.590  16.653  0.00  0.00    +0.006 C 
ATOM     10  C   UNL     1      -2.425 -10.442  16.258  0.00  0.00    +0.023 C 
ATOM     11  C   UNL     1      -3.200 -12.469  14.288  0.00  0.00    +0.112 C 
ATOM     12  C   UNL     1      -1.527 -10.839  15.089  0.00  0.00    +0.108 C 
ATOM     16  C   UNL     1      -2.178 -10.761  12.705  0.00  0.00    +0.220 C 
ENDROOT
BRANCH   8  13
ATOM     13  C   UNL     1      -5.252 -11.153  14.934  0.00  0.00    +0.061 C 
BRANCH  13  15
ATOM      7  N   UNL     1      -6.450 -13.171  14.425  0.00  0.00    -0.287 NA
ATOM     15  C   UNL     1      -6.536 -11.908  14.688  0.00  0.00    +0.044 C 
ATOM     17  C   UNL     1      -7.823 -11.172  14.752  0.00  0.00    +0.003 A 
ATOM     20  C   UNL     1      -8.931 -11.783  14.152  0.00  0.00    -0.033 A 
ATOM     21  C   UNL     1      -8.746 -13.113  13.484  0.00  0.00    +0.059 C 
ATOM     22  C   UNL     1      -7.700 -13.917  14.245  0.00  0.00    +0.146 C 
ATOM     23  C   UNL     1      -7.948  -9.921  15.361  0.00  0.00    +0.059 A 
ATOM     24  C   UNL     1     -10.163 -11.123  14.143  0.00  0.00    +0.053 A 
ATOM     26  C   UNL     1      -9.184  -9.276  15.360  0.00  0.00    +0.162 A 
ATOM     27  C   UNL     1     -10.289  -9.873  14.750  0.00  0.00    +0.162 A 
BRANCH  26   4
ATOM      4  O   UNL     1      -9.303  -8.057  15.957  0.00  0.00    -0.491 OA
ATOM     33  C   UNL     1      -9.647  -8.044  17.341  0.00  0.00    +0.277 C 
ENDBRANCH  26   4
BRANCH  27   5
ATOM      5  O   UNL     1     -11.497  -9.244  14.740  0.00  0.00    -0.491 OA
ATOM     34  C   UNL     1     -12.528  -9.807  15.550  0.00  0.00    +0.277 C 
ENDBRANCH  27   5
ENDBRANCH  13  15
ENDBRANCH   8  13
BRANCH   9  14
ATOM     14  C   UNL     1      -4.264 -11.174  17.821  0.00  0.00    +0.124 C 
BRANCH  14  18
ATOM      3  O   UNL     1      -3.404 -12.197  19.859  0.00  0.00    -0.251 OA
ATOM     18  C   UNL     1      -4.212 -12.173  18.943  0.00  0.00    +0.305 C 
BRANCH  18   2
ATOM      2  O   UNL     1      -5.215 -13.077  18.798  0.00  0.00    -0.481 OA
ATOM     35  H   UNL     1      -4.873 -13.992  18.704  0.00  0.00    +0.295 HD
ENDBRANCH  18   2
ENDBRANCH  14  18
ENDBRANCH   9  14
BRANCH  16  19
ATOM     19  C   UNL     1      -3.030 -11.332  11.599  0.00  0.00    +0.131 C 
BRANCH  19  25
ATOM     25  C   UNL     1      -3.889 -10.266  10.992  0.00  0.00    -0.039 A 
ATOM     28  C   UNL     1      -4.983  -9.765  11.698  0.00  0.00    +0.004 A 
ATOM     29  C   UNL     1      -3.596  -9.775   9.719  0.00  0.00    +0.004 A 
ATOM     30  C   UNL     1      -5.783  -8.772  11.133  0.00  0.00    +0.000 A 
ATOM     31  C   UNL     1      -4.396  -8.782   9.154  0.00  0.00    +0.000 A 
ATOM     32  C   UNL     1      -5.490  -8.281   9.860  0.00  0.00    +0.000 A 
ENDBRANCH  19  25
ENDBRANCH  16  19
TORSDOF 9
ENDMDL
MODEL 7
REMARK VINA RESULT:      -6.1     26.091     29.446
REMARK  Name = 51136607
REMARK  11 active torsions:
REMARK  status: ('A' for Active; 'I' for Inactive)
REMARK    1  A    between atoms: O_2  and  C_18
REMARK    2  A    between atoms: O_4  and  C_26
REMARK    3  A    between atoms: O_4  and  C_33
REMARK    4  A    between atoms: O_5  and  C_27
REMARK    5  A    between atoms: O_5  and  C_34
REMARK    6  A    between atoms: C_8  and  C_13
REMARK    7  A    between atoms: C_9  and  C_14
REMARK    8  A    between atoms: C_13  and  C_15
REMARK    9  A    between atoms: C_14  and  C_18
REMARK   10  A    between atoms: C_16  and  C_19
REMARK   11  A    between atoms: C_19  and  C_25
REMARK                            x       y       z     vdW  Elec       q    Type
REMARK                         _______ _______ _______ _____ _____    ______ ____
ROOT
ATOM      1  O   UNL     1      -8.195 -12.007  17.528  0.00  0.00    -0.275 OA
ATOM      6  N   UNL     1      -6.428 -10.716  16.747  0.00  0.00    -0.301 N 
ATOM      8  C   UNL     1      -4.577 -10.289  15.146  0.00  0.00    +0.016 C 
ATOM      9  C   UNL     1      -3.577 -10.746  16.238  0.00  0.00    +0.006 C 
ATOM     10  C   UNL     1      -4.230 -11.721  17.232  0.00  0.00    +0.023 C 
ATOM     11  C   UNL     1      -5.858  -9.746  15.805  0.00  0.00    +0.112 C 
ATOM     12  C   UNL     1      -5.519 -11.144  17.811  0.00  0.00    +0.108 C 
ATOM     16  C   UNL     1      -7.731 -11.210  16.708  0.00  0.00    +0.220 C 
ENDROOT
BRANCH   8  13
ATOM     13  C   UNL     1      -4.925 -11.378  14.125  0.00  0.00    +0.061 C 
BRANCH  13  15
ATOM      7  N   UNL     1      -3.344 -11.153  12.332  0.00  0.00    -0.287 NA
ATOM     15  C   UNL     1      -4.549 -10.920  12.737  0.00  0.00    +0.044 C 
ATOM     17  C   UNL     1      -5.568 -10.223  11.913  0.00  0.00    +0.003 A 
ATOM     20  C   UNL     1      -5.098  -9.481  10.821  0.00  0.00    -0.033 A 
ATOM     21  C   UNL     1      -3.621  -9.429  10.568  0.00  0.00    +0.059 C 
ATOM     22  C   UNL     1      -2.997 -10.761  10.962  0.00  0.00    +0.146 C 
ATOM     23  C   UNL     1      -6.934 -10.274  12.198  0.00  0.00    +0.059 A 
ATOM     24  C   UNL     1      -6.003  -8.769  10.029  0.00  0.00    +0.053 A 
ATOM     26  C   UNL     1      -7.832  -9.572  11.394  0.00  0.00    +0.162 A 
ATOM     27  C   UNL     1      -7.368  -8.819  10.314  0.00  0.00    +0.162 A 
BRANCH  26   4
ATOM      4  O   UNL     1      -9.164  -9.626  11.674  0.00  0.00    -0.491 OA
ATOM     33  C   UNL     1      -9.812 -10.884  11.496  0.00  0.00    +0.277 C 
ENDBRANCH  26   4
BRANCH  27   5
ATOM      5  O   UNL     1      -8.240  -8.125   9.530  0.00  0.00    -0.491 OA
ATOM     34  C   UNL     1      -7.982  -8.113   8.127  0.00  0.00    +0.277 C 
ENDBRANCH  27   5
ENDBRANCH  13  15
ENDBRANCH   8  13
BRANCH   9  14
ATOM     14  C   UNL     1      -2.291 -11.341  15.665  0.00  0.00    +0.124 C 
BRANCH  14  18
ATOM      3  O   UNL     1      -0.327  -9.975  16.129  0.00  0.00    -0.251 OA
ATOM     18  C   UNL     1      -1.258 -10.281  15.400  0.00  0.00    +0.305 C 
BRANCH  18   2
ATOM      2  O   UNL     1      -1.507  -9.688  14.204  0.00  0.00    -0.481 OA
ATOM     35  H   UNL     1      -1.619 -10.346  13.485  0.00  0.00    +0.295 HD
ENDBRANCH  18   2
ENDBRANCH  14  18
ENDBRANCH   9  14
BRANCH  16  19
ATOM     19  C   UNL     1      -8.605 -10.724  15.579  0.00  0.00    +0.131 C 
BRANCH  19  25
ATOM     25  C   UNL     1      -9.651  -9.782  16.090  0.00  0.00    -0.039 A 
ATOM     28  C   UNL     1      -9.281  -8.530  16.583  0.00  0.00    +0.004 A 
ATOM     29  C   UNL     1     -10.994 -10.157  16.075  0.00  0.00    +0.004 A 
ATOM     30  C   UNL     1     -10.255  -7.653  17.059  0.00  0.00    +0.000 A 
ATOM     31  C   UNL     1     -11.969  -9.279  16.552  0.00  0.00    +0.000 A 
ATOM     32  C   UNL     1     -11.599  -8.028  17.045  0.00  0.00    +0.000 A 
ENDBRANCH  19  25
ENDBRANCH  16  19
TORSDOF 9
ENDMDL
MODEL 8
REMARK VINA RESULT:      -5.8     21.482     26.843
REMARK  Name = 51136607
REMARK  11 active torsions:
REMARK  status: ('A' for Active; 'I' for Inactive)
REMARK    1  A    between atoms: O_2  and  C_18
REMARK    2  A    between atoms: O_4  and  C_26
REMARK    3  A    between atoms: O_4  and  C_33
REMARK    4  A    between atoms: O_5  and  C_27
REMARK    5  A    between atoms: O_5  and  C_34
REMARK    6  A    between atoms: C_8  and  C_13
REMARK    7  A    between atoms: C_9  and  C_14
REMARK    8  A    between atoms: C_13  and  C_15
REMARK    9  A    between atoms: C_14  and  C_18
REMARK   10  A    between atoms: C_16  and  C_19
REMARK   11  A    between atoms: C_19  and  C_25
REMARK                            x       y       z     vdW  Elec       q    Type
REMARK                         _______ _______ _______ _____ _____    ______ ____
ROOT
ATOM      1  O   UNL     1      -6.096  11.712  38.179  0.00  0.00    -0.275 OA
ATOM      6  N   UNL     1      -4.516  10.337  37.174  0.00  0.00    -0.301 N 
ATOM      8  C   UNL     1      -2.375   9.077  37.216  0.00  0.00    +0.016 C 
ATOM      9  C   UNL     1      -1.741  10.198  36.354  0.00  0.00    +0.006 C 
ATOM     10  C   UNL     1      -2.456  11.544  36.563  0.00  0.00    +0.023 C 
ATOM     11  C   UNL     1      -3.893   9.023  36.970  0.00  0.00    +0.112 C 
ATOM     12  C   UNL     1      -3.962  11.412  36.351  0.00  0.00    +0.108 C 
ATOM     16  C   UNL     1      -5.572  10.602  38.045  0.00  0.00    +0.220 C 
ENDROOT
BRANCH   8  13
ATOM     13  C   UNL     1      -2.084   9.204  38.716  0.00  0.00    +0.061 C 
BRANCH  13  15
ATOM      7  N   UNL     1      -0.703   7.241  38.770  0.00  0.00    -0.287 NA
ATOM     15  C   UNL     1      -1.717   7.855  39.284  0.00  0.00    +0.044 C 
ATOM     17  C   UNL     1      -2.535   7.297  40.391  0.00  0.00    +0.003 A 
ATOM     20  C   UNL     1      -2.424   5.921  40.627  0.00  0.00    -0.033 A 
ATOM     21  C   UNL     1      -1.514   5.111  39.753  0.00  0.00    +0.059 C 
ATOM     22  C   UNL     1      -0.310   5.957  39.362  0.00  0.00    +0.146 C 
ATOM     23  C   UNL     1      -3.393   8.082  41.165  0.00  0.00    +0.059 A 
ATOM     24  C   UNL     1      -3.198   5.328  41.628  0.00  0.00    +0.053 A 
ATOM     26  C   UNL     1      -4.150   7.484  42.172  0.00  0.00    +0.162 A 
ATOM     27  C   UNL     1      -4.056   6.111  42.402  0.00  0.00    +0.162 A 
BRANCH  26   4
ATOM      4  O   UNL     1      -4.984   8.253  42.927  0.00  0.00    -0.491 OA
ATOM     33  C   UNL     1      -6.290   8.496  42.406  0.00  0.00    +0.277 C 
ENDBRANCH  26   4
BRANCH  27   5
ATOM      5  O   UNL     1      -4.799   5.521  43.380  0.00  0.00    -0.491 OA
ATOM     34  C   UNL     1      -4.784   4.095  43.435  0.00  0.00    +0.277 C 
ENDBRANCH  27   5
ENDBRANCH  13  15
ENDBRANCH   8  13
BRANCH   9  14
ATOM     14  C   UNL     1      -0.236  10.348  36.575  0.00  0.00    +0.124 C 
BRANCH  14  18
ATOM      3  O   UNL     1       0.059  11.573  34.488  0.00  0.00    -0.251 OA
ATOM     18  C   UNL     1       0.359  11.379  35.656  0.00  0.00    +0.305 C 
BRANCH  18   2
ATOM      2  O   UNL     1       1.308  12.089  36.319  0.00  0.00    -0.481 OA
ATOM     35  H   UNL     1       2.013  11.510  36.680  0.00  0.00    +0.295 HD
ENDBRANCH  18   2
ENDBRANCH  14  18
ENDBRANCH   9  14
BRANCH  16  19
ATOM     19  C   UNL     1      -6.085   9.442  38.860  0.00  0.00    +0.131 C 
BRANCH  19  25
ATOM     25  C   UNL     1      -7.470   9.069  38.433  0.00  0.00    -0.039 A 
ATOM     28  C   UNL     1      -7.717   8.704  37.109  0.00  0.00    +0.004 A 
ATOM     29  C   UNL     1      -8.515   9.088  39.358  0.00  0.00    +0.004 A 
ATOM     30  C   UNL     1      -9.008   8.356  36.711  0.00  0.00    +0.000 A 
ATOM     31  C   UNL     1      -9.806   8.741  38.959  0.00  0.00    +0.000 A 
ATOM     32  C   UNL     1     -10.053   8.376  37.636  0.00  0.00    +0.000 A 
ENDBRANCH  19  25
ENDBRANCH  16  19
TORSDOF 9
ENDMDL
MODEL 9
REMARK VINA RESULT:      -5.7     22.059     25.309
REMARK  Name = 51136607
REMARK  11 active torsions:
REMARK  status: ('A' for Active; 'I' for Inactive)
REMARK    1  A    between atoms: O_2  and  C_18
REMARK    2  A    between atoms: O_4  and  C_26
REMARK    3  A    between atoms: O_4  and  C_33
REMARK    4  A    between atoms: O_5  and  C_27
REMARK    5  A    between atoms: O_5  and  C_34
REMARK    6  A    between atoms: C_8  and  C_13
REMARK    7  A    between atoms: C_9  and  C_14
REMARK    8  A    between atoms: C_13  and  C_15
REMARK    9  A    between atoms: C_14  and  C_18
REMARK   10  A    between atoms: C_16  and  C_19
REMARK   11  A    between atoms: C_19  and  C_25
REMARK                            x       y       z     vdW  Elec       q    Type
REMARK                         _______ _______ _______ _____ _____    ______ ____
ROOT
ATOM      1  O   UNL     1      -0.371  12.138  -0.417  0.00  0.00    -0.275 OA
ATOM      6  N   UNL     1      -0.150  11.097   1.648  0.00  0.00    -0.301 N 
ATOM      8  C   UNL     1      -1.123  10.092   3.701  0.00  0.00    +0.016 C 
ATOM      9  C   UNL     1      -0.743  11.383   4.469  0.00  0.00    +0.006 C 
ATOM     10  C   UNL     1      -0.674  12.600   3.531  0.00  0.00    +0.023 C 
ATOM     11  C   UNL     1      -0.181   9.901   2.499  0.00  0.00    +0.112 C 
ATOM     12  C   UNL     1       0.237  12.329   2.336  0.00  0.00    +0.108 C 
ATOM     16  C   UNL     1      -0.429  11.123   0.282  0.00  0.00    +0.220 C 
ENDROOT
BRANCH   8  13
ATOM     13  C   UNL     1      -2.586  10.047   3.243  0.00  0.00    +0.061 C 
BRANCH  13  15
ATOM      7  N   UNL     1      -2.685   8.315   4.902  0.00  0.00    -0.287 NA
ATOM     15  C   UNL     1      -3.351   9.037   4.063  0.00  0.00    +0.044 C 
ATOM     17  C   UNL     1      -4.817   8.915   3.863  0.00  0.00    +0.003 A 
ATOM     20  C   UNL     1      -5.423   7.742   4.330  0.00  0.00    -0.033 A 
ATOM     21  C   UNL     1      -4.564   6.696   4.977  0.00  0.00    +0.059 C 
ATOM     22  C   UNL     1      -3.436   7.376   5.742  0.00  0.00    +0.146 C 
ATOM     23  C   UNL     1      -5.577   9.901   3.230  0.00  0.00    +0.059 A 
ATOM     24  C   UNL     1      -6.793   7.549   4.136  0.00  0.00    +0.053 A 
ATOM     26  C   UNL     1      -6.947   9.706   3.055  0.00  0.00    +0.162 A 
ATOM     27  C   UNL     1      -7.554   8.532   3.504  0.00  0.00    +0.162 A 
BRANCH  26   4
ATOM      4  O   UNL     1      -7.686  10.672   2.439  0.00  0.00    -0.491 OA
ATOM     33  C   UNL     1      -7.448  10.880   1.048  0.00  0.00    +0.277 C 
ENDBRANCH  26   4
BRANCH  27   5
ATOM      5  O   UNL     1      -8.890   8.334   3.328  0.00  0.00    -0.491 OA
ATOM     34  C   UNL     1      -9.301   7.041   2.888  0.00  0.00    +0.277 C 
ENDBRANCH  27   5
ENDBRANCH  13  15
ENDBRANCH   8  13
BRANCH   9  14
ATOM     14  C   UNL     1      -1.663  11.670   5.656  0.00  0.00    +0.124 C 
BRANCH  14  18
ATOM      3  O   UNL     1      -0.120  11.475   7.533  0.00  0.00    -0.251 OA
ATOM     18  C   UNL     1      -1.114  11.096   6.933  0.00  0.00    +0.305 C 
BRANCH  18   2
ATOM      2  O   UNL     1      -1.897  10.066   7.346  0.00  0.00    -0.481 OA
ATOM     35  H   UNL     1      -2.735  10.381   7.748  0.00  0.00    +0.295 HD
ENDBRANCH  18   2
ENDBRANCH  14  18
ENDBRANCH   9  14
BRANCH  16  19
ATOM     19  C   UNL     1      -0.823   9.813  -0.352  0.00  0.00    +0.131 C 
BRANCH  19  25
ATOM     25  C   UNL     1      -2.130   9.948  -1.072  0.00  0.00    -0.039 A 
ATOM     28  C   UNL     1      -2.155  10.388  -2.396  0.00  0.00    +0.004 A 
ATOM     29  C   UNL     1      -3.322   9.637  -0.417  0.00  0.00    +0.004 A 
ATOM     30  C   UNL     1      -3.372  10.514  -3.065  0.00  0.00    +0.000 A 
ATOM     31  C   UNL     1      -4.539   9.763  -1.087  0.00  0.00    +0.000 A 
ATOM     32  C   UNL     1      -4.564  10.203  -2.411  0.00  0.00    +0.000 A 
ENDBRANCH  19  25
ENDBRANCH  16  19
TORSDOF 9
ENDMDL
MODEL 10
REMARK VINA RESULT:      -5.7     12.968     16.834
REMARK  Name = 51136607
REMARK  11 active torsions:
REMARK  status: ('A' for Active; 'I' for Inactive)
REMARK    1  A    between atoms: O_2  and  C_18
REMARK    2  A    between atoms: O_4  and  C_26
REMARK    3  A    between atoms: O_4  and  C_33
REMARK    4  A    between atoms: O_5  and  C_27
REMARK    5  A    between atoms: O_5  and  C_34
REMARK    6  A    between atoms: C_8  and  C_13
REMARK    7  A    between atoms: C_9  and  C_14
REMARK    8  A    between atoms: C_13  and  C_15
REMARK    9  A    between atoms: C_14  and  C_18
REMARK   10  A    between atoms: C_16  and  C_19
REMARK   11  A    between atoms: C_19  and  C_25
REMARK                            x       y       z     vdW  Elec       q    Type
REMARK                         _______ _______ _______ _____ _____    ______ ____
ROOT
ATOM      1  O   UNL     1      19.587  -8.089  24.769  0.00  0.00    -0.275 OA
ATOM      6  N   UNL     1      19.535  -5.921  23.935  0.00  0.00    -0.301 N 
ATOM      8  C   UNL     1      18.917  -3.523  24.128  0.00  0.00    +0.016 C 
ATOM      9  C   UNL     1      17.753  -3.781  23.137  0.00  0.00    +0.006 C 
ATOM     10  C   UNL     1      17.287  -5.246  23.182  0.00  0.00    +0.023 C 
ATOM     11  C   UNL     1      20.043  -4.544  23.890  0.00  0.00    +0.112 C 
ATOM     12  C   UNL     1      18.456  -6.207  22.989  0.00  0.00    +0.108 C 
ATOM     16  C   UNL     1      20.014  -6.931  24.768  0.00  0.00    +0.220 C 
ENDROOT
BRANCH   8  13
ATOM     13  C   UNL     1      18.493  -3.530  25.601  0.00  0.00    +0.061 C 
BRANCH  13  15
ATOM      7  N   UNL     1      20.269  -1.922  25.760  0.00  0.00    -0.287 NA
ATOM     15  C   UNL     1      19.290  -2.504  26.370  0.00  0.00    +0.044 C 
ATOM     17  C   UNL     1      18.921  -2.220  27.780  0.00  0.00    +0.003 A 
ATOM     20  C   UNL     1      19.885  -1.579  28.569  0.00  0.00    -0.033 A 
ATOM     21  C   UNL     1      21.209  -1.240  27.953  0.00  0.00    +0.059 C 
ATOM     22  C   UNL     1      21.005  -0.882  26.487  0.00  0.00    +0.146 C 
ATOM     23  C   UNL     1      17.685  -2.578  28.323  0.00  0.00    +0.059 A 
ATOM     24  C   UNL     1      19.614  -1.320  29.914  0.00  0.00    +0.053 A 
ATOM     26  C   UNL     1      17.418  -2.302  29.664  0.00  0.00    +0.162 A 
ATOM     27  C   UNL     1      18.380  -1.677  30.459  0.00  0.00    +0.162 A 
BRANCH  26   4
ATOM      4  O   UNL     1      16.210  -2.649  30.190  0.00  0.00    -0.491 OA
ATOM     33  C   UNL     1      16.042  -4.011  30.582  0.00  0.00    +0.277 C 
ENDBRANCH  26   4
BRANCH  27   5
ATOM      5  O   UNL     1      18.126  -1.412  31.771  0.00  0.00    -0.491 OA
ATOM     34  C   UNL     1      18.143  -0.042  32.171  0.00  0.00    +0.277 C 
ENDBRANCH  27   5
ENDBRANCH  13  15
ENDBRANCH   8  13
BRANCH   9  14
ATOM     14  C   UNL     1      16.571  -2.833  23.337  0.00  0.00    +0.124 C 
BRANCH  14  18
ATOM      3  O   UNL     1      17.068  -0.597  24.172  0.00  0.00    -0.251 OA
ATOM     18  C   UNL     1      16.994  -1.393  23.247  0.00  0.00    +0.305 C 
BRANCH  18   2
ATOM      2  O   UNL     1      17.292  -1.083  21.959  0.00  0.00    -0.481 OA
ATOM     35  H   UNL     1      18.094  -0.522  21.894  0.00  0.00    +0.295 HD
ENDBRANCH  18   2
ENDBRANCH  14  18
ENDBRANCH   9  14
BRANCH  16  19
ATOM     19  C   UNL     1      21.124  -6.556  25.717  0.00  0.00    +0.131 C 
BRANCH  19  25
ATOM     25  C   UNL     1      20.567  -6.161  27.050  0.00  0.00    -0.039 A 
ATOM     28  C   UNL     1      21.348  -5.426  27.942  0.00  0.00    +0.004 A 
ATOM     29  C   UNL     1      19.267  -6.530  27.400  0.00  0.00    +0.004 A 
ATOM     30  C   UNL     1      20.829  -5.058  29.184  0.00  0.00    +0.000 A 
ATOM     31  C   UNL     1      18.748  -6.162  28.641  0.00  0.00    +0.000 A 
ATOM     32  C   UNL     1      19.529  -5.427  29.534  0.00  0.00    +0.000 A 
ENDBRANCH  19  25
ENDBRANCH  16  19
TORSDOF 9
ENDMDL
