MODEL 1
REMARK VINA RESULT:      -6.6      0.000      0.000
REMARK  Name = 75536977
REMARK  5 active torsions:
REMARK  status: ('A' for Active; 'I' for Inactive)
REMARK    1  A    between atoms: O_3  and  C_19
REMARK    2  A    between atoms: O_3  and  C_27
REMARK    3  A    between atoms: N_5  and  C_14
REMARK    4  A    between atoms: C_14  and  C_16
REMARK    5  A    between atoms: C_15  and  C_17
REMARK                            x       y       z     vdW  Elec       q    Type
REMARK                         _______ _______ _______ _____ _____    ______ ____
ROOT
ATOM      1  O   UNL     1      12.792  11.590  13.849  0.00  0.00    -0.252 OA
ATOM      2  O   UNL     1      12.225   6.637  18.743  0.00  0.00    -0.270 OA
ATOM      4  N   UNL     1      13.382  10.176  15.629  0.00  0.00    -0.278 N 
ATOM      5  N   UNL     1      14.735  11.903  15.146  0.00  0.00    -0.278 N 
ATOM      6  N   UNL     1      13.032   8.679  17.944  0.00  0.00    -0.294 N 
ATOM      8  C   UNL     1      14.520  10.010  16.519  0.00  0.00    +0.112 C 
ATOM      9  C   UNL     1      15.318  11.297  16.331  0.00  0.00    +0.133 C 
ATOM     10  C   UNL     1      14.041   9.756  17.944  0.00  0.00    +0.132 C 
ATOM     11  C   UNL     1      12.303   9.203  15.647  0.00  0.00    +0.128 C 
ATOM     12  C   UNL     1      11.867   8.933  17.086  0.00  0.00    +0.127 C 
ATOM     13  C   UNL     1      13.543  11.262  14.758  0.00  0.00    +0.306 C 
ATOM     15  C   UNL     1      13.088   7.513  18.710  0.00  0.00    +0.250 C 
ENDROOT
BRANCH  15  17
ATOM     17  C   UNL     1      14.275   7.290  19.546  0.00  0.00    +0.078 A 
ATOM     19  C   UNL     1      14.265   7.610  20.903  0.00  0.00    +0.132 A 
ATOM     20  C   UNL     1      15.423   6.751  18.963  0.00  0.00    +0.017 A 
ATOM     22  C   UNL     1      15.404   7.392  21.678  0.00  0.00    +0.046 A 
ATOM     23  C   UNL     1      16.561   6.532  19.740  0.00  0.00    +0.001 A 
ATOM     25  C   UNL     1      16.552   6.853  21.096  0.00  0.00    +0.004 A 
BRANCH  19   3
ATOM      3  O   UNL     1      13.156   8.140  21.489  0.00  0.00    -0.494 OA
ATOM     27  C   UNL     1      13.237   9.495  21.925  0.00  0.00    +0.277 C 
ENDBRANCH  19   3
ENDBRANCH  15  17
BRANCH   5  14
ATOM     14  C   UNL     1      15.280  13.105  14.555  0.00  0.00    +0.164 C 
BRANCH  14  16
ATOM      7  N   UNL     1      17.604  12.851  13.897  0.00  0.00    -0.258 NA
ATOM     16  C   UNL     1      16.311  12.799  13.508  0.00  0.00    +0.059 A 
ATOM     18  C   UNL     1      15.900  12.483  12.222  0.00  0.00    +0.025 A 
ATOM     21  C   UNL     1      16.880  12.203  11.277  0.00  0.00    +0.003 A 
ATOM     24  C   UNL     1      18.529  12.573  12.950  0.00  0.00    +0.111 A 
ATOM     26  C   UNL     1      18.222  12.247  11.639  0.00  0.00    +0.020 A 
ENDBRANCH  14  16
ENDBRANCH   5  14
TORSDOF 4
ENDMDL
MODEL 2
REMARK VINA RESULT:      -6.4      2.511      3.585
REMARK  Name = 75536977
REMARK  5 active torsions:
REMARK  status: ('A' for Active; 'I' for Inactive)
REMARK    1  A    between atoms: O_3  and  C_19
REMARK    2  A    between atoms: O_3  and  C_27
REMARK    3  A    between atoms: N_5  and  C_14
REMARK    4  A    between atoms: C_14  and  C_16
REMARK    5  A    between atoms: C_15  and  C_17
REMARK                            x       y       z     vdW  Elec       q    Type
REMARK                         _______ _______ _______ _____ _____    ______ ____
ROOT
ATOM      1  O   UNL     1      15.880  11.869  14.394  0.00  0.00    -0.252 OA
ATOM      2  O   UNL     1      11.262   7.418  17.163  0.00  0.00    -0.270 OA
ATOM      4  N   UNL     1      14.721  10.623  16.013  0.00  0.00    -0.278 N 
ATOM      5  N   UNL     1      16.078  12.272  16.708  0.00  0.00    -0.278 N 
ATOM      6  N   UNL     1      12.559   9.360  17.220  0.00  0.00    -0.294 N 
ATOM      8  C   UNL     1      14.705  10.523  17.463  0.00  0.00    +0.112 C 
ATOM      9  C   UNL     1      15.452  11.774  17.920  0.00  0.00    +0.133 C 
ATOM     10  C   UNL     1      13.269  10.416  17.967  0.00  0.00    +0.132 C 
ATOM     11  C   UNL     1      13.962   9.674  15.215  0.00  0.00    +0.128 C 
ATOM     12  C   UNL     1      12.541   9.550  15.763  0.00  0.00    +0.127 C 
ATOM     13  C   UNL     1      15.597  11.617  15.558  0.00  0.00    +0.306 C 
ATOM     15  C   UNL     1      11.891   8.273  17.785  0.00  0.00    +0.250 C 
ENDROOT
BRANCH  15  17
ATOM     17  C   UNL     1      11.942   8.111  19.243  0.00  0.00    +0.078 A 
ATOM     19  C   UNL     1      13.026   7.482  19.856  0.00  0.00    +0.132 A 
ATOM     20  C   UNL     1      10.887   8.594  20.018  0.00  0.00    +0.017 A 
ATOM     22  C   UNL     1      13.055   7.337  21.243  0.00  0.00    +0.046 A 
ATOM     23  C   UNL     1      10.917   8.449  21.404  0.00  0.00    +0.001 A 
ATOM     25  C   UNL     1      12.000   7.820  22.017  0.00  0.00    +0.004 A 
BRANCH  19   3
ATOM      3  O   UNL     1      14.065   7.001  19.117  0.00  0.00    -0.494 OA
ATOM     27  C   UNL     1      15.373   7.438  19.477  0.00  0.00    +0.277 C 
ENDBRANCH  19   3
ENDBRANCH  15  17
BRANCH   5  14
ATOM     14  C   UNL     1      16.980  13.403  16.723  0.00  0.00    +0.164 C 
BRANCH  14  16
ATOM      7  N   UNL     1      19.046  12.581  15.747  0.00  0.00    -0.258 NA
ATOM     16  C   UNL     1      18.411  12.978  16.873  0.00  0.00    +0.059 A 
ATOM     18  C   UNL     1      19.002  13.012  18.126  0.00  0.00    +0.025 A 
ATOM     21  C   UNL     1      20.330  12.614  18.230  0.00  0.00    +0.003 A 
ATOM     24  C   UNL     1      20.337  12.200  15.888  0.00  0.00    +0.111 A 
ATOM     26  C   UNL     1      21.017  12.198  17.095  0.00  0.00    +0.020 A 
ENDBRANCH  14  16
ENDBRANCH   5  14
TORSDOF 4
ENDMDL
MODEL 3
REMARK VINA RESULT:      -6.4     27.203     29.452
REMARK  Name = 75536977
REMARK  5 active torsions:
REMARK  status: ('A' for Active; 'I' for Inactive)
REMARK    1  A    between atoms: O_3  and  C_19
REMARK    2  A    between atoms: O_3  and  C_27
REMARK    3  A    between atoms: N_5  and  C_14
REMARK    4  A    between atoms: C_14  and  C_16
REMARK    5  A    between atoms: C_15  and  C_17
REMARK                            x       y       z     vdW  Elec       q    Type
REMARK                         _______ _______ _______ _____ _____    ______ ____
ROOT
ATOM      1  O   UNL     1      -1.779 -11.964  14.932  0.00  0.00    -0.252 OA
ATOM      2  O   UNL     1      -6.330 -10.319  19.971  0.00  0.00    -0.270 OA
ATOM      4  N   UNL     1      -3.785 -11.293  15.955  0.00  0.00    -0.278 N 
ATOM      5  N   UNL     1      -3.824 -11.813  13.769  0.00  0.00    -0.278 N 
ATOM      6  N   UNL     1      -5.783 -11.217  17.885  0.00  0.00    -0.294 N 
ATOM      8  C   UNL     1      -5.140 -10.983  15.529  0.00  0.00    +0.112 C 
ATOM      9  C   UNL     1      -5.210 -11.540  14.109  0.00  0.00    +0.133 C 
ATOM     10  C   UNL     1      -6.148 -11.585  16.502  0.00  0.00    +0.132 C 
ATOM     11  C   UNL     1      -3.385 -11.048  17.330  0.00  0.00    +0.128 C 
ATOM     12  C   UNL     1      -4.429 -11.621  18.287  0.00  0.00    +0.127 C 
ATOM     13  C   UNL     1      -2.978 -11.718  14.891  0.00  0.00    +0.306 C 
ATOM     15  C   UNL     1      -6.621 -10.585  18.806  0.00  0.00    +0.250 C 
ENDROOT
BRANCH  15  17
ATOM     17  C   UNL     1      -7.962 -10.186  18.361  0.00  0.00    +0.078 A 
ATOM     19  C   UNL     1      -9.094 -10.876  18.794  0.00  0.00    +0.132 A 
ATOM     20  C   UNL     1      -8.094  -9.101  17.493  0.00  0.00    +0.017 A 
ATOM     22  C   UNL     1     -10.359 -10.482  18.358  0.00  0.00    +0.046 A 
ATOM     23  C   UNL     1      -9.359  -8.707  17.059  0.00  0.00    +0.001 A 
ATOM     25  C   UNL     1     -10.491  -9.397  17.490  0.00  0.00    +0.004 A 
BRANCH  19   3
ATOM      3  O   UNL     1      -8.986 -11.938  19.639  0.00  0.00    -0.494 OA
ATOM     27  C   UNL     1     -10.201 -12.513  20.117  0.00  0.00    +0.277 C 
ENDBRANCH  19   3
ENDBRANCH  15  17
BRANCH   5  14
ATOM     14  C   UNL     1      -3.434 -12.260  12.450  0.00  0.00    +0.164 C 
BRANCH  14  16
ATOM      7  N   UNL     1      -4.573 -11.179  10.597  0.00  0.00    -0.258 NA
ATOM     16  C   UNL     1      -3.514 -11.156  11.437  0.00  0.00    +0.059 A 
ATOM     18  C   UNL     1      -2.524 -10.186  11.409  0.00  0.00    +0.025 A 
ATOM     21  C   UNL     1      -2.628  -9.177  10.459  0.00  0.00    +0.003 A 
ATOM     24  C   UNL     1      -4.641 -10.181   9.687  0.00  0.00    +0.111 A 
ATOM     26  C   UNL     1      -3.704  -9.167   9.578  0.00  0.00    +0.020 A 
ENDBRANCH  14  16
ENDBRANCH   5  14
TORSDOF 4
ENDMDL
MODEL 4
REMARK VINA RESULT:      -6.3     27.330     29.651
REMARK  Name = 75536977
REMARK  5 active torsions:
REMARK  status: ('A' for Active; 'I' for Inactive)
REMARK    1  A    between atoms: O_3  and  C_19
REMARK    2  A    between atoms: O_3  and  C_27
REMARK    3  A    between atoms: N_5  and  C_14
REMARK    4  A    between atoms: C_14  and  C_16
REMARK    5  A    between atoms: C_15  and  C_17
REMARK                            x       y       z     vdW  Elec       q    Type
REMARK                         _______ _______ _______ _____ _____    ______ ____
ROOT
ATOM      1  O   UNL     1      -2.108 -11.461  14.871  0.00  0.00    -0.252 OA
ATOM      2  O   UNL     1      -5.958 -11.226  20.696  0.00  0.00    -0.270 OA
ATOM      4  N   UNL     1      -4.003 -11.449  16.259  0.00  0.00    -0.278 N 
ATOM      5  N   UNL     1      -4.264 -12.026  14.103  0.00  0.00    -0.278 N 
ATOM      6  N   UNL     1      -5.533 -11.966  18.521  0.00  0.00    -0.294 N 
ATOM      8  C   UNL     1      -5.438 -11.614  16.095  0.00  0.00    +0.112 C 
ATOM      9  C   UNL     1      -5.577 -12.211  14.697  0.00  0.00    +0.133 C 
ATOM     10  C   UNL     1      -6.000 -12.479  17.218  0.00  0.00    +0.132 C 
ATOM     11  C   UNL     1      -3.465 -11.040  17.545  0.00  0.00    +0.128 C 
ATOM     12  C   UNL     1      -4.072 -11.891  18.660  0.00  0.00    +0.127 C 
ATOM     13  C   UNL     1      -3.307 -11.622  15.054  0.00  0.00    +0.306 C 
ATOM     15  C   UNL     1      -6.350 -11.612  19.596  0.00  0.00    +0.250 C 
ENDROOT
BRANCH  15  17
ATOM     17  C   UNL     1      -7.805 -11.689  19.413  0.00  0.00    +0.078 A 
ATOM     19  C   UNL     1      -8.492 -10.698  18.711  0.00  0.00    +0.132 A 
ATOM     20  C   UNL     1      -8.501 -12.770  19.955  0.00  0.00    +0.017 A 
ATOM     22  C   UNL     1      -9.874 -10.788  18.550  0.00  0.00    +0.046 A 
ATOM     23  C   UNL     1      -9.884 -12.860  19.793  0.00  0.00    +0.001 A 
ATOM     25  C   UNL     1     -10.570 -11.869  19.092  0.00  0.00    +0.004 A 
BRANCH  19   3
ATOM      3  O   UNL     1      -7.831  -9.633  18.177  0.00  0.00    -0.494 OA
ATOM     27  C   UNL     1      -8.270  -9.171  16.902  0.00  0.00    +0.277 C 
ENDBRANCH  19   3
ENDBRANCH  15  17
BRANCH   5  14
ATOM     14  C   UNL     1      -3.994 -12.365  12.724  0.00  0.00    +0.164 C 
BRANCH  14  16
ATOM      7  N   UNL     1      -5.064 -10.595  11.451  0.00  0.00    -0.258 NA
ATOM     16  C   UNL     1      -3.898 -11.146  11.854  0.00  0.00    +0.059 A 
ATOM     18  C   UNL     1      -2.648 -10.652  11.513  0.00  0.00    +0.025 A 
ATOM     21  C   UNL     1      -2.594  -9.519  10.708  0.00  0.00    +0.003 A 
ATOM     24  C   UNL     1      -4.972  -9.496  10.669  0.00  0.00    +0.111 A 
ATOM     26  C   UNL     1      -3.773  -8.925  10.274  0.00  0.00    +0.020 A 
ENDBRANCH  14  16
ENDBRANCH   5  14
TORSDOF 4
ENDMDL
MODEL 5
REMARK VINA RESULT:      -6.0     27.267     30.194
REMARK  Name = 75536977
REMARK  5 active torsions:
REMARK  status: ('A' for Active; 'I' for Inactive)
REMARK    1  A    between atoms: O_3  and  C_19
REMARK    2  A    between atoms: O_3  and  C_27
REMARK    3  A    between atoms: N_5  and  C_14
REMARK    4  A    between atoms: C_14  and  C_16
REMARK    5  A    between atoms: C_15  and  C_17
REMARK                            x       y       z     vdW  Elec       q    Type
REMARK                         _______ _______ _______ _____ _____    ______ ____
ROOT
ATOM      1  O   UNL     1      -5.616 -13.066  18.208  0.00  0.00    -0.252 OA
ATOM      2  O   UNL     1      -2.602 -13.416  11.915  0.00  0.00    -0.270 OA
ATOM      4  N   UNL     1      -4.926 -12.418  16.058  0.00  0.00    -0.278 N 
ATOM      5  N   UNL     1      -5.755 -10.845  17.430  0.00  0.00    -0.278 N 
ATOM      6  N   UNL     1      -3.269 -12.259  13.831  0.00  0.00    -0.294 N 
ATOM      8  C   UNL     1      -4.983 -11.215  15.243  0.00  0.00    +0.112 C 
ATOM      9  C   UNL     1      -5.341 -10.118  16.242  0.00  0.00    +0.133 C 
ATOM     10  C   UNL     1      -3.659 -11.010  14.515  0.00  0.00    +0.132 C 
ATOM     11  C   UNL     1      -4.457 -13.664  15.475  0.00  0.00    +0.128 C 
ATOM     12  C   UNL     1      -3.153 -13.428  14.715  0.00  0.00    +0.127 C 
ATOM     13  C   UNL     1      -5.455 -12.218  17.339  0.00  0.00    +0.306 C 
ATOM     15  C   UNL     1      -2.969 -12.384  12.474  0.00  0.00    +0.250 C 
ENDROOT
BRANCH  15  17
ATOM     17  C   UNL     1      -3.110 -11.196  11.622  0.00  0.00    +0.078 A 
ATOM     19  C   UNL     1      -4.291 -10.954  10.921  0.00  0.00    +0.132 A 
ATOM     20  C   UNL     1      -2.041 -10.305  11.518  0.00  0.00    +0.017 A 
ATOM     22  C   UNL     1      -4.403  -9.821  10.116  0.00  0.00    +0.046 A 
ATOM     23  C   UNL     1      -2.154  -9.172  10.714  0.00  0.00    +0.001 A 
ATOM     25  C   UNL     1      -3.335  -8.930  10.012  0.00  0.00    +0.004 A 
BRANCH  19   3
ATOM      3  O   UNL     1      -5.344 -11.813  11.007  0.00  0.00    -0.494 OA
ATOM     27  C   UNL     1      -5.687 -12.538   9.828  0.00  0.00    +0.277 C 
ENDBRANCH  19   3
ENDBRANCH  15  17
BRANCH   5  14
ATOM     14  C   UNL     1      -6.283 -10.169  18.594  0.00  0.00    +0.164 C 
BRANCH  14  16
ATOM      7  N   UNL     1      -8.267 -11.047  19.686  0.00  0.00    -0.258 NA
ATOM     16  C   UNL     1      -7.777 -10.285  18.683  0.00  0.00    +0.059 A 
ATOM     18  C   UNL     1      -8.565  -9.623  17.755  0.00  0.00    +0.025 A 
ATOM     21  C   UNL     1      -9.946  -9.751  17.866  0.00  0.00    +0.003 A 
ATOM     24  C   UNL     1      -9.614 -11.147  19.762  0.00  0.00    +0.111 A 
ATOM     26  C   UNL     1     -10.488 -10.525  18.885  0.00  0.00    +0.020 A 
ENDBRANCH  14  16
ENDBRANCH   5  14
TORSDOF 4
ENDMDL
MODEL 6
REMARK VINA RESULT:      -6.0      2.610      4.015
REMARK  Name = 75536977
REMARK  5 active torsions:
REMARK  status: ('A' for Active; 'I' for Inactive)
REMARK    1  A    between atoms: O_3  and  C_19
REMARK    2  A    between atoms: O_3  and  C_27
REMARK    3  A    between atoms: N_5  and  C_14
REMARK    4  A    between atoms: C_14  and  C_16
REMARK    5  A    between atoms: C_15  and  C_17
REMARK                            x       y       z     vdW  Elec       q    Type
REMARK                         _______ _______ _______ _____ _____    ______ ____
ROOT
ATOM      1  O   UNL     1      13.555   8.440  15.310  0.00  0.00    -0.252 OA
ATOM      2  O   UNL     1      11.512   8.299  21.989  0.00  0.00    -0.270 OA
ATOM      4  N   UNL     1      13.426   9.007  17.585  0.00  0.00    -0.278 N 
ATOM      5  N   UNL     1      14.525  10.394  16.201  0.00  0.00    -0.278 N 
ATOM      6  N   UNL     1      12.245   9.410  20.069  0.00  0.00    -0.294 N 
ATOM      8  C   UNL     1      13.989  10.025  18.458  0.00  0.00    +0.112 C 
ATOM      9  C   UNL     1      14.544  11.066  17.489  0.00  0.00    +0.133 C 
ATOM     10  C   UNL     1      12.923  10.547  19.415  0.00  0.00    +0.132 C 
ATOM     11  C   UNL     1      12.661   7.911  18.154  0.00  0.00    +0.128 C 
ATOM     12  C   UNL     1      11.628   8.451  19.142  0.00  0.00    +0.127 C 
ATOM     13  C   UNL     1      13.806   9.184  16.248  0.00  0.00    +0.306 C 
ATOM     15  C   UNL     1      12.115   9.223  21.446  0.00  0.00    +0.250 C 
ENDROOT
BRANCH  15  17
ATOM     17  C   UNL     1      12.757  10.196  22.340  0.00  0.00    +0.078 A 
ATOM     19  C   UNL     1      14.099  10.064  22.696  0.00  0.00    +0.132 A 
ATOM     20  C   UNL     1      12.005  11.262  22.835  0.00  0.00    +0.017 A 
ATOM     22  C   UNL     1      14.689  10.998  23.548  0.00  0.00    +0.046 A 
ATOM     23  C   UNL     1      12.596  12.196  23.686  0.00  0.00    +0.001 A 
ATOM     25  C   UNL     1      13.937  12.063  24.043  0.00  0.00    +0.004 A 
BRANCH  19   3
ATOM      3  O   UNL     1      14.849   9.029  22.226  0.00  0.00    -0.494 OA
ATOM     27  C   UNL     1      16.043   9.362  21.521  0.00  0.00    +0.277 C 
ENDBRANCH  19   3
ENDBRANCH  15  17
BRANCH   5  14
ATOM     14  C   UNL     1      15.076  11.005  15.012  0.00  0.00    +0.164 C 
BRANCH  14  16
ATOM      7  N   UNL     1      13.081  11.496  13.716  0.00  0.00    -0.258 NA
ATOM     16  C   UNL     1      14.132  11.999  14.401  0.00  0.00    +0.059 A 
ATOM     18  C   UNL     1      14.373  13.354  14.565  0.00  0.00    +0.025 A 
ATOM     21  C   UNL     1      13.478  14.249  13.989  0.00  0.00    +0.003 A 
ATOM     24  C   UNL     1      12.233  12.396  13.170  0.00  0.00    +0.111 A 
ATOM     26  C   UNL     1      12.385  13.768  13.276  0.00  0.00    +0.020 A 
ENDBRANCH  14  16
ENDBRANCH   5  14
TORSDOF 4
ENDMDL
MODEL 7
REMARK VINA RESULT:      -6.0     27.339     30.207
REMARK  Name = 75536977
REMARK  5 active torsions:
REMARK  status: ('A' for Active; 'I' for Inactive)
REMARK    1  A    between atoms: O_3  and  C_19
REMARK    2  A    between atoms: O_3  and  C_27
REMARK    3  A    between atoms: N_5  and  C_14
REMARK    4  A    between atoms: C_14  and  C_16
REMARK    5  A    between atoms: C_15  and  C_17
REMARK                            x       y       z     vdW  Elec       q    Type
REMARK                         _______ _______ _______ _____ _____    ______ ____
ROOT
ATOM      1  O   UNL     1      -3.342 -11.857  18.857  0.00  0.00    -0.252 OA
ATOM      2  O   UNL     1     -10.206 -10.598  19.199  0.00  0.00    -0.270 OA
ATOM      4  N   UNL     1      -5.448 -10.969  18.312  0.00  0.00    -0.278 N 
ATOM      5  N   UNL     1      -3.775 -10.730  16.832  0.00  0.00    -0.278 N 
ATOM      6  N   UNL     1      -8.212 -10.907  18.022  0.00  0.00    -0.294 N 
ATOM      8  C   UNL     1      -6.010 -10.144  17.255  0.00  0.00    +0.112 C 
ATOM      9  C   UNL     1      -4.940 -10.172  16.167  0.00  0.00    +0.133 C 
ATOM     10  C   UNL     1      -7.369 -10.688  16.829  0.00  0.00    +0.132 C 
ATOM     11  C   UNL     1      -6.256 -11.308  19.472  0.00  0.00    +0.128 C 
ATOM     12  C   UNL     1      -7.628 -11.810  19.024  0.00  0.00    +0.127 C 
ATOM     13  C   UNL     1      -4.094 -11.258  18.098  0.00  0.00    +0.306 C 
ATOM     15  C   UNL     1      -9.487 -10.378  18.225  0.00  0.00    +0.250 C 
ENDROOT
BRANCH  15  17
ATOM     17  C   UNL     1     -10.030  -9.470  17.206  0.00  0.00    +0.078 A 
ATOM     19  C   UNL     1     -10.779  -9.961  16.136  0.00  0.00    +0.132 A 
ATOM     20  C   UNL     1      -9.787  -8.101  17.319  0.00  0.00    +0.017 A 
ATOM     22  C   UNL     1     -11.284  -9.082  15.178  0.00  0.00    +0.046 A 
ATOM     23  C   UNL     1     -10.294  -7.223  16.361  0.00  0.00    +0.001 A 
ATOM     25  C   UNL     1     -11.041  -7.713  15.291  0.00  0.00    +0.004 A 
BRANCH  19   3
ATOM      3  O   UNL     1     -11.024 -11.294  16.007  0.00  0.00    -0.494 OA
ATOM     27  C   UNL     1     -12.366 -11.729  16.218  0.00  0.00    +0.277 C 
ENDBRANCH  19   3
ENDBRANCH  15  17
BRANCH   5  14
ATOM     14  C   UNL     1      -2.492 -10.830  16.172  0.00  0.00    +0.164 C 
BRANCH  14  16
ATOM      7  N   UNL     1      -3.113 -12.644  14.681  0.00  0.00    -0.258 NA
ATOM     16  C   UNL     1      -2.616 -11.391  14.786  0.00  0.00    +0.059 A 
ATOM     18  C   UNL     1      -2.227 -10.619  13.703  0.00  0.00    +0.025 A 
ATOM     21  C   UNL     1      -2.356 -11.168  12.432  0.00  0.00    +0.003 A 
ATOM     24  C   UNL     1      -3.224 -13.144  13.430  0.00  0.00    +0.111 A 
ATOM     26  C   UNL     1      -2.863 -12.454  12.284  0.00  0.00    +0.020 A 
ENDBRANCH  14  16
ENDBRANCH   5  14
TORSDOF 4
ENDMDL
MODEL 8
REMARK VINA RESULT:      -5.8     12.475     16.593
REMARK  Name = 75536977
REMARK  5 active torsions:
REMARK  status: ('A' for Active; 'I' for Inactive)
REMARK    1  A    between atoms: O_3  and  C_19
REMARK    2  A    between atoms: O_3  and  C_27
REMARK    3  A    between atoms: N_5  and  C_14
REMARK    4  A    between atoms: C_14  and  C_16
REMARK    5  A    between atoms: C_15  and  C_17
REMARK                            x       y       z     vdW  Elec       q    Type
REMARK                         _______ _______ _______ _____ _____    ______ ____
ROOT
ATOM      1  O   UNL     1      12.287   7.960   6.047  0.00  0.00    -0.252 OA
ATOM      2  O   UNL     1      15.219   6.356  -0.088  0.00  0.00    -0.270 OA
ATOM      4  N   UNL     1      12.553   7.009   3.915  0.00  0.00    -0.278 N 
ATOM      5  N   UNL     1      10.518   6.943   4.865  0.00  0.00    -0.278 N 
ATOM      6  N   UNL     1      13.376   6.833   1.266  0.00  0.00    -0.294 N 
ATOM      8  C   UNL     1      11.745   6.226   2.995  0.00  0.00    +0.112 C 
ATOM      9  C   UNL     1      10.328   6.372   3.542  0.00  0.00    +0.133 C 
ATOM     10  C   UNL     1      11.935   6.729   1.568  0.00  0.00    +0.132 C 
ATOM     11  C   UNL     1      13.960   7.235   3.629  0.00  0.00    +0.128 C 
ATOM     12  C   UNL     1      14.132   7.698   2.183  0.00  0.00    +0.127 C 
ATOM     13  C   UNL     1      11.843   7.374   5.067  0.00  0.00    +0.306 C 
ATOM     15  C   UNL     1      14.026   6.232   0.187  0.00  0.00    +0.250 C 
ENDROOT
BRANCH  15  17
ATOM     17  C   UNL     1      13.239   5.365  -0.699  0.00  0.00    +0.078 A 
ATOM     19  C   UNL     1      13.154   3.993  -0.467  0.00  0.00    +0.132 A 
ATOM     20  C   UNL     1      12.573   5.932  -1.787  0.00  0.00    +0.017 A 
ATOM     22  C   UNL     1      12.403   3.186  -1.322  0.00  0.00    +0.046 A 
ATOM     23  C   UNL     1      11.822   5.125  -2.641  0.00  0.00    +0.001 A 
ATOM     25  C   UNL     1      11.737   3.753  -2.409  0.00  0.00    +0.004 A 
BRANCH  19   3
ATOM      3  O   UNL     1      13.799   3.420   0.587  0.00  0.00    -0.494 OA
ATOM     27  C   UNL     1      13.003   3.050   1.711  0.00  0.00    +0.277 C 
ENDBRANCH  19   3
ENDBRANCH  15  17
BRANCH   5  14
ATOM     14  C   UNL     1       9.414   7.145   5.777  0.00  0.00    +0.164 C 
BRANCH  14  16
ATOM      7  N   UNL     1       9.840   4.916   6.641  0.00  0.00    -0.258 NA
ATOM     16  C   UNL     1       9.448   6.179   6.924  0.00  0.00    +0.059 A 
ATOM     18  C   UNL     1       9.086   6.614   8.189  0.00  0.00    +0.025 A 
ATOM     21  C   UNL     1       9.130   5.693   9.231  0.00  0.00    +0.003 A 
ATOM     24  C   UNL     1       9.871   4.050   7.679  0.00  0.00    +0.111 A 
ATOM     26  C   UNL     1       9.528   4.385   8.979  0.00  0.00    +0.020 A 
ENDBRANCH  14  16
ENDBRANCH   5  14
TORSDOF 4
ENDMDL
MODEL 9
REMARK VINA RESULT:      -5.8     27.442     29.829
REMARK  Name = 75536977
REMARK  5 active torsions:
REMARK  status: ('A' for Active; 'I' for Inactive)
REMARK    1  A    between atoms: O_3  and  C_19
REMARK    2  A    between atoms: O_3  and  C_27
REMARK    3  A    between atoms: N_5  and  C_14
REMARK    4  A    between atoms: C_14  and  C_16
REMARK    5  A    between atoms: C_15  and  C_17
REMARK                            x       y       z     vdW  Elec       q    Type
REMARK                         _______ _______ _______ _____ _____    ______ ____
ROOT
ATOM      1  O   UNL     1      -1.610 -11.349  15.603  0.00  0.00    -0.252 OA
ATOM      2  O   UNL     1      -7.247 -10.877  19.703  0.00  0.00    -0.270 OA
ATOM      4  N   UNL     1      -3.797 -10.837  16.288  0.00  0.00    -0.278 N 
ATOM      5  N   UNL     1      -3.301 -10.680  14.103  0.00  0.00    -0.278 N 
ATOM      6  N   UNL     1      -6.211 -11.160  17.628  0.00  0.00    -0.294 N 
ATOM      8  C   UNL     1      -5.001 -10.296  15.677  0.00  0.00    +0.112 C 
ATOM      9  C   UNL     1      -4.724 -10.399  14.179  0.00  0.00    +0.133 C 
ATOM     10  C   UNL     1      -6.226 -11.068  16.155  0.00  0.00    +0.132 C 
ATOM     11  C   UNL     1      -3.749 -11.047  17.725  0.00  0.00    +0.128 C 
ATOM     12  C   UNL     1      -5.004 -11.784  18.189  0.00  0.00    +0.127 C 
ATOM     13  C   UNL     1      -2.757 -10.996  15.363  0.00  0.00    +0.306 C 
ATOM     15  C   UNL     1      -7.243 -10.759  18.479  0.00  0.00    +0.250 C 
ENDROOT
BRANCH  15  17
ATOM     17  C   UNL     1      -8.427 -10.129  17.881  0.00  0.00    +0.078 A 
ATOM     19  C   UNL     1      -9.614 -10.844  17.720  0.00  0.00    +0.132 A 
ATOM     20  C   UNL     1      -8.352  -8.797  17.471  0.00  0.00    +0.017 A 
ATOM     22  C   UNL     1     -10.726 -10.227  17.148  0.00  0.00    +0.046 A 
ATOM     23  C   UNL     1      -9.466  -8.181  16.900  0.00  0.00    +0.001 A 
ATOM     25  C   UNL     1     -10.652  -8.896  16.738  0.00  0.00    +0.004 A 
BRANCH  19   3
ATOM      3  O   UNL     1      -9.705 -12.145  18.112  0.00  0.00    -0.494 OA
ATOM     27  C   UNL     1     -10.503 -12.421  19.261  0.00  0.00    +0.277 C 
ENDBRANCH  19   3
ENDBRANCH  15  17
BRANCH   5  14
ATOM     14  C   UNL     1      -2.602 -10.748  12.839  0.00  0.00    +0.164 C 
BRANCH  14  16
ATOM      7  N   UNL     1      -2.653 -13.159  12.549  0.00  0.00    -0.258 NA
ATOM     16  C   UNL     1      -3.000 -11.955  12.041  0.00  0.00    +0.059 A 
ATOM     18  C   UNL     1      -3.688 -11.784  10.850  0.00  0.00    +0.025 A 
ATOM     21  C   UNL     1      -4.043 -12.923  10.136  0.00  0.00    +0.003 A 
ATOM     24  C   UNL     1      -3.016 -14.243  11.827  0.00  0.00    +0.111 A 
ATOM     26  C   UNL     1      -3.705 -14.179  10.626  0.00  0.00    +0.020 A 
ENDBRANCH  14  16
ENDBRANCH   5  14
TORSDOF 4
ENDMDL
MODEL 10
REMARK VINA RESULT:      -5.7     27.721     30.526
REMARK  Name = 75536977
REMARK  5 active torsions:
REMARK  status: ('A' for Active; 'I' for Inactive)
REMARK    1  A    between atoms: O_3  and  C_19
REMARK    2  A    between atoms: O_3  and  C_27
REMARK    3  A    between atoms: N_5  and  C_14
REMARK    4  A    between atoms: C_14  and  C_16
REMARK    5  A    between atoms: C_15  and  C_17
REMARK                            x       y       z     vdW  Elec       q    Type
REMARK                         _______ _______ _______ _____ _____    ______ ____
ROOT
ATOM      1  O   UNL     1     -10.839 -10.527  18.609  0.00  0.00    -0.252 OA
ATOM      2  O   UNL     1      -4.733 -13.669  17.325  0.00  0.00    -0.270 OA
ATOM      4  N   UNL     1      -8.704 -10.904  17.705  0.00  0.00    -0.278 N 
ATOM      5  N   UNL     1      -9.624  -8.870  17.453  0.00  0.00    -0.278 N 
ATOM      6  N   UNL     1      -6.065 -11.774  17.627  0.00  0.00    -0.294 N 
ATOM      8  C   UNL     1      -7.766 -10.180  16.863  0.00  0.00    +0.112 C 
ATOM      9  C   UNL     1      -8.295  -8.748  16.881  0.00  0.00    +0.133 C 
ATOM     10  C   UNL     1      -6.346 -10.344  17.395  0.00  0.00    +0.132 C 
ATOM     11  C   UNL     1      -8.440 -12.289  18.056  0.00  0.00    +0.128 C 
ATOM     12  C   UNL     1      -7.000 -12.439  18.546  0.00  0.00    +0.127 C 
ATOM     13  C   UNL     1      -9.849 -10.150  17.997  0.00  0.00    +0.306 C 
ATOM     15  C   UNL     1      -4.991 -12.489  17.096  0.00  0.00    +0.250 C 
ENDROOT
BRANCH  15  17
ATOM     17  C   UNL     1      -4.086 -11.792  16.172  0.00  0.00    +0.078 A 
ATOM     19  C   UNL     1      -4.355 -11.748  14.804  0.00  0.00    +0.132 A 
ATOM     20  C   UNL     1      -2.944 -11.171  16.679  0.00  0.00    +0.017 A 
ATOM     22  C   UNL     1      -3.482 -11.083  13.943  0.00  0.00    +0.046 A 
ATOM     23  C   UNL     1      -2.072 -10.506  15.818  0.00  0.00    +0.001 A 
ATOM     25  C   UNL     1      -2.340 -10.462  14.451  0.00  0.00    +0.004 A 
BRANCH  19   3
ATOM      3  O   UNL     1      -5.463 -12.350  14.289  0.00  0.00    -0.494 OA
ATOM     27  C   UNL     1      -5.271 -13.589  13.611  0.00  0.00    +0.277 C 
ENDBRANCH  19   3
ENDBRANCH  15  17
BRANCH   5  14
ATOM     14  C   UNL     1     -10.522  -7.741  17.550  0.00  0.00    +0.164 C 
BRANCH  14  16
ATOM      7  N   UNL     1     -11.494  -8.413  15.428  0.00  0.00    -0.258 NA
ATOM     16  C   UNL     1     -11.122  -7.384  16.221  0.00  0.00    +0.059 A 
ATOM     18  C   UNL     1     -11.263  -6.049  15.876  0.00  0.00    +0.025 A 
ATOM     21  C   UNL     1     -11.823  -5.752  14.639  0.00  0.00    +0.003 A 
ATOM     24  C   UNL     1     -12.035  -8.085  14.232  0.00  0.00    +0.111 A 
ATOM     26  C   UNL     1     -12.219  -6.784  13.795  0.00  0.00    +0.020 A 
ENDBRANCH  14  16
ENDBRANCH   5  14
TORSDOF 4
ENDMDL
