REMARK  Name = 11939785
REMARK  6 active torsions:
REMARK  status: ('A' for Active; 'I' for Inactive)
REMARK    1  A    between atoms: N_5  and  C_13
REMARK    2  A    between atoms: N_6  and  C_14
REMARK    3  A    between atoms: N_10  and  C_31
REMARK    4  A    between atoms: N_10  and  C_32
REMARK    5  A    between atoms: N_10  and  C_33
REMARK    6  A    between atoms: C_23  and  C_26
REMARK                            x       y       z     vdW  Elec       q    Type
REMARK                         _______ _______ _______ _____ _____    ______ ____
ROOT
ATOM      1  O   UNL     1       0.962   0.505  -1.905  0.00  0.00    -0.370 OA
ATOM      2  O   UNL     1       2.221   3.314  -1.395  0.00  0.00    -0.370 OA
ATOM     11  C   UNL     1       2.287   2.062  -0.691  0.00  0.00    +0.171 C 
ATOM     12  C   UNL     1       0.920   1.415  -0.793  0.00  0.00    +0.171 C 
ATOM     13  C   UNL     1       3.205   1.101  -1.411  0.00  0.00    +0.131 C 
ATOM     14  C   UNL     1      -0.013   2.565  -1.092  0.00  0.00    +0.130 C 
ATOM     15  C   UNL     1       2.286   0.498  -2.458  0.00  0.00    +0.185 C 
ATOM     16  C   UNL     1       0.879   3.526  -1.856  0.00  0.00    +0.185 C 
ENDROOT
BRANCH  13   5
ATOM      3  O   UNL     1       5.607  -0.328  -1.735  0.00  0.00    -0.253 OA
ATOM      4  O   UNL     1       6.447  -3.045   2.293  0.00  0.00    -0.377 OA
ATOM      5  N   UNL     1       3.711   0.088  -0.512  0.00  0.00    -0.292 N 
ATOM      7  N   UNL     1       5.266  -1.537   0.215  0.00  0.00    -0.281 N 
ATOM     17  C   UNL     1       4.910  -0.574  -0.745  0.00  0.00    +0.303 C 
ATOM     19  C   UNL     1       6.422  -2.401  -0.036  0.00  0.00    +0.137 C 
ATOM     20  C   UNL     1       4.497  -1.889   1.417  0.00  0.00    +0.137 C 
ATOM     21  C   UNL     1       7.261  -2.567   1.221  0.00  0.00    +0.179 C 
ATOM     22  C   UNL     1       5.422  -2.102   2.610  0.00  0.00    +0.179 C 
ATOM     34  H   UNL     1       3.075  -0.241   0.202  0.00  0.00    +0.151 HD
ENDBRANCH  13   5
BRANCH  14   6
ATOM      6  N   UNL     1      -0.461   3.172   0.142  0.00  0.00    -0.306 N 
ATOM      8  N   UNL     1      -2.210   1.628   0.395  0.00  0.00    -0.214 NA
ATOM      9  N   UNL     1      -1.855   3.373   2.019  0.00  0.00    -0.223 NA
ATOM     18  C   UNL     1      -1.541   2.710   0.874  0.00  0.00    +0.216 A 
ATOM     23  C   UNL     1      -3.257   1.205   1.133  0.00  0.00    +0.076 A 
ATOM     24  C   UNL     1      -2.914   2.896   2.707  0.00  0.00    +0.116 A 
ATOM     25  C   UNL     1      -3.659   1.806   2.309  0.00  0.00    +0.048 A 
ATOM     35  H   UNL     1       0.062   3.946   0.535  0.00  0.00    +0.149 HD
BRANCH  23  26
ATOM     26  C   UNL     1      -3.953   0.055   0.607  0.00  0.00    +0.001 A 
ATOM     27  C   UNL     1      -5.317  -0.112   0.851  0.00  0.00    +0.012 A 
ATOM     28  C   UNL     1      -3.262  -0.898  -0.146  0.00  0.00    +0.012 A 
ATOM     29  C   UNL     1      -5.989  -1.225   0.345  0.00  0.00    +0.024 A 
ATOM     30  C   UNL     1      -3.933  -2.010  -0.653  0.00  0.00    +0.024 A 
ATOM     31  C   UNL     1      -5.297  -2.174  -0.407  0.00  0.00    +0.029 A 
BRANCH  31  10
ATOM     10  N   UNL     1      -5.976  -3.299  -0.920  0.00  0.00    -0.336 N 
ATOM     32  C   UNL     1      -5.548  -3.910  -2.163  0.00  0.00    +0.129 C 
ATOM     33  C   UNL     1      -7.118  -3.849  -0.219  0.00  0.00    +0.129 C 
ENDBRANCH  31  10
ENDBRANCH  23  26
ENDBRANCH  14   6
TORSDOF 4
