REMARK  Name = 11911909
REMARK  7 active torsions:
REMARK  status: ('A' for Active; 'I' for Inactive)
REMARK    1  A    between atoms: N_5  and  C_12
REMARK    2  A    between atoms: N_6  and  C_13
REMARK    3  A    between atoms: N_9  and  C_26
REMARK    4  A    between atoms: N_9  and  C_30
REMARK    5  A    between atoms: N_9  and  C_31
REMARK    6  A    between atoms: C_16  and  C_18
REMARK    7  A    between atoms: C_21  and  C_27
REMARK                            x       y       z     vdW  Elec       q    Type
REMARK                         _______ _______ _______ _____ _____    ______ ____
ROOT
ATOM      2  O   UNL     1       0.464   1.648   1.737  0.00  0.00    -0.370 OA
ATOM      3  O   UNL     1       0.308   4.220   0.013  0.00  0.00    -0.370 OA
ATOM     10  C   UNL     1      -0.291   2.919  -0.123  0.00  0.00    +0.171 C 
ATOM     11  C   UNL     1       0.733   1.904   0.347  0.00  0.00    +0.171 C 
ATOM     12  C   UNL     1      -1.439   2.766   0.850  0.00  0.00    +0.130 C 
ATOM     13  C   UNL     1       2.055   2.619   0.196  0.00  0.00    +0.130 C 
ATOM     14  C   UNL     1      -0.716   2.368   2.127  0.00  0.00    +0.185 C 
ATOM     15  C   UNL     1       1.676   4.071   0.422  0.00  0.00    +0.185 C 
ENDROOT
BRANCH  13   6
ATOM      6  N   UNL     1       2.566   2.437  -1.146  0.00  0.00    -0.306 N 
ATOM      7  N   UNL     1       3.570   0.387  -0.605  0.00  0.00    -0.214 NA
ATOM      8  N   UNL     1       3.727   1.292  -2.833  0.00  0.00    -0.223 NA
ATOM     17  C   UNL     1       3.309   1.339  -1.540  0.00  0.00    +0.216 A 
ATOM     21  C   UNL     1       4.298  -0.670  -1.023  0.00  0.00    +0.076 A 
ATOM     22  C   UNL     1       4.450   0.207  -3.182  0.00  0.00    +0.116 A 
ATOM     23  C   UNL     1       4.769  -0.815  -2.312  0.00  0.00    +0.048 A 
ATOM     36  H   UNL     1       2.333   3.115  -1.863  0.00  0.00    +0.149 HD
BRANCH  21  27
ATOM      1  F   UNL     1       3.027  -3.042   2.987  0.00  0.00    -0.205 F 
ATOM     27  C   UNL     1       4.561  -1.669  -0.015  0.00  0.00    +0.003 A 
ATOM     28  C   UNL     1       3.649  -1.878   1.021  0.00  0.00    +0.048 A 
ATOM     29  C   UNL     1       5.730  -2.432  -0.074  0.00  0.00    +0.010 A 
ATOM     32  C   UNL     1       3.904  -2.844   1.994  0.00  0.00    +0.124 A 
ATOM     33  C   UNL     1       5.985  -3.398   0.900  0.00  0.00    +0.003 A 
ATOM     34  C   UNL     1       5.072  -3.604   1.934  0.00  0.00    +0.038 A 
ENDBRANCH  21  27
ENDBRANCH  13   6
BRANCH  12   5
ATOM      4  O   UNL     1      -4.225   2.448   1.522  0.00  0.00    -0.270 OA
ATOM      5  N   UNL     1      -2.328   1.684   0.429  0.00  0.00    -0.304 N 
ATOM     16  C   UNL     1      -3.661   1.623   0.809  0.00  0.00    +0.244 C 
ATOM     35  H   UNL     1      -1.901   0.909  -0.068  0.00  0.00    +0.149 HD
BRANCH  16  18
ATOM     18  C   UNL     1      -4.423   0.445   0.319  0.00  0.00    +0.037 A 
ATOM     19  C   UNL     1      -4.026  -0.166  -0.852  0.00  0.00    +0.015 A 
ATOM     20  C   UNL     1      -5.504   0.001   1.052  0.00  0.00    +0.015 A 
ATOM     24  C   UNL     1      -4.742  -1.272  -1.311  0.00  0.00    +0.024 A 
ATOM     25  C   UNL     1      -6.220  -1.105   0.593  0.00  0.00    +0.024 A 
ATOM     26  C   UNL     1      -5.839  -1.742  -0.588  0.00  0.00    +0.029 A 
BRANCH  26   9
ATOM      9  N   UNL     1      -6.561  -2.861  -1.051  0.00  0.00    -0.336 N 
ATOM     30  C   UNL     1      -5.902  -3.889  -1.832  0.00  0.00    +0.129 C 
ATOM     31  C   UNL     1      -7.976  -2.991  -0.765  0.00  0.00    +0.129 C 
ENDBRANCH  26   9
ENDBRANCH  16  18
ENDBRANCH  12   5
TORSDOF 5
