MODEL 1
REMARK VINA RESULT:      -7.0      0.000      0.000
REMARK  Name = 71693187
REMARK  13 active torsions:
REMARK  status: ('A' for Active; 'I' for Inactive)
REMARK    1  A    between atoms: O_1  and  C_32
REMARK    2  A    between atoms: O_1  and  C_33
REMARK    3  A    between atoms: N_3  and  C_12
REMARK    4  A    between atoms: N_3  and  C_16
REMARK    5  A    between atoms: N_4  and  C_25
REMARK    6  A    between atoms: C_7  and  C_11
REMARK    7  A    between atoms: C_8  and  C_12
REMARK    8  A    between atoms: C_10  and  C_15
REMARK    9  A    between atoms: C_11  and  C_17
REMARK   10  A    between atoms: C_11  and  C_18
REMARK   11  A    between atoms: C_13  and  C_21
REMARK   12  A    between atoms: C_15  and  C_24
REMARK   13  A    between atoms: C_30  and  C_32
REMARK                            x       y       z     vdW  Elec       q    Type
REMARK                         _______ _______ _______ _____ _____    ______ ____
ROOT
ATOM      7  C   UNL     1     -13.733   8.609  20.579  0.00  0.00    +0.000 C 
ATOM      8  C   UNL     1     -12.411   8.000  20.057  0.00  0.00    +0.029 C 
ATOM      9  C   UNL     1     -14.783   7.511  20.797  0.00  0.00    +0.012 C 
ATOM     10  C   UNL     1     -14.314   6.399  21.760  0.00  0.00    +0.022 C 
ATOM     13  C   UNL     1     -12.853   6.022  21.568  0.00  0.00    -0.073 C 
ATOM     14  C   UNL     1     -12.022   6.744  20.793  0.00  0.00    -0.023 C 
ATOM     21  C   UNL     1     -12.337   4.831  22.328  0.00  0.00    +0.039 C 
ENDROOT
BRANCH   7  11
ATOM     11  C   UNL     1     -13.506   9.422  21.861  0.00  0.00    -0.013 C 
ATOM     17  C   UNL     1     -12.354  10.404  21.672  0.00  0.00    +0.007 C 
ATOM     18  C   UNL     1     -14.783  10.157  22.257  0.00  0.00    +0.007 C 
ENDBRANCH   7  11
BRANCH   8  12
ATOM     12  C   UNL     1     -12.480   7.704  18.556  0.00  0.00    +0.089 C 
BRANCH  12   3
ATOM      3  N   UNL     1     -11.166   7.359  18.040  0.00  0.00    -0.313 NA
ATOM     34  H   UNL     1     -11.242   6.508  17.484  0.00  0.00    +0.122 HD
BRANCH   3  16
ATOM      4  N   UNL     1     -10.815  11.181  16.213  0.00  0.00    -0.305 NA
ATOM     16  C   UNL     1     -10.623   8.439  17.219  0.00  0.00    +0.056 C 
ATOM     19  C   UNL     1     -11.608   8.839  16.116  0.00  0.00    +0.034 C 
ATOM     20  C   UNL     1     -10.297   9.654  18.091  0.00  0.00    +0.034 C 
ATOM     22  C   UNL     1     -11.088  10.041  15.325  0.00  0.00    +0.085 C 
ATOM     23  C   UNL     1      -9.819  10.832  17.236  0.00  0.00    +0.085 C 
ATOM     25  C   UNL     1     -10.367  12.337  15.437  0.00  0.00    +0.104 C 
ENDBRANCH   3  16
ENDBRANCH  12   3
ENDBRANCH   8  12
BRANCH  10  15
ATOM     15  C   UNL     1     -15.262   5.201  21.624  0.00  0.00    +0.082 C 
BRANCH  15  24
ATOM      5  N   UNL     1     -15.692   3.387  23.294  0.00  0.00    -0.342 N 
ATOM      6  N   UNL     1     -16.203   5.450  23.947  0.00  0.00    -0.232 NA
ATOM     24  C   UNL     1     -15.728   4.715  22.966  0.00  0.00    +0.109 A 
ATOM     26  C   UNL     1     -16.176   3.258  24.571  0.00  0.00    +0.067 A 
ATOM     27  C   UNL     1     -16.488   4.558  24.956  0.00  0.00    +0.089 A 
ATOM     28  C   UNL     1     -16.363   2.149  25.395  0.00  0.00    +0.042 A 
ATOM     29  C   UNL     1     -17.018   4.785  26.237  0.00  0.00    +0.030 A 
ATOM     30  C   UNL     1     -16.892   2.392  26.667  0.00  0.00    +0.061 A 
ATOM     31  C   UNL     1     -17.214   3.686  27.083  0.00  0.00    +0.017 A 
ATOM     35  H   UNL     1     -15.367   2.634  22.704  0.00  0.00    +0.167 HD
BRANCH  30  32
ATOM      2  O   UNL     1     -16.214   0.527  27.989  0.00  0.00    -0.245 OA
ATOM     32  C   UNL     1     -17.109   1.273  27.573  0.00  0.00    +0.339 C 
BRANCH  32   1
ATOM      1  O   UNL     1     -18.429   1.149  27.909  0.00  0.00    -0.464 OA
ATOM     33  C   UNL     1     -19.069  -0.084  27.565  0.00  0.00    +0.280 C 
ENDBRANCH  32   1
ENDBRANCH  30  32
ENDBRANCH  15  24
ENDBRANCH  10  15
TORSDOF 8
ENDMDL
MODEL 2
REMARK VINA RESULT:      -6.9     20.843     23.458
REMARK  Name = 71693187
REMARK  13 active torsions:
REMARK  status: ('A' for Active; 'I' for Inactive)
REMARK    1  A    between atoms: O_1  and  C_32
REMARK    2  A    between atoms: O_1  and  C_33
REMARK    3  A    between atoms: N_3  and  C_12
REMARK    4  A    between atoms: N_3  and  C_16
REMARK    5  A    between atoms: N_4  and  C_25
REMARK    6  A    between atoms: C_7  and  C_11
REMARK    7  A    between atoms: C_8  and  C_12
REMARK    8  A    between atoms: C_10  and  C_15
REMARK    9  A    between atoms: C_11  and  C_17
REMARK   10  A    between atoms: C_11  and  C_18
REMARK   11  A    between atoms: C_13  and  C_21
REMARK   12  A    between atoms: C_15  and  C_24
REMARK   13  A    between atoms: C_30  and  C_32
REMARK                            x       y       z     vdW  Elec       q    Type
REMARK                         _______ _______ _______ _____ _____    ______ ____
ROOT
ATOM      7  C   UNL     1      -5.014 -12.270  15.619  0.00  0.00    +0.000 C 
ATOM      8  C   UNL     1      -4.886 -10.760  15.927  0.00  0.00    +0.029 C 
ATOM      9  C   UNL     1      -4.015 -12.684  14.530  0.00  0.00    +0.012 C 
ATOM     10  C   UNL     1      -2.549 -12.356  14.888  0.00  0.00    +0.022 C 
ATOM     13  C   UNL     1      -2.394 -11.015  15.587  0.00  0.00    -0.073 C 
ATOM     14  C   UNL     1      -3.451 -10.311  16.033  0.00  0.00    -0.023 C 
ATOM     21  C   UNL     1      -0.995 -10.512  15.823  0.00  0.00    +0.039 C 
ENDROOT
BRANCH   7  11
ATOM     11  C   UNL     1      -4.836 -13.117  16.886  0.00  0.00    -0.013 C 
ATOM     17  C   UNL     1      -5.622 -12.512  18.045  0.00  0.00    +0.007 C 
ATOM     18  C   UNL     1      -5.273 -14.556  16.630  0.00  0.00    +0.007 C 
ENDBRANCH   7  11
BRANCH   8  12
ATOM     12  C   UNL     1      -5.604  -9.906  14.878  0.00  0.00    +0.089 C 
BRANCH  12   3
ATOM      3  N   UNL     1      -7.040 -10.112  14.943  0.00  0.00    -0.313 NA
ATOM     34  H   UNL     1      -7.462  -9.338  15.457  0.00  0.00    +0.122 HD
BRANCH   3  16
ATOM      4  N   UNL     1      -7.529 -11.248  10.876  0.00  0.00    -0.305 NA
ATOM     16  C   UNL     1      -7.622 -10.194  13.605  0.00  0.00    +0.056 C 
ATOM     19  C   UNL     1      -6.654  -9.650  12.551  0.00  0.00    +0.034 C 
ATOM     20  C   UNL     1      -7.991 -11.643  13.276  0.00  0.00    +0.034 C 
ATOM     22  C   UNL     1      -7.216  -9.835  11.140  0.00  0.00    +0.085 C 
ATOM     23  C   UNL     1      -8.511 -11.764  11.840  0.00  0.00    +0.085 C 
ATOM     25  C   UNL     1      -8.019 -11.416   9.509  0.00  0.00    +0.104 C 
ENDBRANCH   3  16
ENDBRANCH  12   3
ENDBRANCH   8  12
BRANCH  10  15
ATOM     15  C   UNL     1      -1.697 -12.470  13.617  0.00  0.00    +0.082 C 
BRANCH  15  24
ATOM      5  N   UNL     1      -2.969 -12.413  11.463  0.00  0.00    -0.342 N 
ATOM      6  N   UNL     1      -2.351 -10.439  12.279  0.00  0.00    -0.232 NA
ATOM     24  C   UNL     1      -2.329 -11.740  12.467  0.00  0.00    +0.109 A 
ATOM     26  C   UNL     1      -3.435 -11.484  10.568  0.00  0.00    +0.067 A 
ATOM     27  C   UNL     1      -3.037 -10.261  11.099  0.00  0.00    +0.089 A 
ATOM     28  C   UNL     1      -4.149 -11.606   9.376  0.00  0.00    +0.042 A 
ATOM     29  C   UNL     1      -3.362  -9.078  10.413  0.00  0.00    +0.030 A 
ATOM     30  C   UNL     1      -4.464 -10.419   8.706  0.00  0.00    +0.061 A 
ATOM     31  C   UNL     1      -4.078  -9.176   9.214  0.00  0.00    +0.017 A 
ATOM     35  H   UNL     1      -3.081 -13.415  11.391  0.00  0.00    +0.167 HD
BRANCH  30  32
ATOM      2  O   UNL     1      -5.868  -9.547   6.988  0.00  0.00    -0.245 OA
ATOM     32  C   UNL     1      -5.207 -10.483   7.456  0.00  0.00    +0.339 C 
BRANCH  32   1
ATOM      1  O   UNL     1      -5.085 -11.708   6.861  0.00  0.00    -0.464 OA
ATOM     33  C   UNL     1      -4.661 -11.722   5.494  0.00  0.00    +0.280 C 
ENDBRANCH  32   1
ENDBRANCH  30  32
ENDBRANCH  15  24
ENDBRANCH  10  15
TORSDOF 8
ENDMDL
MODEL 3
REMARK VINA RESULT:      -6.8     18.874     21.012
REMARK  Name = 71693187
REMARK  13 active torsions:
REMARK  status: ('A' for Active; 'I' for Inactive)
REMARK    1  A    between atoms: O_1  and  C_32
REMARK    2  A    between atoms: O_1  and  C_33
REMARK    3  A    between atoms: N_3  and  C_12
REMARK    4  A    between atoms: N_3  and  C_16
REMARK    5  A    between atoms: N_4  and  C_25
REMARK    6  A    between atoms: C_7  and  C_11
REMARK    7  A    between atoms: C_8  and  C_12
REMARK    8  A    between atoms: C_10  and  C_15
REMARK    9  A    between atoms: C_11  and  C_17
REMARK   10  A    between atoms: C_11  and  C_18
REMARK   11  A    between atoms: C_13  and  C_21
REMARK   12  A    between atoms: C_15  and  C_24
REMARK   13  A    between atoms: C_30  and  C_32
REMARK                            x       y       z     vdW  Elec       q    Type
REMARK                         _______ _______ _______ _____ _____    ______ ____
ROOT
ATOM      7  C   UNL     1      -4.419  -9.922  12.039  0.00  0.00    +0.000 C 
ATOM      8  C   UNL     1      -5.853 -10.501  11.999  0.00  0.00    +0.029 C 
ATOM      9  C   UNL     1      -3.563 -10.672  13.068  0.00  0.00    +0.012 C 
ATOM     10  C   UNL     1      -3.495 -12.194  12.814  0.00  0.00    +0.022 C 
ATOM     13  C   UNL     1      -4.822 -12.781  12.362  0.00  0.00    -0.073 C 
ATOM     14  C   UNL     1      -5.868 -12.008  12.013  0.00  0.00    -0.023 C 
ATOM     21  C   UNL     1      -4.919 -14.279  12.256  0.00  0.00    +0.039 C 
ENDROOT
BRANCH   7  11
ATOM     11  C   UNL     1      -3.767  -9.948  10.650  0.00  0.00    -0.013 C 
ATOM     17  C   UNL     1      -4.558  -9.083   9.673  0.00  0.00    +0.007 C 
ATOM     18  C   UNL     1      -2.318  -9.480  10.734  0.00  0.00    +0.007 C 
ENDBRANCH   7  11
BRANCH   8  12
ATOM     12  C   UNL     1      -6.706  -9.978  13.159  0.00  0.00    +0.089 C 
BRANCH  12   3
ATOM      3  N   UNL     1      -7.092 -11.065  14.042  0.00  0.00    -0.313 NA
ATOM     34  H   UNL     1      -6.252 -11.475  14.448  0.00  0.00    +0.122 HD
BRANCH   3  16
ATOM      4  N   UNL     1      -9.421  -8.391  16.388  0.00  0.00    -0.305 NA
ATOM     16  C   UNL     1      -7.975 -10.589  15.106  0.00  0.00    +0.056 C 
ATOM     19  C   UNL     1      -7.271  -9.547  15.979  0.00  0.00    +0.034 C 
ATOM     20  C   UNL     1      -9.251  -9.992  14.508  0.00  0.00    +0.034 C 
ATOM     22  C   UNL     1      -8.227  -8.969  17.024  0.00  0.00    +0.085 C 
ATOM     23  C   UNL     1     -10.145  -9.399  15.601  0.00  0.00    +0.085 C 
ATOM     25  C   UNL     1     -10.301  -7.799  17.394  0.00  0.00    +0.104 C 
ENDBRANCH   3  16
ENDBRANCH  12   3
ENDBRANCH   8  12
BRANCH  10  15
ATOM     15  C   UNL     1      -2.938 -12.876  14.070  0.00  0.00    +0.082 C 
BRANCH  15  24
ATOM      5  N   UNL     1      -4.847 -13.138  15.666  0.00  0.00    -0.342 N 
ATOM      6  N   UNL     1      -3.411 -11.506  16.130  0.00  0.00    -0.232 NA
ATOM     24  C   UNL     1      -3.707 -12.479  15.297  0.00  0.00    +0.109 A 
ATOM     26  C   UNL     1      -5.316 -12.552  16.814  0.00  0.00    +0.067 A 
ATOM     27  C   UNL     1      -4.404 -11.537  17.082  0.00  0.00    +0.089 A 
ATOM     28  C   UNL     1      -6.428 -12.815  17.615  0.00  0.00    +0.042 A 
ATOM     29  C   UNL     1      -4.595 -10.725  18.213  0.00  0.00    +0.030 A 
ATOM     30  C   UNL     1      -6.603 -11.998  18.736  0.00  0.00    +0.061 A 
ATOM     31  C   UNL     1      -5.704 -10.971  19.033  0.00  0.00    +0.017 A 
ATOM     35  H   UNL     1      -5.270 -13.920  15.183  0.00  0.00    +0.167 HD
BRANCH  30  32
ATOM      2  O   UNL     1      -8.144 -13.341  19.964  0.00  0.00    -0.245 OA
ATOM     32  C   UNL     1      -7.745 -12.224  19.610  0.00  0.00    +0.339 C 
BRANCH  32   1
ATOM      1  O   UNL     1      -8.325 -11.046  19.993  0.00  0.00    -0.464 OA
ATOM     33  C   UNL     1      -9.726 -10.904  19.737  0.00  0.00    +0.280 C 
ENDBRANCH  32   1
ENDBRANCH  30  32
ENDBRANCH  15  24
ENDBRANCH  10  15
TORSDOF 8
ENDMDL
MODEL 4
REMARK VINA RESULT:      -6.8     20.056     23.022
REMARK  Name = 71693187
REMARK  13 active torsions:
REMARK  status: ('A' for Active; 'I' for Inactive)
REMARK    1  A    between atoms: O_1  and  C_32
REMARK    2  A    between atoms: O_1  and  C_33
REMARK    3  A    between atoms: N_3  and  C_12
REMARK    4  A    between atoms: N_3  and  C_16
REMARK    5  A    between atoms: N_4  and  C_25
REMARK    6  A    between atoms: C_7  and  C_11
REMARK    7  A    between atoms: C_8  and  C_12
REMARK    8  A    between atoms: C_10  and  C_15
REMARK    9  A    between atoms: C_11  and  C_17
REMARK   10  A    between atoms: C_11  and  C_18
REMARK   11  A    between atoms: C_13  and  C_21
REMARK   12  A    between atoms: C_15  and  C_24
REMARK   13  A    between atoms: C_30  and  C_32
REMARK                            x       y       z     vdW  Elec       q    Type
REMARK                         _______ _______ _______ _____ _____    ______ ____
ROOT
ATOM      7  C   UNL     1      -5.060 -12.546  15.431  0.00  0.00    +0.000 C 
ATOM      8  C   UNL     1      -4.953 -11.044  15.782  0.00  0.00    +0.029 C 
ATOM      9  C   UNL     1      -4.081 -12.906  14.304  0.00  0.00    +0.012 C 
ATOM     10  C   UNL     1      -2.613 -12.559  14.635  0.00  0.00    +0.022 C 
ATOM     13  C   UNL     1      -2.466 -11.237  15.372  0.00  0.00    -0.073 C 
ATOM     14  C   UNL     1      -3.525 -10.569  15.867  0.00  0.00    -0.023 C 
ATOM     21  C   UNL     1      -1.072 -10.713  15.588  0.00  0.00    +0.039 C 
ENDROOT
BRANCH   7  11
ATOM     11  C   UNL     1      -4.832 -13.428  16.666  0.00  0.00    -0.013 C 
ATOM     17  C   UNL     1      -5.637 -12.903  17.850  0.00  0.00    +0.007 C 
ATOM     18  C   UNL     1      -5.202 -14.876  16.361  0.00  0.00    +0.007 C 
ENDBRANCH   7  11
BRANCH   8  12
ATOM     12  C   UNL     1      -5.715 -10.173  14.779  0.00  0.00    +0.089 C 
BRANCH  12   3
ATOM      3  N   UNL     1      -6.578  -9.230  15.469  0.00  0.00    -0.313 NA
ATOM     34  H   UNL     1      -6.975  -8.585  14.786  0.00  0.00    +0.122 HD
BRANCH   3  16
ATOM      4  N   UNL     1     -10.027  -9.808  17.884  0.00  0.00    -0.305 NA
ATOM     16  C   UNL     1      -7.650  -9.921  16.180  0.00  0.00    +0.056 C 
ATOM     19  C   UNL     1      -7.564  -9.665  17.688  0.00  0.00    +0.034 C 
ATOM     20  C   UNL     1      -9.014  -9.470  15.651  0.00  0.00    +0.034 C 
ATOM     22  C   UNL     1      -8.749 -10.297  18.421  0.00  0.00    +0.085 C 
ATOM     23  C   UNL     1     -10.152 -10.109  16.451  0.00  0.00    +0.085 C 
ATOM     25  C   UNL     1     -11.148 -10.383  18.627  0.00  0.00    +0.104 C 
ENDBRANCH   3  16
ENDBRANCH  12   3
ENDBRANCH   8  12
BRANCH  10  15
ATOM     15  C   UNL     1      -1.792 -12.615  13.341  0.00  0.00    +0.082 C 
BRANCH  15  24
ATOM      5  N   UNL     1      -3.190 -12.341  11.284  0.00  0.00    -0.342 N 
ATOM      6  N   UNL     1      -2.305 -10.478  12.113  0.00  0.00    -0.232 NA
ATOM     24  C   UNL     1      -2.414 -11.779  12.260  0.00  0.00    +0.109 A 
ATOM     26  C   UNL     1      -3.610 -11.334  10.452  0.00  0.00    +0.067 A 
ATOM     27  C   UNL     1      -3.045 -10.182  10.990  0.00  0.00    +0.089 A 
ATOM     28  C   UNL     1      -4.411 -11.333   9.310  0.00  0.00    +0.042 A 
ATOM     29  C   UNL     1      -3.281  -8.946  10.365  0.00  0.00    +0.030 A 
ATOM     30  C   UNL     1      -4.636 -10.095   8.700  0.00  0.00    +0.061 A 
ATOM     31  C   UNL     1      -4.083  -8.921   9.216  0.00  0.00    +0.017 A 
ATOM     35  H   UNL     1      -3.418 -13.321  11.190  0.00  0.00    +0.167 HD
BRANCH  30  32
ATOM      2  O   UNL     1      -5.246 -10.672   6.468  0.00  0.00    -0.245 OA
ATOM     32  C   UNL     1      -5.464 -10.031   7.504  0.00  0.00    +0.339 C 
BRANCH  32   1
ATOM      1  O   UNL     1      -6.516  -9.172   7.668  0.00  0.00    -0.464 OA
ATOM     33  C   UNL     1      -7.663  -9.680   8.357  0.00  0.00    +0.280 C 
ENDBRANCH  32   1
ENDBRANCH  30  32
ENDBRANCH  15  24
ENDBRANCH  10  15
TORSDOF 8
ENDMDL
MODEL 5
REMARK VINA RESULT:      -6.8     16.392     18.530
REMARK  Name = 71693187
REMARK  13 active torsions:
REMARK  status: ('A' for Active; 'I' for Inactive)
REMARK    1  A    between atoms: O_1  and  C_32
REMARK    2  A    between atoms: O_1  and  C_33
REMARK    3  A    between atoms: N_3  and  C_12
REMARK    4  A    between atoms: N_3  and  C_16
REMARK    5  A    between atoms: N_4  and  C_25
REMARK    6  A    between atoms: C_7  and  C_11
REMARK    7  A    between atoms: C_8  and  C_12
REMARK    8  A    between atoms: C_10  and  C_15
REMARK    9  A    between atoms: C_11  and  C_17
REMARK   10  A    between atoms: C_11  and  C_18
REMARK   11  A    between atoms: C_13  and  C_21
REMARK   12  A    between atoms: C_15  and  C_24
REMARK   13  A    between atoms: C_30  and  C_32
REMARK                            x       y       z     vdW  Elec       q    Type
REMARK                         _______ _______ _______ _____ _____    ______ ____
ROOT
ATOM      7  C   UNL     1     -11.572  -8.265  14.257  0.00  0.00    +0.000 C 
ATOM      8  C   UNL     1     -12.872  -8.002  15.052  0.00  0.00    +0.029 C 
ATOM      9  C   UNL     1     -10.341  -8.022  15.142  0.00  0.00    +0.012 C 
ATOM     10  C   UNL     1     -10.336  -8.874  16.430  0.00  0.00    +0.022 C 
ATOM     13  C   UNL     1     -11.712  -8.999  17.065  0.00  0.00    -0.073 C 
ATOM     14  C   UNL     1     -12.832  -8.593  16.438  0.00  0.00    -0.023 C 
ATOM     21  C   UNL     1     -11.796  -9.656  18.416  0.00  0.00    +0.039 C 
ENDROOT
BRANCH   7  11
ATOM     11  C   UNL     1     -11.557  -9.679  13.661  0.00  0.00    -0.013 C 
ATOM     17  C   UNL     1     -12.886  -9.983  12.979  0.00  0.00    +0.007 C 
ATOM     18  C   UNL     1     -10.399  -9.830  12.680  0.00  0.00    +0.007 C 
ENDBRANCH   7  11
BRANCH   8  12
ATOM     12  C   UNL     1     -13.181  -6.505  15.152  0.00  0.00    +0.089 C 
BRANCH  12   3
ATOM      3  N   UNL     1     -14.346  -6.167  14.353  0.00  0.00    -0.313 NA
ATOM     34  H   UNL     1     -15.027  -5.694  14.946  0.00  0.00    +0.122 HD
BRANCH   3  16
ATOM      4  N   UNL     1     -12.073  -4.552  11.145  0.00  0.00    -0.305 NA
ATOM     16  C   UNL     1     -13.982  -5.304  13.231  0.00  0.00    +0.056 C 
ATOM     19  C   UNL     1     -12.706  -4.514  13.537  0.00  0.00    +0.034 C 
ATOM     20  C   UNL     1     -13.788  -6.138  11.962  0.00  0.00    +0.034 C 
ATOM     22  C   UNL     1     -12.264  -3.693  12.323  0.00  0.00    +0.085 C 
ATOM     23  C   UNL     1     -13.311  -5.264  10.799  0.00  0.00    +0.085 C 
ATOM     25  C   UNL     1     -11.603  -3.762  10.008  0.00  0.00    +0.104 C 
ENDBRANCH   3  16
ENDBRANCH  12   3
ENDBRANCH   8  12
BRANCH  10  15
ATOM     15  C   UNL     1      -9.285  -8.303  17.391  0.00  0.00    +0.082 C 
BRANCH  15  24
ATOM      5  N   UNL     1      -7.207  -9.061  16.220  0.00  0.00    -0.342 N 
ATOM      6  N   UNL     1      -7.508  -9.852  18.276  0.00  0.00    -0.232 NA
ATOM     24  C   UNL     1      -8.005  -9.086  17.331  0.00  0.00    +0.109 A 
ATOM     26  C   UNL     1      -6.123  -9.865  16.466  0.00  0.00    +0.067 A 
ATOM     27  C   UNL     1      -6.334 -10.346  17.754  0.00  0.00    +0.089 A 
ATOM     28  C   UNL     1      -5.011 -10.201  15.694  0.00  0.00    +0.042 A 
ATOM     29  C   UNL     1      -5.390 -11.217  18.323  0.00  0.00    +0.030 A 
ATOM     30  C   UNL     1      -4.081 -11.069  16.275  0.00  0.00    +0.061 A 
ATOM     31  C   UNL     1      -4.265 -11.569  17.566  0.00  0.00    +0.017 A 
ATOM     35  H   UNL     1      -7.381  -8.543  15.370  0.00  0.00    +0.167 HD
BRANCH  30  32
ATOM      2  O   UNL     1      -2.927 -12.094  14.458  0.00  0.00    -0.245 OA
ATOM     32  C   UNL     1      -2.899 -11.457  15.518  0.00  0.00    +0.339 C 
BRANCH  32   1
ATOM      1  O   UNL     1      -1.752 -11.028  16.126  0.00  0.00    -0.464 OA
ATOM     33  C   UNL     1      -1.074  -9.923  15.518  0.00  0.00    +0.280 C 
ENDBRANCH  32   1
ENDBRANCH  30  32
ENDBRANCH  15  24
ENDBRANCH  10  15
TORSDOF 8
ENDMDL
MODEL 6
REMARK VINA RESULT:      -6.8     22.284     25.163
REMARK  Name = 71693187
REMARK  13 active torsions:
REMARK  status: ('A' for Active; 'I' for Inactive)
REMARK    1  A    between atoms: O_1  and  C_32
REMARK    2  A    between atoms: O_1  and  C_33
REMARK    3  A    between atoms: N_3  and  C_12
REMARK    4  A    between atoms: N_3  and  C_16
REMARK    5  A    between atoms: N_4  and  C_25
REMARK    6  A    between atoms: C_7  and  C_11
REMARK    7  A    between atoms: C_8  and  C_12
REMARK    8  A    between atoms: C_10  and  C_15
REMARK    9  A    between atoms: C_11  and  C_17
REMARK   10  A    between atoms: C_11  and  C_18
REMARK   11  A    between atoms: C_13  and  C_21
REMARK   12  A    between atoms: C_15  and  C_24
REMARK   13  A    between atoms: C_30  and  C_32
REMARK                            x       y       z     vdW  Elec       q    Type
REMARK                         _______ _______ _______ _____ _____    ______ ____
ROOT
ATOM      7  C   UNL     1      -3.403 -13.896  12.796  0.00  0.00    +0.000 C 
ATOM      8  C   UNL     1      -2.518 -13.180  13.843  0.00  0.00    +0.029 C 
ATOM      9  C   UNL     1      -4.286 -12.883  12.054  0.00  0.00    +0.012 C 
ATOM     10  C   UNL     1      -3.480 -11.761  11.363  0.00  0.00    +0.022 C 
ATOM     13  C   UNL     1      -2.305 -11.273  12.196  0.00  0.00    -0.073 C 
ATOM     14  C   UNL     1      -1.898 -11.914  13.308  0.00  0.00    -0.023 C 
ATOM     21  C   UNL     1      -1.559 -10.063  11.703  0.00  0.00    +0.039 C 
ENDROOT
BRANCH   7  11
ATOM     11  C   UNL     1      -2.556 -14.717  11.816  0.00  0.00    -0.013 C 
ATOM     17  C   UNL     1      -1.581 -15.613  12.575  0.00  0.00    +0.007 C 
ATOM     18  C   UNL     1      -3.453 -15.547  10.903  0.00  0.00    +0.007 C 
ENDBRANCH   7  11
BRANCH   8  12
ATOM     12  C   UNL     1      -3.301 -12.856  15.119  0.00  0.00    +0.089 C 
BRANCH  12   3
ATOM      3  N   UNL     1      -2.679 -11.758  15.839  0.00  0.00    -0.313 NA
ATOM     34  H   UNL     1      -2.054 -11.260  15.205  0.00  0.00    +0.122 HD
BRANCH   3  16
ATOM      4  N   UNL     1      -6.468 -10.287  17.084  0.00  0.00    -0.305 NA
ATOM     16  C   UNL     1      -3.685 -10.838  16.366  0.00  0.00    +0.056 C 
ATOM     19  C   UNL     1      -4.755 -10.532  15.314  0.00  0.00    +0.034 C 
ATOM     20  C   UNL     1      -4.338 -11.429  17.618  0.00  0.00    +0.034 C 
ATOM     22  C   UNL     1      -5.866  -9.657  15.899  0.00  0.00    +0.085 C 
ATOM     23  C   UNL     1      -5.463 -10.524  18.129  0.00  0.00    +0.085 C 
ATOM     25  C   UNL     1      -7.560  -9.464  17.601  0.00  0.00    +0.104 C 
ENDBRANCH   3  16
ENDBRANCH  12   3
ENDBRANCH   8  12
BRANCH  10  15
ATOM     15  C   UNL     1      -4.445 -10.633  10.975  0.00  0.00    +0.082 C 
BRANCH  15  24
ATOM      5  N   UNL     1      -4.222 -11.608   8.681  0.00  0.00    -0.342 N 
ATOM      6  N   UNL     1      -5.636  -9.905   8.879  0.00  0.00    -0.232 NA
ATOM     24  C   UNL     1      -4.792 -10.687   9.515  0.00  0.00    +0.109 A 
ATOM     26  C   UNL     1      -4.732 -11.408   7.424  0.00  0.00    +0.067 A 
ATOM     27  C   UNL     1      -5.612 -10.341   7.574  0.00  0.00    +0.089 A 
ATOM     28  C   UNL     1      -4.506 -12.050   6.207  0.00  0.00    +0.042 A 
ATOM     29  C   UNL     1      -6.317  -9.871   6.453  0.00  0.00    +0.030 A 
ATOM     30  C   UNL     1      -5.215 -11.571   5.101  0.00  0.00    +0.061 A 
ATOM     31  C   UNL     1      -6.106 -10.501   5.219  0.00  0.00    +0.017 A 
ATOM     35  H   UNL     1      -3.545 -12.314   8.942  0.00  0.00    +0.167 HD
BRANCH  30  32
ATOM      2  O   UNL     1      -5.775 -12.049   2.833  0.00  0.00    -0.245 OA
ATOM     32  C   UNL     1      -5.021 -12.200   3.803  0.00  0.00    +0.339 C 
BRANCH  32   1
ATOM      1  O   UNL     1      -3.898 -12.981   3.787  0.00  0.00    -0.464 OA
ATOM     33  C   UNL     1      -2.773 -12.478   3.060  0.00  0.00    +0.280 C 
ENDBRANCH  32   1
ENDBRANCH  30  32
ENDBRANCH  15  24
ENDBRANCH  10  15
TORSDOF 8
ENDMDL
MODEL 7
REMARK VINA RESULT:      -6.8     18.167     20.016
REMARK  Name = 71693187
REMARK  13 active torsions:
REMARK  status: ('A' for Active; 'I' for Inactive)
REMARK    1  A    between atoms: O_1  and  C_32
REMARK    2  A    between atoms: O_1  and  C_33
REMARK    3  A    between atoms: N_3  and  C_12
REMARK    4  A    between atoms: N_3  and  C_16
REMARK    5  A    between atoms: N_4  and  C_25
REMARK    6  A    between atoms: C_7  and  C_11
REMARK    7  A    between atoms: C_8  and  C_12
REMARK    8  A    between atoms: C_10  and  C_15
REMARK    9  A    between atoms: C_11  and  C_17
REMARK   10  A    between atoms: C_11  and  C_18
REMARK   11  A    between atoms: C_13  and  C_21
REMARK   12  A    between atoms: C_15  and  C_24
REMARK   13  A    between atoms: C_30  and  C_32
REMARK                            x       y       z     vdW  Elec       q    Type
REMARK                         _______ _______ _______ _____ _____    ______ ____
ROOT
ATOM      7  C   UNL     1      -3.741 -10.542  15.158  0.00  0.00    +0.000 C 
ATOM      8  C   UNL     1      -4.859 -11.384  14.500  0.00  0.00    +0.029 C 
ATOM      9  C   UNL     1      -4.025 -10.344  16.653  0.00  0.00    +0.012 C 
ATOM     10  C   UNL     1      -4.188 -11.672  17.425  0.00  0.00    +0.022 C 
ATOM     13  C   UNL     1      -4.957 -12.724  16.642  0.00  0.00    -0.073 C 
ATOM     14  C   UNL     1      -5.258 -12.571  15.338  0.00  0.00    -0.023 C 
ATOM     21  C   UNL     1      -5.330 -13.991  17.362  0.00  0.00    +0.039 C 
ENDROOT
BRANCH   7  11
ATOM     11  C   UNL     1      -2.361 -11.172  14.933  0.00  0.00    -0.013 C 
ATOM     17  C   UNL     1      -2.098 -11.363  13.442  0.00  0.00    +0.007 C 
ATOM     18  C   UNL     1      -1.273 -10.311  15.567  0.00  0.00    +0.007 C 
ENDBRANCH   7  11
BRANCH   8  12
ATOM     12  C   UNL     1      -6.101 -10.539  14.201  0.00  0.00    +0.089 C 
BRANCH  12   3
ATOM      3  N   UNL     1      -5.785  -9.474  13.265  0.00  0.00    -0.313 NA
ATOM     34  H   UNL     1      -4.908  -9.036  13.547  0.00  0.00    +0.122 HD
BRANCH   3  16
ATOM      4  N   UNL     1      -5.437  -9.487   9.029  0.00  0.00    -0.305 NA
ATOM     16  C   UNL     1      -5.667  -9.989  11.903  0.00  0.00    +0.056 C 
ATOM     19  C   UNL     1      -6.865  -9.565  11.049  0.00  0.00    +0.034 C 
ATOM     20  C   UNL     1      -4.368  -9.495  11.261  0.00  0.00    +0.034 C 
ATOM     22  C   UNL     1      -6.689 -10.010   9.595  0.00  0.00    +0.085 C 
ATOM     23  C   UNL     1      -4.272  -9.943   9.800  0.00  0.00    +0.085 C 
ATOM     25  C   UNL     1      -5.308  -9.879   7.626  0.00  0.00    +0.104 C 
ENDBRANCH   3  16
ENDBRANCH  12   3
ENDBRANCH   8  12
BRANCH  10  15
ATOM     15  C   UNL     1      -4.815 -11.369  18.792  0.00  0.00    +0.082 C 
BRANCH  15  24
ATOM      5  N   UNL     1      -6.610  -9.940  17.794  0.00  0.00    -0.342 N 
ATOM      6  N   UNL     1      -7.279 -11.427  19.305  0.00  0.00    -0.232 NA
ATOM     24  C   UNL     1      -6.247 -10.938  18.656  0.00  0.00    +0.109 A 
ATOM     26  C   UNL     1      -7.968  -9.775  17.894  0.00  0.00    +0.067 A 
ATOM     27  C   UNL     1      -8.362 -10.714  18.842  0.00  0.00    +0.089 A 
ATOM     28  C   UNL     1      -8.858  -8.912  17.254  0.00  0.00    +0.042 A 
ATOM     29  C   UNL     1      -9.721 -10.812  19.186  0.00  0.00    +0.030 A 
ATOM     30  C   UNL     1     -10.206  -9.022  17.609  0.00  0.00    +0.061 A 
ATOM     31  C   UNL     1     -10.633  -9.954  18.557  0.00  0.00    +0.017 A 
ATOM     35  H   UNL     1      -5.992  -9.416  17.190  0.00  0.00    +0.167 HD
BRANCH  30  32
ATOM      2  O   UNL     1     -12.263  -8.528  16.508  0.00  0.00    -0.245 OA
ATOM     32  C   UNL     1     -11.182  -8.147  16.976  0.00  0.00    +0.339 C 
BRANCH  32   1
ATOM      1  O   UNL     1     -10.756  -6.847  16.962  0.00  0.00    -0.464 OA
ATOM     33  C   UNL     1     -10.858  -6.148  15.717  0.00  0.00    +0.280 C 
ENDBRANCH  32   1
ENDBRANCH  30  32
ENDBRANCH  15  24
ENDBRANCH  10  15
TORSDOF 8
ENDMDL
MODEL 8
REMARK VINA RESULT:      -6.7     21.453     24.489
REMARK  Name = 71693187
REMARK  13 active torsions:
REMARK  status: ('A' for Active; 'I' for Inactive)
REMARK    1  A    between atoms: O_1  and  C_32
REMARK    2  A    between atoms: O_1  and  C_33
REMARK    3  A    between atoms: N_3  and  C_12
REMARK    4  A    between atoms: N_3  and  C_16
REMARK    5  A    between atoms: N_4  and  C_25
REMARK    6  A    between atoms: C_7  and  C_11
REMARK    7  A    between atoms: C_8  and  C_12
REMARK    8  A    between atoms: C_10  and  C_15
REMARK    9  A    between atoms: C_11  and  C_17
REMARK   10  A    between atoms: C_11  and  C_18
REMARK   11  A    between atoms: C_13  and  C_21
REMARK   12  A    between atoms: C_15  and  C_24
REMARK   13  A    between atoms: C_30  and  C_32
REMARK                            x       y       z     vdW  Elec       q    Type
REMARK                         _______ _______ _______ _____ _____    ______ ____
ROOT
ATOM      7  C   UNL     1      -3.319 -12.284  13.207  0.00  0.00    +0.000 C 
ATOM      8  C   UNL     1      -2.329 -11.417  14.019  0.00  0.00    +0.029 C 
ATOM      9  C   UNL     1      -4.118 -11.415  12.227  0.00  0.00    +0.012 C 
ATOM     10  C   UNL     1      -3.226 -10.610  11.256  0.00  0.00    +0.022 C 
ATOM     13  C   UNL     1      -1.979 -10.049  11.921  0.00  0.00    -0.073 C 
ATOM     14  C   UNL     1      -1.601 -10.413  13.161  0.00  0.00    -0.023 C 
ATOM     21  C   UNL     1      -1.129  -9.102  11.118  0.00  0.00    +0.039 C 
ENDROOT
BRANCH   7  11
ATOM     11  C   UNL     1      -2.596 -13.423  12.476  0.00  0.00    -0.013 C 
ATOM     17  C   UNL     1      -1.692 -14.186  13.440  0.00  0.00    +0.007 C 
ATOM     18  C   UNL     1      -3.605 -14.363  11.825  0.00  0.00    +0.007 C 
ENDBRANCH   7  11
BRANCH   8  12
ATOM     12  C   UNL     1      -3.030 -10.684  15.167  0.00  0.00    +0.089 C 
BRANCH  12   3
ATOM      3  N   UNL     1      -2.953 -11.458  16.393  0.00  0.00    -0.313 NA
ATOM     34  H   UNL     1      -2.089 -11.223  16.879  0.00  0.00    +0.122 HD
BRANCH   3  16
ATOM      4  N   UNL     1      -6.961 -11.450  17.812  0.00  0.00    -0.305 NA
ATOM     16  C   UNL     1      -4.098 -11.187  17.259  0.00  0.00    +0.056 C 
ATOM     19  C   UNL     1      -5.152 -10.349  16.530  0.00  0.00    +0.034 C 
ATOM     20  C   UNL     1      -4.719 -12.499  17.744  0.00  0.00    +0.034 C 
ATOM     22  C   UNL     1      -6.398 -10.156  17.397  0.00  0.00    +0.085 C 
ATOM     23  C   UNL     1      -5.980 -12.237  18.573  0.00  0.00    +0.085 C 
ATOM     25  C   UNL     1      -8.177 -11.251  18.597  0.00  0.00    +0.104 C 
ENDBRANCH   3  16
ENDBRANCH  12   3
ENDBRANCH   8  12
BRANCH  10  15
ATOM     15  C   UNL     1      -4.083  -9.528  10.587  0.00  0.00    +0.082 C 
BRANCH  15  24
ATOM      5  N   UNL     1      -5.402  -9.188   8.488  0.00  0.00    -0.342 N 
ATOM      6  N   UNL     1      -4.223 -11.069   8.601  0.00  0.00    -0.232 NA
ATOM     24  C   UNL     1      -4.549  -9.960   9.227  0.00  0.00    +0.109 A 
ATOM     26  C   UNL     1      -5.642  -9.842   7.306  0.00  0.00    +0.067 A 
ATOM     27  C   UNL     1      -4.896 -11.013   7.401  0.00  0.00    +0.089 A 
ATOM     28  C   UNL     1      -6.424  -9.519   6.198  0.00  0.00    +0.042 A 
ATOM     29  C   UNL     1      -4.919 -11.928   6.336  0.00  0.00    +0.030 A 
ATOM     30  C   UNL     1      -6.437 -10.441   5.146  0.00  0.00    +0.061 A 
ATOM     31  C   UNL     1      -5.698 -11.625   5.211  0.00  0.00    +0.017 A 
ATOM     35  H   UNL     1      -5.787  -8.293   8.760  0.00  0.00    +0.167 HD
BRANCH  30  32
ATOM      2  O   UNL     1      -7.178 -10.810   2.910  0.00  0.00    -0.245 OA
ATOM     32  C   UNL     1      -7.235 -10.160   3.962  0.00  0.00    +0.339 C 
BRANCH  32   1
ATOM      1  O   UNL     1      -8.058  -9.085   4.156  0.00  0.00    -0.464 OA
ATOM     33  C   UNL     1      -9.065  -8.857   3.164  0.00  0.00    +0.280 C 
ENDBRANCH  32   1
ENDBRANCH  30  32
ENDBRANCH  15  24
ENDBRANCH  10  15
TORSDOF 8
ENDMDL
MODEL 9
REMARK VINA RESULT:      -6.7     28.555     32.204
REMARK  Name = 71693187
REMARK  13 active torsions:
REMARK  status: ('A' for Active; 'I' for Inactive)
REMARK    1  A    between atoms: O_1  and  C_32
REMARK    2  A    between atoms: O_1  and  C_33
REMARK    3  A    between atoms: N_3  and  C_12
REMARK    4  A    between atoms: N_3  and  C_16
REMARK    5  A    between atoms: N_4  and  C_25
REMARK    6  A    between atoms: C_7  and  C_11
REMARK    7  A    between atoms: C_8  and  C_12
REMARK    8  A    between atoms: C_10  and  C_15
REMARK    9  A    between atoms: C_11  and  C_17
REMARK   10  A    between atoms: C_11  and  C_18
REMARK   11  A    between atoms: C_13  and  C_21
REMARK   12  A    between atoms: C_15  and  C_24
REMARK   13  A    between atoms: C_30  and  C_32
REMARK                            x       y       z     vdW  Elec       q    Type
REMARK                         _______ _______ _______ _____ _____    ______ ____
ROOT
ATOM      7  C   UNL     1       9.317   9.412   4.992  0.00  0.00    +0.000 C 
ATOM      8  C   UNL     1       9.565   9.935   6.426  0.00  0.00    +0.029 C 
ATOM      9  C   UNL     1       9.983   8.042   4.796  0.00  0.00    +0.012 C 
ATOM     10  C   UNL     1       9.514   6.983   5.818  0.00  0.00    +0.022 C 
ATOM     13  C   UNL     1       9.338   7.546   7.220  0.00  0.00    -0.073 C 
ATOM     14  C   UNL     1       9.376   8.867   7.473  0.00  0.00    -0.023 C 
ATOM     21  C   UNL     1       9.057   6.570   8.330  0.00  0.00    +0.039 C 
ENDROOT
BRANCH   7  11
ATOM     11  C   UNL     1       7.818   9.351   4.670  0.00  0.00    -0.013 C 
ATOM     17  C   UNL     1       7.195  10.740   4.773  0.00  0.00    +0.007 C 
ATOM     18  C   UNL     1       7.596   8.762   3.280  0.00  0.00    +0.007 C 
ENDBRANCH   7  11
BRANCH   8  12
ATOM     12  C   UNL     1      10.964  10.542   6.572  0.00  0.00    +0.089 C 
BRANCH  12   3
ATOM      3  N   UNL     1      11.750   9.793   7.537  0.00  0.00    -0.313 NA
ATOM     34  H   UNL     1      11.199   9.002   7.869  0.00  0.00    +0.122 HD
BRANCH   3  16
ATOM      4  N   UNL     1      14.367   7.695   4.925  0.00  0.00    -0.305 NA
ATOM     16  C   UNL     1      12.996   9.314   6.942  0.00  0.00    +0.056 C 
ATOM     19  C   UNL     1      13.107   7.790   7.054  0.00  0.00    +0.034 C 
ATOM     20  C   UNL     1      13.078   9.736   5.472  0.00  0.00    +0.034 C 
ATOM     22  C   UNL     1      14.357   7.276   6.335  0.00  0.00    +0.085 C 
ATOM     23  C   UNL     1      14.330   9.159   4.805  0.00  0.00    +0.085 C 
ATOM     25  C   UNL     1      15.541   7.155   4.241  0.00  0.00    +0.104 C 
ENDBRANCH   3  16
ENDBRANCH  12   3
ENDBRANCH   8  12
BRANCH  10  15
ATOM     15  C   UNL     1      10.481   5.794   5.770  0.00  0.00    +0.082 C 
BRANCH  15  24
ATOM      5  N   UNL     1      12.090   5.821   3.853  0.00  0.00    -0.342 N 
ATOM      6  N   UNL     1      10.142   4.820   3.472  0.00  0.00    -0.232 NA
ATOM     24  C   UNL     1      10.871   5.461   4.358  0.00  0.00    +0.109 A 
ATOM     26  C   UNL     1      12.151   5.383   2.555  0.00  0.00    +0.067 A 
ATOM     27  C   UNL     1      10.924   4.762   2.341  0.00  0.00    +0.089 A 
ATOM     28  C   UNL     1      13.144   5.474   1.580  0.00  0.00    +0.042 A 
ATOM     29  C   UNL     1      10.654   4.192   1.085  0.00  0.00    +0.030 A 
ATOM     30  C   UNL     1      12.859   4.902   0.335  0.00  0.00    +0.061 A 
ATOM     31  C   UNL     1      11.637   4.272   0.090  0.00  0.00    +0.017 A 
ATOM     35  H   UNL     1      12.819   6.319   4.346  0.00  0.00    +0.167 HD
BRANCH  30  32
ATOM      2  O   UNL     1      13.929   5.873  -1.561  0.00  0.00    -0.245 OA
ATOM     32  C   UNL     1      13.857   4.966  -0.723  0.00  0.00    +0.339 C 
BRANCH  32   1
ATOM      1  O   UNL     1      14.707   3.896  -0.675  0.00  0.00    -0.464 OA
ATOM     33  C   UNL     1      16.075   4.174  -0.358  0.00  0.00    +0.280 C 
ENDBRANCH  32   1
ENDBRANCH  30  32
ENDBRANCH  15  24
ENDBRANCH  10  15
TORSDOF 8
ENDMDL
MODEL 10
REMARK VINA RESULT:      -6.6     28.800     32.338
REMARK  Name = 71693187
REMARK  13 active torsions:
REMARK  status: ('A' for Active; 'I' for Inactive)
REMARK    1  A    between atoms: O_1  and  C_32
REMARK    2  A    between atoms: O_1  and  C_33
REMARK    3  A    between atoms: N_3  and  C_12
REMARK    4  A    between atoms: N_3  and  C_16
REMARK    5  A    between atoms: N_4  and  C_25
REMARK    6  A    between atoms: C_7  and  C_11
REMARK    7  A    between atoms: C_8  and  C_12
REMARK    8  A    between atoms: C_10  and  C_15
REMARK    9  A    between atoms: C_11  and  C_17
REMARK   10  A    between atoms: C_11  and  C_18
REMARK   11  A    between atoms: C_13  and  C_21
REMARK   12  A    between atoms: C_15  and  C_24
REMARK   13  A    between atoms: C_30  and  C_32
REMARK                            x       y       z     vdW  Elec       q    Type
REMARK                         _______ _______ _______ _____ _____    ______ ____
ROOT
ATOM      7  C   UNL     1       8.885   8.909   4.064  0.00  0.00    +0.000 C 
ATOM      8  C   UNL     1       8.341   8.550   5.467  0.00  0.00    +0.029 C 
ATOM      9  C   UNL     1      10.165   8.116   3.764  0.00  0.00    +0.012 C 
ATOM     10  C   UNL     1       9.975   6.587   3.864  0.00  0.00    +0.022 C 
ATOM     13  C   UNL     1       9.083   6.173   5.025  0.00  0.00    -0.073 C 
ATOM     14  C   UNL     1       8.371   7.067   5.736  0.00  0.00    -0.023 C 
ATOM     21  C   UNL     1       8.972   4.703   5.326  0.00  0.00    +0.039 C 
ENDROOT
BRANCH   7  11
ATOM     11  C   UNL     1       7.825   8.684   2.979  0.00  0.00    -0.013 C 
ATOM     17  C   UNL     1       6.613   9.577   3.224  0.00  0.00    +0.007 C 
ATOM     18  C   UNL     1       8.416   8.942   1.596  0.00  0.00    +0.007 C 
ENDBRANCH   7  11
BRANCH   8  12
ATOM     12  C   UNL     1       9.109   9.278   6.574  0.00  0.00    +0.089 C 
BRANCH  12   3
ATOM      3  N   UNL     1       9.588   8.336   7.571  0.00  0.00    -0.313 NA
ATOM     34  H   UNL     1       9.246   7.405   7.337  0.00  0.00    +0.122 HD
BRANCH   3  16
ATOM      4  N   UNL     1      13.621   7.943   6.286  0.00  0.00    -0.305 NA
ATOM     16  C   UNL     1      11.048   8.328   7.628  0.00  0.00    +0.056 C 
ATOM     19  C   UNL     1      11.602   6.937   7.305  0.00  0.00    +0.034 C 
ATOM     20  C   UNL     1      11.622   9.357   6.651  0.00  0.00    +0.034 C 
ATOM     22  C   UNL     1      13.132   6.952   7.256  0.00  0.00    +0.085 C 
ATOM     23  C   UNL     1      13.152   9.295   6.624  0.00  0.00    +0.085 C 
ATOM     25  C   UNL     1      15.081   7.912   6.215  0.00  0.00    +0.104 C 
ENDBRANCH   3  16
ENDBRANCH  12   3
ENDBRANCH   8  12
BRANCH  10  15
ATOM     15  C   UNL     1      11.357   5.923   3.907  0.00  0.00    +0.082 C 
BRANCH  15  24
ATOM      5  N   UNL     1      10.742   5.098   1.627  0.00  0.00    -0.342 N 
ATOM      6  N   UNL     1      12.850   4.762   2.245  0.00  0.00    -0.232 NA
ATOM     24  C   UNL     1      11.686   5.255   2.603  0.00  0.00    +0.109 A 
ATOM     26  C   UNL     1      11.337   4.461   0.568  0.00  0.00    +0.067 A 
ATOM     27  C   UNL     1      12.652   4.262   0.978  0.00  0.00    +0.089 A 
ATOM     28  C   UNL     1      10.852   4.054  -0.675  0.00  0.00    +0.042 A 
ATOM     29  C   UNL     1      13.551   3.620   0.110  0.00  0.00    +0.030 A 
ATOM     30  C   UNL     1      11.760   3.417  -1.527  0.00  0.00    +0.061 A 
ATOM     31  C   UNL     1      13.087   3.203  -1.144  0.00  0.00    +0.017 A 
ATOM     35  H   UNL     1       9.777   5.397   1.672  0.00  0.00    +0.167 HD
BRANCH  30  32
ATOM      2  O   UNL     1      11.919   3.187  -3.895  0.00  0.00    -0.245 OA
ATOM     32  C   UNL     1      11.313   2.969  -2.838  0.00  0.00    +0.339 C 
BRANCH  32   1
ATOM      1  O   UNL     1      10.137   2.276  -2.757  0.00  0.00    -0.464 OA
ATOM     33  C   UNL     1       9.418   2.080  -3.979  0.00  0.00    +0.280 C 
ENDBRANCH  32   1
ENDBRANCH  30  32
ENDBRANCH  15  24
ENDBRANCH  10  15
TORSDOF 8
ENDMDL
