REMARK  Name = 40779521
REMARK  10 active torsions:
REMARK  status: ('A' for Active; 'I' for Inactive)
REMARK    1  A    between atoms: O_2  and  C_27
REMARK    2  A    between atoms: O_2  and  C_30
REMARK    3  A    between atoms: O_3  and  C_29
REMARK    4  A    between atoms: O_3  and  C_31
REMARK    5  A    between atoms: N_5  and  C_15
REMARK    6  A    between atoms: N_6  and  C_23
REMARK    7  A    between atoms: C_9  and  C_16
REMARK    8  A    between atoms: C_10  and  C_15
REMARK    9  A    between atoms: C_17  and  C_21
REMARK   10  A    between atoms: C_22  and  C_24
REMARK                            x       y       z     vdW  Elec       q    Type
REMARK                         _______ _______ _______ _____ _____    ______ ____
ROOT
ATOM      4  N   UNL     1      -4.293  -1.291   0.737  0.00  0.00    -0.297 NA
ATOM      8  C   UNL     1      -2.877  -1.469  -1.441  0.00  0.00    +0.002 C 
ATOM      9  C   UNL     1      -2.234  -2.311  -0.305  0.00  0.00    +0.055 C 
ATOM     10  C   UNL     1      -4.024   0.066   0.194  0.00  0.00    +0.074 C 
ATOM     11  C   UNL     1      -3.017  -0.005  -0.975  0.00  0.00    +0.024 C 
ATOM     12  C   UNL     1      -4.305  -2.018  -1.649  0.00  0.00    +0.019 C 
ATOM     13  C   UNL     1      -3.014  -1.995   1.004  0.00  0.00    +0.094 C 
ATOM     14  C   UNL     1      -5.035  -2.054  -0.294  0.00  0.00    +0.085 C 
ENDROOT
BRANCH   9  16
ATOM      6  N   UNL     1       0.022  -3.264   0.362  0.00  0.00    -0.270 N 
ATOM      7  N   UNL     1       1.333  -2.987   0.458  0.00  0.00    -0.171 NA
ATOM     16  C   UNL     1      -0.726  -2.227  -0.113  0.00  0.00    +0.044 A 
ATOM     20  C   UNL     1       0.157  -1.201  -0.343  0.00  0.00    +0.053 A 
ATOM     22  C   UNL     1       1.410  -1.726   0.026  0.00  0.00    +0.093 A 
ATOM     23  C   UNL     1      -0.455  -4.570   0.754  0.00  0.00    +0.172 C 
BRANCH  22  24
ATOM     24  C   UNL     1       2.678  -1.046  -0.025  0.00  0.00    +0.006 A 
ATOM     25  C   UNL     1       2.734   0.338   0.144  0.00  0.00    +0.059 A 
ATOM     26  C   UNL     1       3.850  -1.770  -0.244  0.00  0.00    +0.014 A 
ATOM     27  C   UNL     1       3.962   0.997   0.094  0.00  0.00    +0.162 A 
ATOM     28  C   UNL     1       5.078  -1.110  -0.294  0.00  0.00    +0.050 A 
ATOM     29  C   UNL     1       5.134   0.273  -0.125  0.00  0.00    +0.162 A 
BRANCH  27   2
ATOM      2  O   UNL     1       4.005   2.349   0.261  0.00  0.00    -0.491 OA
ATOM     30  C   UNL     1       2.763   3.014   0.481  0.00  0.00    +0.277 C 
ENDBRANCH  27   2
BRANCH  29   3
ATOM      3  O   UNL     1       6.340   0.906  -0.175  0.00  0.00    -0.491 OA
ATOM     31  C   UNL     1       7.489   0.093  -0.404  0.00  0.00    +0.277 C 
ENDBRANCH  29   3
ENDBRANCH  22  24
ENDBRANCH   9  16
BRANCH  10  15
ATOM     15  C   UNL     1      -3.572   1.048   1.277  0.00  0.00    +0.123 C 
BRANCH  15   5
ATOM      1  O   UNL     1      -1.172   2.689   1.203  0.00  0.00    -0.276 OA
ATOM      5  N   UNL     1      -3.434   2.369   0.743  0.00  0.00    -0.314 N 
ATOM     21  C   UNL     1      -2.241   3.081   0.750  0.00  0.00    +0.216 C 
ATOM     32  H   UNL     1      -4.267   2.817   0.372  0.00  0.00    +0.149 HD
BRANCH  21  17
ATOM     17  C   UNL     1      -2.327   4.440   0.139  0.00  0.00    +0.075 C 
ATOM     18  C   UNL     1      -1.387   4.801  -0.974  0.00  0.00    +0.013 C 
ATOM     19  C   UNL     1      -2.843   4.578  -1.264  0.00  0.00    +0.013 C 
ENDBRANCH  21  17
ENDBRANCH  15   5
ENDBRANCH  10  15
TORSDOF 7
