MODEL 1
REMARK VINA RESULT:      -7.1      0.000      0.000
REMARK  Name = 45783492
REMARK  10 active torsions:
REMARK  status: ('A' for Active; 'I' for Inactive)
REMARK    1  A    between atoms: O_2  and  C_28
REMARK    2  A    between atoms: O_2  and  C_29
REMARK    3  A    between atoms: N_3  and  C_12
REMARK    4  A    between atoms: N_7  and  C_26
REMARK    5  A    between atoms: N_7  and  C_27
REMARK    6  A    between atoms: C_8  and  C_13
REMARK    7  A    between atoms: C_12  and  C_14
REMARK    8  A    between atoms: C_15  and  C_19
REMARK    9  A    between atoms: C_17  and  C_22
REMARK   10  A    between atoms: C_27  and  C_28
REMARK                            x       y       z     vdW  Elec       q    Type
REMARK                         _______ _______ _______ _____ _____    ______ ____
ROOT
ATOM      1  O   UNL     1     -17.321   2.380  22.155  0.00  0.00    -0.336 OA
ATOM      4  N   UNL     1     -17.183   3.941  23.756  0.00  0.00    -0.190 NA
ATOM      5  N   UNL     1     -17.031   1.696  23.343  0.00  0.00    -0.056 NA
ATOM     13  C   UNL     1     -17.393   3.695  22.486  0.00  0.00    +0.245 A 
ATOM     17  C   UNL     1     -16.964   2.684  24.240  0.00  0.00    +0.204 A 
ENDROOT
BRANCH  17  22
ATOM      6  N   UNL     1     -16.539   0.894  27.471  0.00  0.00    -0.240 NA
ATOM     22  C   UNL     1     -16.682   2.450  25.626  0.00  0.00    +0.041 A 
ATOM     23  C   UNL     1     -16.290   3.490  26.464  0.00  0.00    +0.016 A 
ATOM     24  C   UNL     1     -16.790   1.182  26.175  0.00  0.00    +0.124 A 
ATOM     25  C   UNL     1     -16.023   3.232  27.804  0.00  0.00    +0.044 A 
ATOM     26  C   UNL     1     -16.161   1.930  28.254  0.00  0.00    +0.119 A 
BRANCH  26   7
ATOM      7  N   UNL     1     -15.884   1.683  29.622  0.00  0.00    -0.327 N 
ATOM     30  H   UNL     1     -16.613   1.932  30.282  0.00  0.00    +0.148 HD
BRANCH   7  27
ATOM     27  C   UNL     1     -14.653   1.121  30.069  0.00  0.00    +0.131 C 
BRANCH  27  28
ATOM     28  C   UNL     1     -14.908  -0.209  30.759  0.00  0.00    +0.178 C 
BRANCH  28   2
ATOM      2  O   UNL     1     -14.559  -1.272  29.882  0.00  0.00    -0.381 OA
ATOM     29  C   UNL     1     -13.287  -1.059  29.285  0.00  0.00    +0.194 C 
ENDBRANCH  28   2
ENDBRANCH  27  28
ENDBRANCH   7  27
ENDBRANCH  26   7
ENDBRANCH  17  22
BRANCH  13   8
ATOM      3  N   UNL     1     -16.483   5.190  20.718  0.00  0.00    -0.287 NA
ATOM      8  C   UNL     1     -17.701   4.659  21.360  0.00  0.00    +0.146 C 
ATOM      9  C   UNL     1     -18.493   4.001  20.214  0.00  0.00    +0.030 C 
ATOM     10  C   UNL     1     -17.671   4.267  18.961  0.00  0.00    +0.017 C 
ATOM     11  C   UNL     1     -16.840   5.478  19.328  0.00  0.00    +0.085 C 
BRANCH   3  12
ATOM     12  C   UNL     1     -15.937   6.358  21.397  0.00  0.00    +0.120 C 
BRANCH  12  14
ATOM     14  C   UNL     1     -14.491   6.588  21.045  0.00  0.00    -0.030 A 
ATOM     15  C   UNL     1     -13.473   5.922  21.727  0.00  0.00    -0.046 A 
ATOM     16  C   UNL     1     -14.178   7.484  20.023  0.00  0.00    +0.005 A 
ATOM     18  C   UNL     1     -12.140   6.149  21.384  0.00  0.00    +0.003 A 
ATOM     19  C   UNL     1     -13.784   4.959  22.825  0.00  0.00    +0.044 C 
ATOM     20  C   UNL     1     -12.845   7.711  19.681  0.00  0.00    +0.000 A 
ATOM     21  C   UNL     1     -11.826   7.044  20.361  0.00  0.00    +0.000 A 
ENDBRANCH  12  14
ENDBRANCH   3  12
ENDBRANCH  13   8
TORSDOF 8
ENDMDL
MODEL 2
REMARK VINA RESULT:      -6.5     17.794     19.112
REMARK  Name = 45783492
REMARK  10 active torsions:
REMARK  status: ('A' for Active; 'I' for Inactive)
REMARK    1  A    between atoms: O_2  and  C_28
REMARK    2  A    between atoms: O_2  and  C_29
REMARK    3  A    between atoms: N_3  and  C_12
REMARK    4  A    between atoms: N_7  and  C_26
REMARK    5  A    between atoms: N_7  and  C_27
REMARK    6  A    between atoms: C_8  and  C_13
REMARK    7  A    between atoms: C_12  and  C_14
REMARK    8  A    between atoms: C_15  and  C_19
REMARK    9  A    between atoms: C_17  and  C_22
REMARK   10  A    between atoms: C_27  and  C_28
REMARK                            x       y       z     vdW  Elec       q    Type
REMARK                         _______ _______ _______ _____ _____    ______ ____
ROOT
ATOM      1  O   UNL     1      -5.301  -9.494  15.912  0.00  0.00    -0.336 OA
ATOM      4  N   UNL     1      -5.685 -11.379  17.060  0.00  0.00    -0.190 NA
ATOM      5  N   UNL     1      -6.495  -9.287  16.614  0.00  0.00    -0.056 NA
ATOM     13  C   UNL     1      -4.890 -10.750  16.231  0.00  0.00    +0.245 A 
ATOM     17  C   UNL     1      -6.655 -10.442  17.266  0.00  0.00    +0.204 A 
ENDROOT
BRANCH  17  22
ATOM      6  N   UNL     1      -8.684 -11.855  20.043  0.00  0.00    -0.240 NA
ATOM     22  C   UNL     1      -7.772 -10.692  18.130  0.00  0.00    +0.041 A 
ATOM     23  C   UNL     1      -8.992 -10.055  17.927  0.00  0.00    +0.016 A 
ATOM     24  C   UNL     1      -7.671 -11.575  19.193  0.00  0.00    +0.124 A 
ATOM     25  C   UNL     1     -10.057 -10.317  18.781  0.00  0.00    +0.044 A 
ATOM     26  C   UNL     1      -9.854 -11.217  19.814  0.00  0.00    +0.119 A 
BRANCH  26   7
ATOM      7  N   UNL     1     -10.949 -11.473  20.676  0.00  0.00    -0.327 N 
ATOM     30  H   UNL     1     -10.933 -11.009  21.578  0.00  0.00    +0.148 HD
BRANCH   7  27
ATOM     27  C   UNL     1     -12.025 -12.338  20.318  0.00  0.00    +0.131 C 
BRANCH  27  28
ATOM     28  C   UNL     1     -13.350 -11.715  20.722  0.00  0.00    +0.178 C 
BRANCH  28   2
ATOM      2  O   UNL     1     -13.153 -10.340  21.027  0.00  0.00    -0.381 OA
ATOM     29  C   UNL     1     -14.248  -9.547  20.589  0.00  0.00    +0.194 C 
ENDBRANCH  28   2
ENDBRANCH  27  28
ENDBRANCH   7  27
ENDBRANCH  26   7
ENDBRANCH  17  22
BRANCH  13   8
ATOM      3  N   UNL     1      -3.333 -10.560  14.300  0.00  0.00    -0.287 NA
ATOM      8  C   UNL     1      -3.601 -11.221  15.592  0.00  0.00    +0.146 C 
ATOM      9  C   UNL     1      -2.362 -10.911  16.454  0.00  0.00    +0.030 C 
ATOM     10  C   UNL     1      -1.430 -10.126  15.543  0.00  0.00    +0.017 C 
ATOM     11  C   UNL     1      -1.878 -10.519  14.150  0.00  0.00    +0.085 C 
BRANCH   3  12
ATOM     12  C   UNL     1      -3.982 -11.216  13.173  0.00  0.00    +0.120 C 
BRANCH  12  14
ATOM     14  C   UNL     1      -4.179 -10.277  12.013  0.00  0.00    -0.030 A 
ATOM     15  C   UNL     1      -5.375  -9.578  11.851  0.00  0.00    -0.046 A 
ATOM     16  C   UNL     1      -3.144 -10.111  11.092  0.00  0.00    +0.005 A 
ATOM     18  C   UNL     1      -5.536  -8.712  10.769  0.00  0.00    +0.003 A 
ATOM     19  C   UNL     1      -6.498  -9.739  12.822  0.00  0.00    +0.044 C 
ATOM     20  C   UNL     1      -3.305  -9.246  10.011  0.00  0.00    +0.000 A 
ATOM     21  C   UNL     1      -4.501  -8.546   9.849  0.00  0.00    +0.000 A 
ENDBRANCH  12  14
ENDBRANCH   3  12
ENDBRANCH  13   8
TORSDOF 8
ENDMDL
MODEL 3
REMARK VINA RESULT:      -6.4     18.400     19.753
REMARK  Name = 45783492
REMARK  10 active torsions:
REMARK  status: ('A' for Active; 'I' for Inactive)
REMARK    1  A    between atoms: O_2  and  C_28
REMARK    2  A    between atoms: O_2  and  C_29
REMARK    3  A    between atoms: N_3  and  C_12
REMARK    4  A    between atoms: N_7  and  C_26
REMARK    5  A    between atoms: N_7  and  C_27
REMARK    6  A    between atoms: C_8  and  C_13
REMARK    7  A    between atoms: C_12  and  C_14
REMARK    8  A    between atoms: C_15  and  C_19
REMARK    9  A    between atoms: C_17  and  C_22
REMARK   10  A    between atoms: C_27  and  C_28
REMARK                            x       y       z     vdW  Elec       q    Type
REMARK                         _______ _______ _______ _____ _____    ______ ____
ROOT
ATOM      1  O   UNL     1      -4.241 -13.241  15.781  0.00  0.00    -0.336 OA
ATOM      4  N   UNL     1      -4.630 -11.137  16.444  0.00  0.00    -0.190 NA
ATOM      5  N   UNL     1      -5.414 -13.284  16.545  0.00  0.00    -0.056 NA
ATOM     13  C   UNL     1      -3.845 -11.941  15.772  0.00  0.00    +0.245 A 
ATOM     17  C   UNL     1      -5.578 -12.007  16.901  0.00  0.00    +0.204 A 
ENDROOT
BRANCH  17  22
ATOM      6  N   UNL     1      -7.721 -11.450  19.889  0.00  0.00    -0.240 NA
ATOM     22  C   UNL     1      -6.676 -11.566  17.711  0.00  0.00    +0.041 A 
ATOM     23  C   UNL     1      -7.736 -10.855  17.157  0.00  0.00    +0.016 A 
ATOM     24  C   UNL     1      -6.717 -11.835  19.069  0.00  0.00    +0.124 A 
ATOM     25  C   UNL     1      -8.787 -10.441  17.967  0.00  0.00    +0.044 A 
ATOM     26  C   UNL     1      -8.732 -10.760  19.314  0.00  0.00    +0.119 A 
BRANCH  26   7
ATOM      7  N   UNL     1      -9.811 -10.331  20.127  0.00  0.00    -0.327 N 
ATOM     30  H   UNL     1      -9.616  -9.576  20.775  0.00  0.00    +0.148 HD
BRANCH   7  27
ATOM     27  C   UNL     1     -11.108 -10.919  20.058  0.00  0.00    +0.131 C 
BRANCH  27  28
ATOM     28  C   UNL     1     -12.123  -9.886  19.598  0.00  0.00    +0.178 C 
BRANCH  28   2
ATOM      2  O   UNL     1     -12.981  -9.549  20.680  0.00  0.00    -0.381 OA
ATOM     29  C   UNL     1     -13.905 -10.593  20.957  0.00  0.00    +0.194 C 
ENDBRANCH  28   2
ENDBRANCH  27  28
ENDBRANCH   7  27
ENDBRANCH  26   7
ENDBRANCH  17  22
BRANCH  13   8
ATOM      3  N   UNL     1      -2.811 -10.660  13.907  0.00  0.00    -0.287 NA
ATOM      8  C   UNL     1      -2.582 -11.626  14.999  0.00  0.00    +0.146 C 
ATOM      9  C   UNL     1      -1.496 -10.974  15.876  0.00  0.00    +0.030 C 
ATOM     10  C   UNL     1      -1.136  -9.678  15.164  0.00  0.00    +0.017 C 
ATOM     11  C   UNL     1      -1.556  -9.929  13.731  0.00  0.00    +0.085 C 
BRANCH   3  12
ATOM     12  C   UNL     1      -3.259 -11.287  12.670  0.00  0.00    +0.120 C 
BRANCH  12  14
ATOM     14  C   UNL     1      -3.857 -10.285  11.718  0.00  0.00    -0.030 A 
ATOM     15  C   UNL     1      -5.110  -9.722  11.963  0.00  0.00    -0.046 A 
ATOM     16  C   UNL     1      -3.141  -9.925  10.577  0.00  0.00    +0.005 A 
ATOM     18  C   UNL     1      -5.644  -8.796  11.067  0.00  0.00    +0.003 A 
ATOM     19  C   UNL     1      -5.896 -10.094  13.177  0.00  0.00    +0.044 C 
ATOM     20  C   UNL     1      -3.676  -8.999   9.682  0.00  0.00    +0.000 A 
ATOM     21  C   UNL     1      -4.928  -8.435   9.926  0.00  0.00    +0.000 A 
ENDBRANCH  12  14
ENDBRANCH   3  12
ENDBRANCH  13   8
TORSDOF 8
ENDMDL
MODEL 4
REMARK VINA RESULT:      -6.3     33.303     36.532
REMARK  Name = 45783492
REMARK  10 active torsions:
REMARK  status: ('A' for Active; 'I' for Inactive)
REMARK    1  A    between atoms: O_2  and  C_28
REMARK    2  A    between atoms: O_2  and  C_29
REMARK    3  A    between atoms: N_3  and  C_12
REMARK    4  A    between atoms: N_7  and  C_26
REMARK    5  A    between atoms: N_7  and  C_27
REMARK    6  A    between atoms: C_8  and  C_13
REMARK    7  A    between atoms: C_12  and  C_14
REMARK    8  A    between atoms: C_15  and  C_19
REMARK    9  A    between atoms: C_17  and  C_22
REMARK   10  A    between atoms: C_27  and  C_28
REMARK                            x       y       z     vdW  Elec       q    Type
REMARK                         _______ _______ _______ _____ _____    ______ ____
ROOT
ATOM      1  O   UNL     1      21.426   5.158  21.082  0.00  0.00    -0.336 OA
ATOM      4  N   UNL     1      19.830   6.364  22.090  0.00  0.00    -0.190 NA
ATOM      5  N   UNL     1      20.355   5.216  20.182  0.00  0.00    -0.056 NA
ATOM     13  C   UNL     1      21.035   5.859  22.179  0.00  0.00    +0.245 A 
ATOM     17  C   UNL     1      19.453   5.943  20.848  0.00  0.00    +0.204 A 
ENDROOT
BRANCH  17  22
ATOM      6  N   UNL     1      16.499   5.900  18.589  0.00  0.00    -0.240 NA
ATOM     22  C   UNL     1      18.167   6.265  20.302  0.00  0.00    +0.041 A 
ATOM     23  C   UNL     1      17.348   7.213  20.906  0.00  0.00    +0.016 A 
ATOM     24  C   UNL     1      17.699   5.642  19.155  0.00  0.00    +0.124 A 
ATOM     25  C   UNL     1      16.106   7.505  20.354  0.00  0.00    +0.044 A 
ATOM     26  C   UNL     1      15.731   6.827  19.206  0.00  0.00    +0.119 A 
BRANCH  26   7
ATOM      7  N   UNL     1      14.462   7.135  18.655  0.00  0.00    -0.327 N 
ATOM     30  H   UNL     1      14.262   6.750  17.738  0.00  0.00    +0.148 HD
BRANCH   7  27
ATOM     27  C   UNL     1      13.505   7.944  19.333  0.00  0.00    +0.131 C 
BRANCH  27  28
ATOM     28  C   UNL     1      12.265   7.126  19.652  0.00  0.00    +0.178 C 
BRANCH  28   2
ATOM      2  O   UNL     1      11.920   7.302  21.020  0.00  0.00    -0.381 OA
ATOM     29  C   UNL     1      11.313   6.136  21.559  0.00  0.00    +0.194 C 
ENDBRANCH  28   2
ENDBRANCH  27  28
ENDBRANCH   7  27
ENDBRANCH  26   7
ENDBRANCH  17  22
BRANCH  13   8
ATOM      3  N   UNL     1      23.131   4.971  23.183  0.00  0.00    -0.287 NA
ATOM      8  C   UNL     1      22.032   5.949  23.314  0.00  0.00    +0.146 C 
ATOM      9  C   UNL     1      22.734   7.318  23.382  0.00  0.00    +0.030 C 
ATOM     10  C   UNL     1      24.222   7.005  23.345  0.00  0.00    +0.017 C 
ATOM     11  C   UNL     1      24.298   5.572  23.830  0.00  0.00    +0.085 C 
BRANCH   3  12
ATOM     12  C   UNL     1      22.807   3.664  23.740  0.00  0.00    +0.120 C 
BRANCH  12  14
ATOM     14  C   UNL     1      23.560   2.558  23.051  0.00  0.00    -0.030 A 
ATOM     15  C   UNL     1      24.223   1.575  23.786  0.00  0.00    -0.046 A 
ATOM     16  C   UNL     1      23.591   2.526  21.657  0.00  0.00    +0.005 A 
ATOM     18  C   UNL     1      24.914   0.559  23.127  0.00  0.00    +0.003 A 
ATOM     19  C   UNL     1      24.205   1.588  25.280  0.00  0.00    +0.044 C 
ATOM     20  C   UNL     1      24.282   1.510  20.998  0.00  0.00    +0.000 A 
ATOM     21  C   UNL     1      24.945   0.527  21.733  0.00  0.00    +0.000 A 
ENDBRANCH  12  14
ENDBRANCH   3  12
ENDBRANCH  13   8
TORSDOF 8
ENDMDL
MODEL 5
REMARK VINA RESULT:      -6.2     30.621     33.697
REMARK  Name = 45783492
REMARK  10 active torsions:
REMARK  status: ('A' for Active; 'I' for Inactive)
REMARK    1  A    between atoms: O_2  and  C_28
REMARK    2  A    between atoms: O_2  and  C_29
REMARK    3  A    between atoms: N_3  and  C_12
REMARK    4  A    between atoms: N_7  and  C_26
REMARK    5  A    between atoms: N_7  and  C_27
REMARK    6  A    between atoms: C_8  and  C_13
REMARK    7  A    between atoms: C_12  and  C_14
REMARK    8  A    between atoms: C_15  and  C_19
REMARK    9  A    between atoms: C_17  and  C_22
REMARK   10  A    between atoms: C_27  and  C_28
REMARK                            x       y       z     vdW  Elec       q    Type
REMARK                         _______ _______ _______ _____ _____    ______ ____
ROOT
ATOM      1  O   UNL     1      16.469   8.348  20.395  0.00  0.00    -0.336 OA
ATOM      4  N   UNL     1      17.005   6.217  19.958  0.00  0.00    -0.190 NA
ATOM      5  N   UNL     1      17.782   8.175  20.851  0.00  0.00    -0.056 NA
ATOM     13  C   UNL     1      16.087   7.148  19.884  0.00  0.00    +0.245 A 
ATOM     17  C   UNL     1      18.026   6.894  20.559  0.00  0.00    +0.204 A 
ENDROOT
BRANCH  17  22
ATOM      6  N   UNL     1      20.839   4.466  20.422  0.00  0.00    -0.240 NA
ATOM     22  C   UNL     1      19.278   6.261  20.855  0.00  0.00    +0.041 A 
ATOM     23  C   UNL     1      20.135   6.783  21.819  0.00  0.00    +0.016 A 
ATOM     24  C   UNL     1      19.674   5.112  20.191  0.00  0.00    +0.124 A 
ATOM     25  C   UNL     1      21.343   6.147  22.085  0.00  0.00    +0.044 A 
ATOM     26  C   UNL     1      21.646   5.003  21.365  0.00  0.00    +0.119 A 
BRANCH  26   7
ATOM      7  N   UNL     1      22.881   4.367  21.646  0.00  0.00    -0.327 N 
ATOM     30  H   UNL     1      22.875   3.353  21.655  0.00  0.00    +0.148 HD
BRANCH   7  27
ATOM     27  C   UNL     1      24.078   5.094  21.911  0.00  0.00    +0.131 C 
BRANCH  27  28
ATOM     28  C   UNL     1      24.960   5.112  20.673  0.00  0.00    +0.178 C 
BRANCH  28   2
ATOM      2  O   UNL     1      24.451   4.192  19.716  0.00  0.00    -0.381 OA
ATOM     29  C   UNL     1      25.453   3.281  19.286  0.00  0.00    +0.194 C 
ENDBRANCH  28   2
ENDBRANCH  27  28
ENDBRANCH   7  27
ENDBRANCH  26   7
ENDBRANCH  17  22
BRANCH  13   8
ATOM      3  N   UNL     1      13.778   8.076  19.904  0.00  0.00    -0.287 NA
ATOM      8  C   UNL     1      14.686   7.071  19.316  0.00  0.00    +0.146 C 
ATOM      9  C   UNL     1      14.643   7.344  17.800  0.00  0.00    +0.030 C 
ATOM     10  C   UNL     1      13.640   8.477  17.630  0.00  0.00    +0.017 C 
ATOM     11  C   UNL     1      12.785   8.388  18.877  0.00  0.00    +0.085 C 
BRANCH   3  12
ATOM     12  C   UNL     1      13.161   7.635  21.149  0.00  0.00    +0.120 C 
BRANCH  12  14
ATOM     14  C   UNL     1      12.510   8.774  21.886  0.00  0.00    -0.030 A 
ATOM     15  C   UNL     1      11.171   8.706  22.271  0.00  0.00    -0.046 A 
ATOM     16  C   UNL     1      13.265   9.909  22.182  0.00  0.00    +0.005 A 
ATOM     18  C   UNL     1      10.587   9.773  22.954  0.00  0.00    +0.003 A 
ATOM     19  C   UNL     1      10.342   7.502  21.966  0.00  0.00    +0.044 C 
ATOM     20  C   UNL     1      12.681  10.975  22.865  0.00  0.00    +0.000 A 
ATOM     21  C   UNL     1      11.342  10.908  23.251  0.00  0.00    +0.000 A 
ENDBRANCH  12  14
ENDBRANCH   3  12
ENDBRANCH  13   8
TORSDOF 8
ENDMDL
MODEL 6
REMARK VINA RESULT:      -6.1     27.290     31.307
REMARK  Name = 45783492
REMARK  10 active torsions:
REMARK  status: ('A' for Active; 'I' for Inactive)
REMARK    1  A    between atoms: O_2  and  C_28
REMARK    2  A    between atoms: O_2  and  C_29
REMARK    3  A    between atoms: N_3  and  C_12
REMARK    4  A    between atoms: N_7  and  C_26
REMARK    5  A    between atoms: N_7  and  C_27
REMARK    6  A    between atoms: C_8  and  C_13
REMARK    7  A    between atoms: C_12  and  C_14
REMARK    8  A    between atoms: C_15  and  C_19
REMARK    9  A    between atoms: C_17  and  C_22
REMARK   10  A    between atoms: C_27  and  C_28
REMARK                            x       y       z     vdW  Elec       q    Type
REMARK                         _______ _______ _______ _____ _____    ______ ____
ROOT
ATOM      1  O   UNL     1      12.201   7.084  18.701  0.00  0.00    -0.336 OA
ATOM      4  N   UNL     1      13.420   8.925  19.078  0.00  0.00    -0.190 NA
ATOM      5  N   UNL     1      12.646   7.521  17.446  0.00  0.00    -0.056 NA
ATOM     13  C   UNL     1      12.700   7.966  19.605  0.00  0.00    +0.245 A 
ATOM     17  C   UNL     1      13.356   8.610  17.752  0.00  0.00    +0.204 A 
ENDROOT
BRANCH  17  22
ATOM      6  N   UNL     1      15.020   9.553  14.562  0.00  0.00    -0.240 NA
ATOM     22  C   UNL     1      14.015   9.405  16.757  0.00  0.00    +0.041 A 
ATOM     23  C   UNL     1      14.291  10.750  16.981  0.00  0.00    +0.016 A 
ATOM     24  C   UNL     1      14.396   8.860  15.542  0.00  0.00    +0.124 A 
ATOM     25  C   UNL     1      14.931  11.496  15.998  0.00  0.00    +0.044 A 
ATOM     26  C   UNL     1      15.271  10.857  14.817  0.00  0.00    +0.119 A 
BRANCH  26   7
ATOM      7  N   UNL     1      15.922  11.630  13.824  0.00  0.00    -0.327 N 
ATOM     30  H   UNL     1      15.573  11.537  12.877  0.00  0.00    +0.148 HD
BRANCH   7  27
ATOM     27  C   UNL     1      17.016  12.497  14.118  0.00  0.00    +0.131 C 
BRANCH  27  28
ATOM     28  C   UNL     1      18.258  11.679  14.430  0.00  0.00    +0.178 C 
BRANCH  28   2
ATOM      2  O   UNL     1      19.058  12.376  15.376  0.00  0.00    -0.381 OA
ATOM     29  C   UNL     1      18.261  13.136  16.274  0.00  0.00    +0.194 C 
ENDBRANCH  28   2
ENDBRANCH  27  28
ENDBRANCH   7  27
ENDBRANCH  26   7
ENDBRANCH  17  22
BRANCH  13   8
ATOM      3  N   UNL     1      11.656   8.847  21.685  0.00  0.00    -0.287 NA
ATOM      8  C   UNL     1      12.359   7.710  21.058  0.00  0.00    +0.146 C 
ATOM      9  C   UNL     1      11.408   6.513  21.243  0.00  0.00    +0.030 C 
ATOM     10  C   UNL     1      10.230   7.060  22.036  0.00  0.00    +0.017 C 
ATOM     11  C   UNL     1      10.800   8.281  22.727  0.00  0.00    +0.085 C 
BRANCH   3  12
ATOM     12  C   UNL     1      12.559   9.864  22.208  0.00  0.00    +0.120 C 
BRANCH  12  14
ATOM     14  C   UNL     1      11.837  11.146  22.527  0.00  0.00    -0.030 A 
ATOM     15  C   UNL     1      11.790  12.191  21.605  0.00  0.00    -0.046 A 
ATOM     16  C   UNL     1      11.212  11.280  23.767  0.00  0.00    +0.005 A 
ATOM     18  C   UNL     1      11.115  13.370  21.921  0.00  0.00    +0.003 A 
ATOM     19  C   UNL     1      12.453  12.071  20.271  0.00  0.00    +0.044 C 
ATOM     20  C   UNL     1      10.537  12.459  24.083  0.00  0.00    +0.000 A 
ATOM     21  C   UNL     1      10.489  13.505  23.160  0.00  0.00    +0.000 A 
ENDBRANCH  12  14
ENDBRANCH   3  12
ENDBRANCH  13   8
TORSDOF 8
ENDMDL
MODEL 7
REMARK VINA RESULT:      -6.1     17.311     19.189
REMARK  Name = 45783492
REMARK  10 active torsions:
REMARK  status: ('A' for Active; 'I' for Inactive)
REMARK    1  A    between atoms: O_2  and  C_28
REMARK    2  A    between atoms: O_2  and  C_29
REMARK    3  A    between atoms: N_3  and  C_12
REMARK    4  A    between atoms: N_7  and  C_26
REMARK    5  A    between atoms: N_7  and  C_27
REMARK    6  A    between atoms: C_8  and  C_13
REMARK    7  A    between atoms: C_12  and  C_14
REMARK    8  A    between atoms: C_15  and  C_19
REMARK    9  A    between atoms: C_17  and  C_22
REMARK   10  A    between atoms: C_27  and  C_28
REMARK                            x       y       z     vdW  Elec       q    Type
REMARK                         _______ _______ _______ _____ _____    ______ ____
ROOT
ATOM      1  O   UNL     1      -7.627 -12.084  16.316  0.00  0.00    -0.336 OA
ATOM      4  N   UNL     1      -7.177  -9.993  15.650  0.00  0.00    -0.190 NA
ATOM      5  N   UNL     1      -8.857 -11.417  16.269  0.00  0.00    -0.056 NA
ATOM     13  C   UNL     1      -6.691 -11.175  15.938  0.00  0.00    +0.245 A 
ATOM     17  C   UNL     1      -8.509 -10.190  15.869  0.00  0.00    +0.204 A 
ENDROOT
BRANCH  17  22
ATOM      6  N   UNL     1     -11.202  -8.148  14.319  0.00  0.00    -0.240 NA
ATOM     22  C   UNL     1      -9.467  -9.141  15.679  0.00  0.00    +0.041 A 
ATOM     23  C   UNL     1      -9.609  -8.121  16.615  0.00  0.00    +0.016 A 
ATOM     24  C   UNL     1     -10.281  -9.108  14.558  0.00  0.00    +0.124 A 
ATOM     25  C   UNL     1     -10.546  -7.116  16.404  0.00  0.00    +0.044 A 
ATOM     26  C   UNL     1     -11.311  -7.175  15.251  0.00  0.00    +0.119 A 
BRANCH  26   7
ATOM      7  N   UNL     1     -12.262  -6.144  15.050  0.00  0.00    -0.327 N 
ATOM     30  H   UNL     1     -13.045  -6.119  15.695  0.00  0.00    +0.148 HD
BRANCH   7  27
ATOM     27  C   UNL     1     -12.148  -5.185  14.001  0.00  0.00    +0.131 C 
BRANCH  27  28
ATOM     28  C   UNL     1     -13.527  -4.703  13.584  0.00  0.00    +0.178 C 
BRANCH  28   2
ATOM      2  O   UNL     1     -13.412  -3.450  12.924  0.00  0.00    -0.381 OA
ATOM     29  C   UNL     1     -12.262  -3.403  12.090  0.00  0.00    +0.194 C 
ENDBRANCH  28   2
ENDBRANCH  27  28
ENDBRANCH   7  27
ENDBRANCH  26   7
ENDBRANCH  17  22
BRANCH  13   8
ATOM      3  N   UNL     1      -4.446 -10.958  14.886  0.00  0.00    -0.287 NA
ATOM      8  C   UNL     1      -5.255 -11.657  15.904  0.00  0.00    +0.146 C 
ATOM      9  C   UNL     1      -4.514 -11.410  17.231  0.00  0.00    +0.030 C 
ATOM     10  C   UNL     1      -3.271 -10.618  16.849  0.00  0.00    +0.017 C 
ATOM     11  C   UNL     1      -3.071 -10.950  15.385  0.00  0.00    +0.085 C 
BRANCH   3  12
ATOM     12  C   UNL     1      -4.545 -11.559  13.561  0.00  0.00    +0.120 C 
BRANCH  12  14
ATOM     14  C   UNL     1      -4.602 -10.517  12.476  0.00  0.00    -0.030 A 
ATOM     15  C   UNL     1      -3.510 -10.293  11.638  0.00  0.00    -0.046 A 
ATOM     16  C   UNL     1      -5.769  -9.768  12.317  0.00  0.00    +0.005 A 
ATOM     18  C   UNL     1      -3.585  -9.323  10.639  0.00  0.00    +0.003 A 
ATOM     19  C   UNL     1      -2.250 -11.082  11.790  0.00  0.00    +0.044 C 
ATOM     20  C   UNL     1      -5.843  -8.798  11.318  0.00  0.00    +0.000 A 
ATOM     21  C   UNL     1      -4.751  -8.575  10.479  0.00  0.00    +0.000 A 
ENDBRANCH  12  14
ENDBRANCH   3  12
ENDBRANCH  13   8
TORSDOF 8
ENDMDL
MODEL 8
REMARK VINA RESULT:      -6.0     18.182     19.831
REMARK  Name = 45783492
REMARK  10 active torsions:
REMARK  status: ('A' for Active; 'I' for Inactive)
REMARK    1  A    between atoms: O_2  and  C_28
REMARK    2  A    between atoms: O_2  and  C_29
REMARK    3  A    between atoms: N_3  and  C_12
REMARK    4  A    between atoms: N_7  and  C_26
REMARK    5  A    between atoms: N_7  and  C_27
REMARK    6  A    between atoms: C_8  and  C_13
REMARK    7  A    between atoms: C_12  and  C_14
REMARK    8  A    between atoms: C_15  and  C_19
REMARK    9  A    between atoms: C_17  and  C_22
REMARK   10  A    between atoms: C_27  and  C_28
REMARK                            x       y       z     vdW  Elec       q    Type
REMARK                         _______ _______ _______ _____ _____    ______ ____
ROOT
ATOM      1  O   UNL     1      -5.083 -12.141  16.567  0.00  0.00    -0.336 OA
ATOM      4  N   UNL     1      -5.437 -10.194  15.516  0.00  0.00    -0.190 NA
ATOM      5  N   UNL     1      -6.397 -11.765  16.874  0.00  0.00    -0.056 NA
ATOM     13  C   UNL     1      -4.590 -11.162  15.765  0.00  0.00    +0.245 A 
ATOM     17  C   UNL     1      -6.531 -10.608  16.219  0.00  0.00    +0.204 A 
ENDROOT
BRANCH  17  22
ATOM      6  N   UNL     1      -9.679  -8.997  15.069  0.00  0.00    -0.240 NA
ATOM     22  C   UNL     1      -7.743  -9.842  16.245  0.00  0.00    +0.041 A 
ATOM     23  C   UNL     1      -8.168  -9.213  17.411  0.00  0.00    +0.016 A 
ATOM     24  C   UNL     1      -8.528  -9.704  15.112  0.00  0.00    +0.124 A 
ATOM     25  C   UNL     1      -9.347  -8.477  17.407  0.00  0.00    +0.044 A 
ATOM     26  C   UNL     1     -10.060  -8.400  16.221  0.00  0.00    +0.119 A 
BRANCH  26   7
ATOM      7  N   UNL     1     -11.260  -7.647  16.233  0.00  0.00    -0.327 N 
ATOM     30  H   UNL     1     -11.648  -7.430  17.144  0.00  0.00    +0.148 HD
BRANCH   7  27
ATOM     27  C   UNL     1     -11.906  -7.211  15.039  0.00  0.00    +0.131 C 
BRANCH  27  28
ATOM     28  C   UNL     1     -11.626  -5.736  14.805  0.00  0.00    +0.178 C 
BRANCH  28   2
ATOM      2  O   UNL     1     -12.265  -5.317  13.606  0.00  0.00    -0.381 OA
ATOM     29  C   UNL     1     -12.737  -6.425  12.852  0.00  0.00    +0.194 C 
ENDBRANCH  28   2
ENDBRANCH  27  28
ENDBRANCH   7  27
ENDBRANCH  26   7
ENDBRANCH  17  22
BRANCH  13   8
ATOM      3  N   UNL     1      -2.901 -10.631  14.016  0.00  0.00    -0.287 NA
ATOM      8  C   UNL     1      -3.163 -11.336  15.286  0.00  0.00    +0.146 C 
ATOM      9  C   UNL     1      -2.131 -10.760  16.274  0.00  0.00    +0.030 C 
ATOM     10  C   UNL     1      -1.296  -9.788  15.453  0.00  0.00    +0.017 C 
ATOM     11  C   UNL     1      -1.483 -10.269  14.029  0.00  0.00    +0.085 C 
BRANCH   3  12
ATOM     12  C   UNL     1      -3.257 -11.415  12.840  0.00  0.00    +0.120 C 
BRANCH  12  14
ATOM     14  C   UNL     1      -3.761 -10.547  11.718  0.00  0.00    -0.030 A 
ATOM     15  C   UNL     1      -5.128 -10.418  11.470  0.00  0.00    -0.046 A 
ATOM     16  C   UNL     1      -2.840  -9.868  10.921  0.00  0.00    +0.005 A 
ATOM     18  C   UNL     1      -5.573  -9.607  10.426  0.00  0.00    +0.003 A 
ATOM     19  C   UNL     1      -6.133 -11.135  12.310  0.00  0.00    +0.044 C 
ATOM     20  C   UNL     1      -3.286  -9.058   9.877  0.00  0.00    +0.000 A 
ATOM     21  C   UNL     1      -4.652  -8.928   9.629  0.00  0.00    +0.000 A 
ENDBRANCH  12  14
ENDBRANCH   3  12
ENDBRANCH  13   8
TORSDOF 8
ENDMDL
MODEL 9
REMARK VINA RESULT:      -5.9     19.798     21.084
REMARK  Name = 45783492
REMARK  10 active torsions:
REMARK  status: ('A' for Active; 'I' for Inactive)
REMARK    1  A    between atoms: O_2  and  C_28
REMARK    2  A    between atoms: O_2  and  C_29
REMARK    3  A    between atoms: N_3  and  C_12
REMARK    4  A    between atoms: N_7  and  C_26
REMARK    5  A    between atoms: N_7  and  C_27
REMARK    6  A    between atoms: C_8  and  C_13
REMARK    7  A    between atoms: C_12  and  C_14
REMARK    8  A    between atoms: C_15  and  C_19
REMARK    9  A    between atoms: C_17  and  C_22
REMARK   10  A    between atoms: C_27  and  C_28
REMARK                            x       y       z     vdW  Elec       q    Type
REMARK                         _______ _______ _______ _____ _____    ______ ____
ROOT
ATOM      1  O   UNL     1      -1.975 -10.436  14.459  0.00  0.00    -0.336 OA
ATOM      4  N   UNL     1      -4.054 -11.251  14.273  0.00  0.00    -0.190 NA
ATOM      5  N   UNL     1      -2.441 -10.618  15.767  0.00  0.00    -0.056 NA
ATOM     13  C   UNL     1      -2.986 -10.832  13.641  0.00  0.00    +0.245 A 
ATOM     17  C   UNL     1      -3.672 -11.101  15.574  0.00  0.00    +0.204 A 
ENDROOT
BRANCH  17  22
ATOM      6  N   UNL     1      -5.795 -13.133  17.853  0.00  0.00    -0.240 NA
ATOM     22  C   UNL     1      -4.546 -11.441  16.659  0.00  0.00    +0.041 A 
ATOM     23  C   UNL     1      -4.992 -10.472  17.552  0.00  0.00    +0.016 A 
ATOM     24  C   UNL     1      -4.973 -12.745  16.852  0.00  0.00    +0.124 A 
ATOM     25  C   UNL     1      -5.838 -10.832  18.595  0.00  0.00    +0.044 A 
ATOM     26  C   UNL     1      -6.207 -12.163  18.701  0.00  0.00    +0.119 A 
BRANCH  26   7
ATOM      7  N   UNL     1      -7.069 -12.514  19.769  0.00  0.00    -0.327 N 
ATOM     30  H   UNL     1      -6.734 -12.316  20.705  0.00  0.00    +0.148 HD
BRANCH   7  27
ATOM     27  C   UNL     1      -8.344 -13.119  19.562  0.00  0.00    +0.131 C 
BRANCH  27  28
ATOM     28  C   UNL     1      -9.361 -12.065  19.160  0.00  0.00    +0.178 C 
BRANCH  28   2
ATOM      2  O   UNL     1      -9.385 -11.033  20.138  0.00  0.00    -0.381 OA
ATOM     29  C   UNL     1     -10.600 -10.296  20.089  0.00  0.00    +0.194 C 
ENDBRANCH  28   2
ENDBRANCH  27  28
ENDBRANCH   7  27
ENDBRANCH  26   7
ENDBRANCH  17  22
BRANCH  13   8
ATOM      3  N   UNL     1      -3.618  -9.762  11.485  0.00  0.00    -0.287 NA
ATOM      8  C   UNL     1      -2.728 -10.733  12.152  0.00  0.00    +0.146 C 
ATOM      9  C   UNL     1      -1.304 -10.246  11.826  0.00  0.00    +0.030 C 
ATOM     10  C   UNL     1      -1.495  -9.036  10.924  0.00  0.00    +0.017 C 
ATOM     11  C   UNL     1      -2.876  -9.242  10.337  0.00  0.00    +0.085 C 
BRANCH   3  12
ATOM     12  C   UNL     1      -4.902 -10.333  11.096  0.00  0.00    +0.120 C 
BRANCH  12  14
ATOM     14  C   UNL     1      -4.987 -10.561   9.611  0.00  0.00    -0.030 A 
ATOM     15  C   UNL     1      -5.620  -9.637   8.778  0.00  0.00    -0.046 A 
ATOM     16  C   UNL     1      -4.425 -11.717   9.070  0.00  0.00    +0.005 A 
ATOM     18  C   UNL     1      -5.687  -9.868   7.405  0.00  0.00    +0.003 A 
ATOM     19  C   UNL     1      -6.230  -8.392   9.334  0.00  0.00    +0.044 C 
ATOM     20  C   UNL     1      -4.493 -11.948   7.697  0.00  0.00    +0.000 A 
ATOM     21  C   UNL     1      -5.124 -11.024   6.863  0.00  0.00    +0.000 A 
ENDBRANCH  12  14
ENDBRANCH   3  12
ENDBRANCH  13   8
TORSDOF 8
ENDMDL
MODEL 10
REMARK VINA RESULT:      -5.6      1.478      2.427
REMARK  Name = 45783492
REMARK  10 active torsions:
REMARK  status: ('A' for Active; 'I' for Inactive)
REMARK    1  A    between atoms: O_2  and  C_28
REMARK    2  A    between atoms: O_2  and  C_29
REMARK    3  A    between atoms: N_3  and  C_12
REMARK    4  A    between atoms: N_7  and  C_26
REMARK    5  A    between atoms: N_7  and  C_27
REMARK    6  A    between atoms: C_8  and  C_13
REMARK    7  A    between atoms: C_12  and  C_14
REMARK    8  A    between atoms: C_15  and  C_19
REMARK    9  A    between atoms: C_17  and  C_22
REMARK   10  A    between atoms: C_27  and  C_28
REMARK                            x       y       z     vdW  Elec       q    Type
REMARK                         _______ _______ _______ _____ _____    ______ ____
ROOT
ATOM      1  O   UNL     1     -17.866   3.940  20.274  0.00  0.00    -0.336 OA
ATOM      4  N   UNL     1     -17.317   5.244  22.011  0.00  0.00    -0.190 NA
ATOM      5  N   UNL     1     -17.709   3.083  21.371  0.00  0.00    -0.056 NA
ATOM     13  C   UNL     1     -17.617   5.193  20.738  0.00  0.00    +0.245 A 
ATOM     17  C   UNL     1     -17.385   3.926  22.356  0.00  0.00    +0.204 A 
ENDROOT
BRANCH  17  22
ATOM      6  N   UNL     1     -17.114   1.685  25.312  0.00  0.00    -0.240 NA
ATOM     22  C   UNL     1     -17.124   3.483  23.695  0.00  0.00    +0.041 A 
ATOM     23  C   UNL     1     -16.646   4.363  24.661  0.00  0.00    +0.016 A 
ATOM     24  C   UNL     1     -17.339   2.166  24.068  0.00  0.00    +0.124 A 
ATOM     25  C   UNL     1     -16.401   3.905  25.950  0.00  0.00    +0.044 A 
ATOM     26  C   UNL     1     -16.649   2.570  26.222  0.00  0.00    +0.119 A 
BRANCH  26   7
ATOM      7  N   UNL     1     -16.395   2.118  27.541  0.00  0.00    -0.327 N 
ATOM     30  H   UNL     1     -16.797   1.223  27.798  0.00  0.00    +0.148 HD
BRANCH   7  27
ATOM     27  C   UNL     1     -15.621   2.867  28.476  0.00  0.00    +0.131 C 
BRANCH  27  28
ATOM     28  C   UNL     1     -15.196   1.977  29.631  0.00  0.00    +0.178 C 
BRANCH  28   2
ATOM      2  O   UNL     1     -15.354   0.613  29.261  0.00  0.00    -0.381 OA
ATOM     29  C   UNL     1     -14.197  -0.150  29.575  0.00  0.00    +0.194 C 
ENDBRANCH  28   2
ENDBRANCH  27  28
ENDBRANCH   7  27
ENDBRANCH  26   7
ENDBRANCH  17  22
BRANCH  13   8
ATOM      3  N   UNL     1     -16.409   6.752  19.221  0.00  0.00    -0.287 NA
ATOM      8  C   UNL     1     -17.725   6.319  19.730  0.00  0.00    +0.146 C 
ATOM      9  C   UNL     1     -18.519   5.918  18.473  0.00  0.00    +0.030 C 
ATOM     10  C   UNL     1     -17.591   6.219  17.305  0.00  0.00    +0.017 C 
ATOM     11  C   UNL     1     -16.635   7.252  17.864  0.00  0.00    +0.085 C 
BRANCH   3  12
ATOM     12  C   UNL     1     -15.762   7.744  20.070  0.00  0.00    +0.120 C 
BRANCH  12  14
ATOM     14  C   UNL     1     -14.335   7.374  20.377  0.00  0.00    -0.030 A 
ATOM     15  C   UNL     1     -13.274   8.038  19.762  0.00  0.00    -0.046 A 
ATOM     16  C   UNL     1     -14.083   6.350  21.290  0.00  0.00    +0.005 A 
ATOM     18  C   UNL     1     -11.960   7.679  20.062  0.00  0.00    +0.003 A 
ATOM     19  C   UNL     1     -13.519   9.138  18.781  0.00  0.00    +0.044 C 
ATOM     20  C   UNL     1     -12.769   5.992  21.589  0.00  0.00    +0.000 A 
ATOM     21  C   UNL     1     -11.706   6.656  20.975  0.00  0.00    +0.000 A 
ENDBRANCH  12  14
ENDBRANCH   3  12
ENDBRANCH  13   8
TORSDOF 8
ENDMDL
