MODEL 1
REMARK VINA RESULT:      -6.8      0.000      0.000
REMARK  Name = 28991035
REMARK  7 active torsions:
REMARK  status: ('A' for Active; 'I' for Inactive)
REMARK    1  A    between atoms: S_1  and  N_7
REMARK    2  A    between atoms: S_1  and  C_21
REMARK    3  A    between atoms: N_6  and  C_15
REMARK    4  A    between atoms: N_7  and  C_16
REMARK    5  A    between atoms: C_9  and  C_15
REMARK    6  A    between atoms: C_10  and  C_16
REMARK    7  A    between atoms: C_26  and  C_27
REMARK                            x       y       z     vdW  Elec       q    Type
REMARK                         _______ _______ _______ _____ _____    ______ ____
ROOT
ATOM      5  N   UNL     1      -5.885 -12.310  16.765  0.00  0.00    -0.298 NA
ATOM      8  C   UNL     1      -6.829 -10.911  18.745  0.00  0.00    -0.003 C 
ATOM      9  C   UNL     1      -7.614 -10.627  17.445  0.00  0.00    +0.020 C 
ATOM     10  C   UNL     1      -4.784 -11.564  17.432  0.00  0.00    +0.072 C 
ATOM     11  C   UNL     1      -5.337 -10.610  18.515  0.00  0.00    +0.024 C 
ATOM     12  C   UNL     1      -6.924 -11.370  16.279  0.00  0.00    +0.089 C 
ATOM     13  C   UNL     1      -6.953 -12.422  19.021  0.00  0.00    +0.019 C 
ATOM     14  C   UNL     1      -6.506 -13.204  17.773  0.00  0.00    +0.085 C 
ENDROOT
BRANCH   9  15
ATOM     15  C   UNL     1      -7.772  -9.138  17.148  0.00  0.00    +0.089 C 
BRANCH  15   6
ATOM      2  O   UNL     1     -11.921  -8.524  16.995  0.00  0.00    -0.377 OA
ATOM      6  N   UNL     1      -9.120  -8.679  17.477  0.00  0.00    -0.298 NA
ATOM     17  C   UNL     1      -9.669  -7.852  16.393  0.00  0.00    +0.112 C 
ATOM     18  C   UNL     1     -10.009  -9.819  17.740  0.00  0.00    +0.112 C 
ATOM     19  C   UNL     1     -11.079  -7.396  16.755  0.00  0.00    +0.175 C 
ATOM     20  C   UNL     1     -11.412  -9.316  18.068  0.00  0.00    +0.175 C 
ENDBRANCH  15   6
ENDBRANCH   9  15
BRANCH  10  16
ATOM     16  C   UNL     1      -3.887 -10.830  16.433  0.00  0.00    +0.124 C 
BRANCH  16   7
ATOM      7  N   UNL     1      -3.462 -11.723  15.368  0.00  0.00    -0.188 NA
ATOM     28  H   UNL     1      -4.198 -12.273  14.908  0.00  0.00    +0.148 HD
BRANCH   7   1
ATOM      1  S   UNL     1      -2.018 -11.421  14.498  0.00  0.00    +0.058 S 
ATOM      3  O   UNL     1      -1.413 -12.689  14.134  0.00  0.00    -0.153 OA
ATOM      4  O   UNL     1      -1.237 -10.411  15.186  0.00  0.00    -0.153 OA
BRANCH   1  21
ATOM     21  C   UNL     1      -2.645 -10.674  13.023  0.00  0.00    +0.105 A 
ATOM     22  C   UNL     1      -4.021 -10.536  12.843  0.00  0.00    +0.029 A 
ATOM     23  C   UNL     1      -1.764 -10.227  12.039  0.00  0.00    +0.029 A 
ATOM     24  C   UNL     1      -4.515  -9.949  11.678  0.00  0.00    +0.005 A 
ATOM     25  C   UNL     1      -2.258  -9.641  10.875  0.00  0.00    +0.005 A 
ATOM     26  C   UNL     1      -3.634  -9.501  10.694  0.00  0.00    -0.050 A 
ATOM     27  C   UNL     1      -4.164  -8.873   9.449  0.00  0.00    +0.044 C 
ENDBRANCH   1  21
ENDBRANCH   7   1
ENDBRANCH  16   7
ENDBRANCH  10  16
TORSDOF 6
ENDMDL
MODEL 2
REMARK VINA RESULT:      -6.7     27.369     29.249
REMARK  Name = 28991035
REMARK  7 active torsions:
REMARK  status: ('A' for Active; 'I' for Inactive)
REMARK    1  A    between atoms: S_1  and  N_7
REMARK    2  A    between atoms: S_1  and  C_21
REMARK    3  A    between atoms: N_6  and  C_15
REMARK    4  A    between atoms: N_7  and  C_16
REMARK    5  A    between atoms: C_9  and  C_15
REMARK    6  A    between atoms: C_10  and  C_16
REMARK    7  A    between atoms: C_26  and  C_27
REMARK                            x       y       z     vdW  Elec       q    Type
REMARK                         _______ _______ _______ _____ _____    ______ ____
ROOT
ATOM      5  N   UNL     1      11.356  12.915  22.650  0.00  0.00    -0.298 NA
ATOM      8  C   UNL     1      11.698  11.825  24.987  0.00  0.00    -0.003 C 
ATOM      9  C   UNL     1      13.009  12.468  24.481  0.00  0.00    +0.020 C 
ATOM     10  C   UNL     1      10.880  11.506  22.629  0.00  0.00    +0.072 C 
ATOM     11  C   UNL     1      11.208  10.790  23.958  0.00  0.00    +0.024 C 
ATOM     12  C   UNL     1      12.787  12.969  23.036  0.00  0.00    +0.089 C 
ATOM     13  C   UNL     1      10.643  12.947  25.044  0.00  0.00    +0.019 C 
ATOM     14  C   UNL     1      10.572  13.646  23.675  0.00  0.00    +0.085 C 
ENDROOT
BRANCH   9  15
ATOM     15  C   UNL     1      14.213  11.534  24.574  0.00  0.00    +0.089 C 
BRANCH  15   6
ATOM      2  O   UNL     1      17.075  10.597  21.650  0.00  0.00    -0.377 OA
ATOM      6  N   UNL     1      14.929  11.477  23.302  0.00  0.00    -0.298 NA
ATOM     17  C   UNL     1      16.284  12.031  23.440  0.00  0.00    +0.112 C 
ATOM     18  C   UNL     1      14.999  10.097  22.804  0.00  0.00    +0.112 C 
ATOM     19  C   UNL     1      17.015  11.950  22.104  0.00  0.00    +0.175 C 
ATOM     20  C   UNL     1      15.763  10.061  21.482  0.00  0.00    +0.175 C 
ENDBRANCH  15   6
ENDBRANCH   9  15
BRANCH  10  16
ATOM     16  C   UNL     1      11.407  10.729  21.420  0.00  0.00    +0.124 C 
BRANCH  16   7
ATOM      7  N   UNL     1      11.731   9.361  21.788  0.00  0.00    -0.188 NA
ATOM     28  H   UNL     1      11.823   9.163  22.792  0.00  0.00    +0.148 HD
BRANCH   7   1
ATOM      1  S   UNL     1      11.342   8.059  20.744  0.00  0.00    +0.058 S 
ATOM      3  O   UNL     1      10.661   8.581  19.574  0.00  0.00    -0.153 OA
ATOM      4  O   UNL     1      10.750   6.980  21.511  0.00  0.00    -0.153 OA
BRANCH   1  21
ATOM     21  C   UNL     1      12.948   7.516  20.244  0.00  0.00    +0.105 A 
ATOM     22  C   UNL     1      13.386   7.743  18.939  0.00  0.00    +0.029 A 
ATOM     23  C   UNL     1      13.776   6.857  21.152  0.00  0.00    +0.029 A 
ATOM     24  C   UNL     1      14.651   7.312  18.543  0.00  0.00    +0.005 A 
ATOM     25  C   UNL     1      15.041   6.426  20.756  0.00  0.00    +0.005 A 
ATOM     26  C   UNL     1      15.479   6.654  19.452  0.00  0.00    -0.050 A 
ATOM     27  C   UNL     1      16.834   6.193  19.028  0.00  0.00    +0.044 C 
ENDBRANCH   1  21
ENDBRANCH   7   1
ENDBRANCH  16   7
ENDBRANCH  10  16
TORSDOF 6
ENDMDL
MODEL 3
REMARK VINA RESULT:      -6.6     18.974     20.477
REMARK  Name = 28991035
REMARK  7 active torsions:
REMARK  status: ('A' for Active; 'I' for Inactive)
REMARK    1  A    between atoms: S_1  and  N_7
REMARK    2  A    between atoms: S_1  and  C_21
REMARK    3  A    between atoms: N_6  and  C_15
REMARK    4  A    between atoms: N_7  and  C_16
REMARK    5  A    between atoms: C_9  and  C_15
REMARK    6  A    between atoms: C_10  and  C_16
REMARK    7  A    between atoms: C_26  and  C_27
REMARK                            x       y       z     vdW  Elec       q    Type
REMARK                         _______ _______ _______ _____ _____    ______ ____
ROOT
ATOM      5  N   UNL     1     -17.783   3.352  25.957  0.00  0.00    -0.298 NA
ATOM      8  C   UNL     1     -17.268   1.175  27.284  0.00  0.00    -0.003 C 
ATOM      9  C   UNL     1     -16.968   2.426  28.140  0.00  0.00    +0.020 C 
ATOM     10  C   UNL     1     -16.890   2.468  25.160  0.00  0.00    +0.072 C 
ATOM     11  C   UNL     1     -16.448   1.238  25.983  0.00  0.00    +0.024 C 
ATOM     12  C   UNL     1     -17.152   3.682  27.258  0.00  0.00    +0.089 C 
ATOM     13  C   UNL     1     -18.756   1.249  26.891  0.00  0.00    +0.019 C 
ATOM     14  C   UNL     1     -19.038   2.608  26.227  0.00  0.00    +0.085 C 
ENDROOT
BRANCH   9  15
ATOM     15  C   UNL     1     -15.588   2.394  28.792  0.00  0.00    +0.089 C 
BRANCH  15   6
ATOM      2  O   UNL     1     -14.500   1.123  32.641  0.00  0.00    -0.377 OA
ATOM      6  N   UNL     1     -15.665   1.870  30.153  0.00  0.00    -0.298 NA
ATOM     17  C   UNL     1     -14.860   0.648  30.289  0.00  0.00    +0.112 C 
ATOM     18  C   UNL     1     -15.221   2.876  31.126  0.00  0.00    +0.112 C 
ATOM     19  C   UNL     1     -14.947   0.127  31.720  0.00  0.00    +0.175 C 
ATOM     20  C   UNL     1     -15.299   2.302  32.538  0.00  0.00    +0.175 C 
ENDBRANCH  15   6
ENDBRANCH   9  15
BRANCH  10  16
ATOM     16  C   UNL     1     -15.693   3.221  24.576  0.00  0.00    +0.124 C 
BRANCH  16   7
ATOM      7  N   UNL     1     -15.778   3.280  23.126  0.00  0.00    -0.188 NA
ATOM     28  H   UNL     1     -15.803   2.381  22.630  0.00  0.00    +0.148 HD
BRANCH   7   1
ATOM      1  S   UNL     1     -16.444   4.651  22.345  0.00  0.00    +0.058 S 
ATOM      3  O   UNL     1     -17.084   5.495  23.337  0.00  0.00    -0.153 OA
ATOM      4  O   UNL     1     -17.176   4.231  21.164  0.00  0.00    -0.153 OA
BRANCH   1  21
ATOM     21  C   UNL     1     -14.988   5.479  21.782  0.00  0.00    +0.105 A 
ATOM     22  C   UNL     1     -13.731   5.041  22.199  0.00  0.00    +0.029 A 
ATOM     23  C   UNL     1     -15.096   6.573  20.923  0.00  0.00    +0.029 A 
ATOM     24  C   UNL     1     -12.583   5.696  21.758  0.00  0.00    +0.005 A 
ATOM     25  C   UNL     1     -13.947   7.228  20.482  0.00  0.00    +0.005 A 
ATOM     26  C   UNL     1     -12.690   6.790  20.899  0.00  0.00    -0.050 A 
ATOM     27  C   UNL     1     -11.461   7.491  20.426  0.00  0.00    +0.044 C 
ENDBRANCH   1  21
ENDBRANCH   7   1
ENDBRANCH  16   7
ENDBRANCH  10  16
TORSDOF 6
ENDMDL
MODEL 4
REMARK VINA RESULT:      -6.5      1.979      2.640
REMARK  Name = 28991035
REMARK  7 active torsions:
REMARK  status: ('A' for Active; 'I' for Inactive)
REMARK    1  A    between atoms: S_1  and  N_7
REMARK    2  A    between atoms: S_1  and  C_21
REMARK    3  A    between atoms: N_6  and  C_15
REMARK    4  A    between atoms: N_7  and  C_16
REMARK    5  A    between atoms: C_9  and  C_15
REMARK    6  A    between atoms: C_10  and  C_16
REMARK    7  A    between atoms: C_26  and  C_27
REMARK                            x       y       z     vdW  Elec       q    Type
REMARK                         _______ _______ _______ _____ _____    ______ ____
ROOT
ATOM      5  N   UNL     1      -6.783  -9.689  16.211  0.00  0.00    -0.298 NA
ATOM      8  C   UNL     1      -8.166 -11.780  16.905  0.00  0.00    -0.003 C 
ATOM      9  C   UNL     1      -8.360 -10.630  17.918  0.00  0.00    +0.020 C 
ATOM     10  C   UNL     1      -5.907 -10.891  16.245  0.00  0.00    +0.072 C 
ATOM     11  C   UNL     1      -6.668 -12.117  16.797  0.00  0.00    +0.024 C 
ATOM     12  C   UNL     1      -7.409  -9.472  17.538  0.00  0.00    +0.089 C 
ATOM     13  C   UNL     1      -8.614 -11.246  15.531  0.00  0.00    +0.019 C 
ATOM     14  C   UNL     1      -7.862  -9.939  15.226  0.00  0.00    +0.085 C 
ENDROOT
BRANCH   9  15
ATOM     15  C   UNL     1      -8.166 -11.065  19.369  0.00  0.00    +0.089 C 
BRANCH  15   6
ATOM      2  O   UNL     1     -12.226 -11.783  20.157  0.00  0.00    -0.377 OA
ATOM      6  N   UNL     1      -9.449 -11.161  20.061  0.00  0.00    -0.298 NA
ATOM     17  C   UNL     1     -10.453 -10.298  19.422  0.00  0.00    +0.112 C 
ATOM     18  C   UNL     1      -9.925 -12.550  20.089  0.00  0.00    +0.112 C 
ATOM     19  C   UNL     1     -11.785 -10.424  20.154  0.00  0.00    +0.175 C 
ATOM     20  C   UNL     1     -11.271 -12.624  20.805  0.00  0.00    +0.175 C 
ENDBRANCH  15   6
ENDBRANCH   9  15
BRANCH  10  16
ATOM     16  C   UNL     1      -4.602 -10.643  17.004  0.00  0.00    +0.124 C 
BRANCH  16   7
ATOM      7  N   UNL     1      -3.562 -10.177  16.104  0.00  0.00    -0.188 NA
ATOM     28  H   UNL     1      -3.122  -9.278  16.335  0.00  0.00    +0.148 HD
BRANCH   7   1
ATOM      1  S   UNL     1      -2.673 -11.285  15.146  0.00  0.00    +0.058 S 
ATOM      3  O   UNL     1      -3.289 -12.595  15.246  0.00  0.00    -0.153 OA
ATOM      4  O   UNL     1      -1.255 -11.124  15.405  0.00  0.00    -0.153 OA
BRANCH   1  21
ATOM     21  C   UNL     1      -2.974 -10.664  13.518  0.00  0.00    +0.105 A 
ATOM     22  C   UNL     1      -4.282 -10.442  13.088  0.00  0.00    +0.029 A 
ATOM     23  C   UNL     1      -1.904 -10.400  12.664  0.00  0.00    +0.029 A 
ATOM     24  C   UNL     1      -4.520  -9.956  11.803  0.00  0.00    +0.005 A 
ATOM     25  C   UNL     1      -2.142  -9.914  11.379  0.00  0.00    +0.005 A 
ATOM     26  C   UNL     1      -3.450  -9.691  10.948  0.00  0.00    -0.050 A 
ATOM     27  C   UNL     1      -3.704  -9.170   9.574  0.00  0.00    +0.044 C 
ENDBRANCH   1  21
ENDBRANCH   7   1
ENDBRANCH  16   7
ENDBRANCH  10  16
TORSDOF 6
ENDMDL
MODEL 5
REMARK VINA RESULT:      -6.3     19.229     20.496
REMARK  Name = 28991035
REMARK  7 active torsions:
REMARK  status: ('A' for Active; 'I' for Inactive)
REMARK    1  A    between atoms: S_1  and  N_7
REMARK    2  A    between atoms: S_1  and  C_21
REMARK    3  A    between atoms: N_6  and  C_15
REMARK    4  A    between atoms: N_7  and  C_16
REMARK    5  A    between atoms: C_9  and  C_15
REMARK    6  A    between atoms: C_10  and  C_16
REMARK    7  A    between atoms: C_26  and  C_27
REMARK                            x       y       z     vdW  Elec       q    Type
REMARK                         _______ _______ _______ _____ _____    ______ ____
ROOT
ATOM      5  N   UNL     1     -18.023   4.237  24.474  0.00  0.00    -0.298 NA
ATOM      8  C   UNL     1     -16.407   2.558  25.630  0.00  0.00    -0.003 C 
ATOM      9  C   UNL     1     -17.284   3.286  26.673  0.00  0.00    +0.020 C 
ATOM     10  C   UNL     1     -16.627   4.480  24.022  0.00  0.00    +0.072 C 
ATOM     11  C   UNL     1     -15.629   3.597  24.804  0.00  0.00    +0.024 C 
ATOM     12  C   UNL     1     -18.116   4.368  25.949  0.00  0.00    +0.089 C 
ATOM     13  C   UNL     1     -17.367   1.834  24.666  0.00  0.00    +0.019 C 
ATOM     14  C   UNL     1     -18.385   2.845  24.110  0.00  0.00    +0.085 C 
ENDROOT
BRANCH   9  15
ATOM     15  C   UNL     1     -16.481   3.875  27.831  0.00  0.00    +0.089 C 
BRANCH  15   6
ATOM      2  O   UNL     1     -15.022   1.399  30.889  0.00  0.00    -0.377 OA
ATOM      6  N   UNL     1     -15.741   2.832  28.537  0.00  0.00    -0.298 NA
ATOM     17  C   UNL     1     -14.855   3.417  29.553  0.00  0.00    +0.112 C 
ATOM     18  C   UNL     1     -16.660   1.872  29.163  0.00  0.00    +0.112 C 
ATOM     19  C   UNL     1     -14.103   2.309  30.284  0.00  0.00    +0.175 C 
ATOM     20  C   UNL     1     -15.865   0.801  29.904  0.00  0.00    +0.175 C 
ENDBRANCH  15   6
ENDBRANCH   9  15
BRANCH  10  16
ATOM     16  C   UNL     1     -16.244   5.960  24.080  0.00  0.00    +0.124 C 
BRANCH  16   7
ATOM      7  N   UNL     1     -15.034   6.210  23.315  0.00  0.00    -0.188 NA
ATOM     28  H   UNL     1     -14.164   6.315  23.851  0.00  0.00    +0.148 HD
BRANCH   7   1
ATOM      1  S   UNL     1     -14.918   5.720  21.678  0.00  0.00    +0.058 S 
ATOM      3  O   UNL     1     -16.166   6.024  21.005  0.00  0.00    -0.153 OA
ATOM      4  O   UNL     1     -14.359   4.383  21.609  0.00  0.00    -0.153 OA
BRANCH   1  21
ATOM     21  C   UNL     1     -13.684   6.827  21.065  0.00  0.00    +0.105 A 
ATOM     22  C   UNL     1     -12.337   6.469  21.119  0.00  0.00    +0.029 A 
ATOM     23  C   UNL     1     -14.056   8.060  20.531  0.00  0.00    +0.029 A 
ATOM     24  C   UNL     1     -11.363   7.343  20.638  0.00  0.00    +0.005 A 
ATOM     25  C   UNL     1     -13.083   8.934  20.050  0.00  0.00    +0.005 A 
ATOM     26  C   UNL     1     -11.736   8.576  20.103  0.00  0.00    -0.050 A 
ATOM     27  C   UNL     1     -10.694   9.512  19.588  0.00  0.00    +0.044 C 
ENDBRANCH   1  21
ENDBRANCH   7   1
ENDBRANCH  16   7
ENDBRANCH  10  16
TORSDOF 6
ENDMDL
MODEL 6
REMARK VINA RESULT:      -6.0      3.614      8.766
REMARK  Name = 28991035
REMARK  7 active torsions:
REMARK  status: ('A' for Active; 'I' for Inactive)
REMARK    1  A    between atoms: S_1  and  N_7
REMARK    2  A    between atoms: S_1  and  C_21
REMARK    3  A    between atoms: N_6  and  C_15
REMARK    4  A    between atoms: N_7  and  C_16
REMARK    5  A    between atoms: C_9  and  C_15
REMARK    6  A    between atoms: C_10  and  C_16
REMARK    7  A    between atoms: C_26  and  C_27
REMARK                            x       y       z     vdW  Elec       q    Type
REMARK                         _______ _______ _______ _____ _____    ______ ____
ROOT
ATOM      5  N   UNL     1      -5.418 -10.045  11.491  0.00  0.00    -0.298 NA
ATOM      8  C   UNL     1      -4.227  -9.442   9.259  0.00  0.00    -0.003 C 
ATOM      9  C   UNL     1      -5.014 -10.764   9.124  0.00  0.00    +0.020 C 
ATOM     10  C   UNL     1      -3.975  -9.781  11.739  0.00  0.00    +0.072 C 
ATOM     11  C   UNL     1      -3.214  -9.567  10.412  0.00  0.00    +0.024 C 
ATOM     12  C   UNL     1      -5.578 -11.147  10.511  0.00  0.00    +0.089 C 
ATOM     13  C   UNL     1      -5.243  -8.355   9.660  0.00  0.00    +0.019 C 
ATOM     14  C   UNL     1      -6.013  -8.818  10.910  0.00  0.00    +0.085 C 
ENDROOT
BRANCH   9  15
ATOM     15  C   UNL     1      -4.189 -11.898   8.519  0.00  0.00    +0.089 C 
BRANCH  15   6
ATOM      2  O   UNL     1      -4.728 -13.010   4.508  0.00  0.00    -0.377 OA
ATOM      6  N   UNL     1      -4.799 -12.388   7.286  0.00  0.00    -0.298 NA
ATOM     17  C   UNL     1      -4.821 -11.334   6.261  0.00  0.00    +0.112 C 
ATOM     18  C   UNL     1      -4.083 -13.566   6.781  0.00  0.00    +0.112 C 
ATOM     19  C   UNL     1      -5.452 -11.872   4.980  0.00  0.00    +0.175 C 
ATOM     20  C   UNL     1      -4.730 -14.051   5.486  0.00  0.00    +0.175 C 
ENDBRANCH  15   6
ENDBRANCH   9  15
BRANCH  10  16
ATOM     16  C   UNL     1      -3.322 -10.865  12.600  0.00  0.00    +0.124 C 
BRANCH  16   7
ATOM      7  N   UNL     1      -2.953 -10.337  13.902  0.00  0.00    -0.188 NA
ATOM     28  H   UNL     1      -3.370  -9.436  14.169  0.00  0.00    +0.148 HD
BRANCH   7   1
ATOM      1  S   UNL     1      -2.429 -11.382  15.153  0.00  0.00    +0.058 S 
ATOM      3  O   UNL     1      -1.161 -10.901  15.670  0.00  0.00    -0.153 OA
ATOM      4  O   UNL     1      -2.564 -12.762  14.724  0.00  0.00    -0.153 OA
BRANCH   1  21
ATOM     21  C   UNL     1      -3.662 -11.103  16.388  0.00  0.00    +0.105 A 
ATOM     22  C   UNL     1      -3.504 -11.641  17.665  0.00  0.00    +0.029 A 
ATOM     23  C   UNL     1      -4.794 -10.348  16.084  0.00  0.00    +0.029 A 
ATOM     24  C   UNL     1      -4.478 -11.423  18.639  0.00  0.00    +0.005 A 
ATOM     25  C   UNL     1      -5.769 -10.130  17.057  0.00  0.00    +0.005 A 
ATOM     26  C   UNL     1      -5.611 -10.667  18.335  0.00  0.00    -0.050 A 
ATOM     27  C   UNL     1      -6.653 -10.434  19.377  0.00  0.00    +0.044 C 
ENDBRANCH   1  21
ENDBRANCH   7   1
ENDBRANCH  16   7
ENDBRANCH  10  16
TORSDOF 6
ENDMDL
MODEL 7
REMARK VINA RESULT:      -6.0     24.662     27.042
REMARK  Name = 28991035
REMARK  7 active torsions:
REMARK  status: ('A' for Active; 'I' for Inactive)
REMARK    1  A    between atoms: S_1  and  N_7
REMARK    2  A    between atoms: S_1  and  C_21
REMARK    3  A    between atoms: N_6  and  C_15
REMARK    4  A    between atoms: N_7  and  C_16
REMARK    5  A    between atoms: C_9  and  C_15
REMARK    6  A    between atoms: C_10  and  C_16
REMARK    7  A    between atoms: C_26  and  C_27
REMARK                            x       y       z     vdW  Elec       q    Type
REMARK                         _______ _______ _______ _____ _____    ______ ____
ROOT
ATOM      5  N   UNL     1      10.053   7.811   6.508  0.00  0.00    -0.298 NA
ATOM      8  C   UNL     1       9.192   5.515   5.640  0.00  0.00    -0.003 C 
ATOM      9  C   UNL     1      10.530   5.892   4.966  0.00  0.00    +0.020 C 
ATOM     10  C   UNL     1       8.647   7.938   6.041  0.00  0.00    +0.072 C 
ATOM     11  C   UNL     1       8.160   6.628   5.383  0.00  0.00    +0.024 C 
ATOM     12  C   UNL     1      10.919   7.322   5.407  0.00  0.00    +0.089 C 
ATOM     13  C   UNL     1       9.451   5.475   7.159  0.00  0.00    +0.019 C 
ATOM     14  C   UNL     1      10.082   6.808   7.600  0.00  0.00    +0.085 C 
ENDROOT
BRANCH   9  15
ATOM     15  C   UNL     1      10.497   5.762   3.445  0.00  0.00    +0.089 C 
BRANCH  15   6
ATOM      2  O   UNL     1      13.399   4.192   0.852  0.00  0.00    -0.377 OA
ATOM      6  N   UNL     1      11.729   5.157   2.946  0.00  0.00    -0.298 NA
ATOM     17  C   UNL     1      11.446   3.889   2.258  0.00  0.00    +0.112 C 
ATOM     18  C   UNL     1      12.432   6.074   2.039  0.00  0.00    +0.112 C 
ATOM     19  C   UNL     1      12.745   3.282   1.737  0.00  0.00    +0.175 C 
ATOM     20  C   UNL     1      13.707   5.415   1.521  0.00  0.00    +0.175 C 
ENDBRANCH  15   6
ENDBRANCH   9  15
BRANCH  10  16
ATOM     16  C   UNL     1       8.443   9.145   5.122  0.00  0.00    +0.124 C 
BRANCH  16   7
ATOM      7  N   UNL     1       7.118   9.121   4.526  0.00  0.00    -0.188 NA
ATOM     28  H   UNL     1       6.502   8.347   4.802  0.00  0.00    +0.148 HD
BRANCH   7   1
ATOM      1  S   UNL     1       6.391  10.563   3.954  0.00  0.00    +0.058 S 
ATOM      3  O   UNL     1       7.411  11.586   3.822  0.00  0.00    -0.153 OA
ATOM      4  O   UNL     1       5.182  10.832   4.710  0.00  0.00    -0.153 OA
BRANCH   1  21
ATOM     21  C   UNL     1       5.887  10.084   2.329  0.00  0.00    +0.105 A 
ATOM     22  C   UNL     1       6.844   9.876   1.335  0.00  0.00    +0.029 A 
ATOM     23  C   UNL     1       4.533   9.918   2.039  0.00  0.00    +0.029 A 
ATOM     24  C   UNL     1       6.446   9.501   0.053  0.00  0.00    +0.005 A 
ATOM     25  C   UNL     1       4.136   9.543   0.756  0.00  0.00    +0.005 A 
ATOM     26  C   UNL     1       5.092   9.334  -0.238  0.00  0.00    -0.050 A 
ATOM     27  C   UNL     1       4.667   8.932  -1.610  0.00  0.00    +0.044 C 
ENDBRANCH   1  21
ENDBRANCH   7   1
ENDBRANCH  16   7
ENDBRANCH  10  16
TORSDOF 6
ENDMDL
MODEL 8
REMARK VINA RESULT:      -6.0     23.537     27.812
REMARK  Name = 28991035
REMARK  7 active torsions:
REMARK  status: ('A' for Active; 'I' for Inactive)
REMARK    1  A    between atoms: S_1  and  N_7
REMARK    2  A    between atoms: S_1  and  C_21
REMARK    3  A    between atoms: N_6  and  C_15
REMARK    4  A    between atoms: N_7  and  C_16
REMARK    5  A    between atoms: C_9  and  C_15
REMARK    6  A    between atoms: C_10  and  C_16
REMARK    7  A    between atoms: C_26  and  C_27
REMARK                            x       y       z     vdW  Elec       q    Type
REMARK                         _______ _______ _______ _____ _____    ______ ____
ROOT
ATOM      5  N   UNL     1      12.866   5.706   1.722  0.00  0.00    -0.298 NA
ATOM      8  C   UNL     1      11.888   3.679   0.418  0.00  0.00    -0.003 C 
ATOM      9  C   UNL     1      12.189   4.856  -0.537  0.00  0.00    +0.020 C 
ATOM     10  C   UNL     1      11.599   5.254   2.358  0.00  0.00    +0.072 C 
ATOM     11  C   UNL     1      10.920   4.149   1.518  0.00  0.00    +0.024 C 
ATOM     12  C   UNL     1      12.628   6.075   0.305  0.00  0.00    +0.089 C 
ATOM     13  C   UNL     1      13.217   3.310   1.106  0.00  0.00    +0.019 C 
ATOM     14  C   UNL     1      13.820   4.571   1.750  0.00  0.00    +0.085 C 
ENDROOT
BRANCH   9  15
ATOM     15  C   UNL     1      11.020   5.199  -1.458  0.00  0.00    +0.089 C 
BRANCH  15   6
ATOM      2  O   UNL     1      12.245   2.916  -4.759  0.00  0.00    -0.377 OA
ATOM      6  N   UNL     1      11.296   4.782  -2.830  0.00  0.00    -0.298 NA
ATOM     17  C   UNL     1      12.733   4.538  -3.022  0.00  0.00    +0.112 C 
ATOM     18  C   UNL     1      10.531   3.577  -3.174  0.00  0.00    +0.112 C 
ATOM     19  C   UNL     1      12.995   4.093  -4.458  0.00  0.00    +0.175 C 
ATOM     20  C   UNL     1      10.846   3.154  -4.607  0.00  0.00    +0.175 C 
ENDBRANCH  15   6
ENDBRANCH   9  15
BRANCH  10  16
ATOM     16  C   UNL     1      10.645   6.415   2.647  0.00  0.00    +0.124 C 
BRANCH  16   7
ATOM      7  N   UNL     1      10.788   6.870   4.020  0.00  0.00    -0.188 NA
ATOM     28  H   UNL     1      11.743   7.074   4.340  0.00  0.00    +0.148 HD
BRANCH   7   1
ATOM      1  S   UNL     1       9.487   7.640   4.826  0.00  0.00    +0.058 S 
ATOM      3  O   UNL     1       8.257   7.360   4.110  0.00  0.00    -0.153 OA
ATOM      4  O   UNL     1       9.851   9.008   5.143  0.00  0.00    -0.153 OA
BRANCH   1  21
ATOM     21  C   UNL     1       9.443   6.751   6.353  0.00  0.00    +0.105 A 
ATOM     22  C   UNL     1       8.963   7.371   7.507  0.00  0.00    +0.029 A 
ATOM     23  C   UNL     1       9.892   5.432   6.406  0.00  0.00    +0.029 A 
ATOM     24  C   UNL     1       8.931   6.671   8.712  0.00  0.00    +0.005 A 
ATOM     25  C   UNL     1       9.860   4.732   7.611  0.00  0.00    +0.005 A 
ATOM     26  C   UNL     1       9.379   5.351   8.765  0.00  0.00    -0.050 A 
ATOM     27  C   UNL     1       9.344   4.603  10.055  0.00  0.00    +0.044 C 
ENDBRANCH   1  21
ENDBRANCH   7   1
ENDBRANCH  16   7
ENDBRANCH  10  16
TORSDOF 6
ENDMDL
MODEL 9
REMARK VINA RESULT:      -6.0      3.900      8.139
REMARK  Name = 28991035
REMARK  7 active torsions:
REMARK  status: ('A' for Active; 'I' for Inactive)
REMARK    1  A    between atoms: S_1  and  N_7
REMARK    2  A    between atoms: S_1  and  C_21
REMARK    3  A    between atoms: N_6  and  C_15
REMARK    4  A    between atoms: N_7  and  C_16
REMARK    5  A    between atoms: C_9  and  C_15
REMARK    6  A    between atoms: C_10  and  C_16
REMARK    7  A    between atoms: C_26  and  C_27
REMARK                            x       y       z     vdW  Elec       q    Type
REMARK                         _______ _______ _______ _____ _____    ______ ____
ROOT
ATOM      5  N   UNL     1      -6.516 -10.522  17.268  0.00  0.00    -0.298 NA
ATOM      8  C   UNL     1      -4.271 -11.835  17.234  0.00  0.00    -0.003 C 
ATOM      9  C   UNL     1      -5.355 -12.575  16.419  0.00  0.00    +0.020 C 
ATOM     10  C   UNL     1      -6.022 -10.722  18.657  0.00  0.00    +0.072 C 
ATOM     11  C   UNL     1      -4.770 -11.627  18.675  0.00  0.00    +0.024 C 
ATOM     12  C   UNL     1      -6.698 -11.830  16.593  0.00  0.00    +0.089 C 
ATOM     13  C   UNL     1      -4.110 -10.440  16.601  0.00  0.00    +0.019 C 
ATOM     14  C   UNL     1      -5.487  -9.756  16.523  0.00  0.00    +0.085 C 
ENDROOT
BRANCH   9  15
ATOM     15  C   UNL     1      -5.481 -14.053  16.784  0.00  0.00    +0.089 C 
BRANCH  15   6
ATOM      2  O   UNL     1      -3.035 -16.910  14.923  0.00  0.00    -0.377 OA
ATOM      6  N   UNL     1      -4.302 -14.799  16.352  0.00  0.00    -0.298 NA
ATOM     17  C   UNL     1      -4.365 -16.191  16.820  0.00  0.00    +0.112 C 
ATOM     18  C   UNL     1      -4.170 -14.766  14.890  0.00  0.00    +0.112 C 
ATOM     19  C   UNL     1      -3.130 -16.953  16.347  0.00  0.00    +0.175 C 
ATOM     20  C   UNL     1      -2.940 -15.562  14.462  0.00  0.00    +0.175 C 
ENDBRANCH  15   6
ENDBRANCH   9  15
BRANCH  10  16
ATOM     16  C   UNL     1      -7.113 -11.241  19.596  0.00  0.00    +0.124 C 
BRANCH  16   7
ATOM      7  N   UNL     1      -8.259 -10.348  19.601  0.00  0.00    -0.188 NA
ATOM     28  H   UNL     1      -8.061  -9.346  19.489  0.00  0.00    +0.148 HD
BRANCH   7   1
ATOM      1  S   UNL     1      -9.813 -10.916  19.159  0.00  0.00    +0.058 S 
ATOM      3  O   UNL     1     -10.646 -10.981  20.345  0.00  0.00    -0.153 OA
ATOM      4  O   UNL     1      -9.681 -12.075  18.297  0.00  0.00    -0.153 OA
BRANCH   1  21
ATOM     21  C   UNL     1     -10.402  -9.588  18.152  0.00  0.00    +0.105 A 
ATOM     22  C   UNL     1      -9.497  -8.692  17.581  0.00  0.00    +0.029 A 
ATOM     23  C   UNL     1     -11.770  -9.433  17.932  0.00  0.00    +0.029 A 
ATOM     24  C   UNL     1      -9.961  -7.643  16.789  0.00  0.00    +0.005 A 
ATOM     25  C   UNL     1     -12.234  -8.384  17.140  0.00  0.00    +0.005 A 
ATOM     26  C   UNL     1     -11.330  -7.488  16.568  0.00  0.00    -0.050 A 
ATOM     27  C   UNL     1     -11.826  -6.366  15.720  0.00  0.00    +0.044 C 
ENDBRANCH   1  21
ENDBRANCH   7   1
ENDBRANCH  16   7
ENDBRANCH  10  16
TORSDOF 6
ENDMDL
MODEL 10
REMARK VINA RESULT:      -5.9     25.101     27.292
REMARK  Name = 28991035
REMARK  7 active torsions:
REMARK  status: ('A' for Active; 'I' for Inactive)
REMARK    1  A    between atoms: S_1  and  N_7
REMARK    2  A    between atoms: S_1  and  C_21
REMARK    3  A    between atoms: N_6  and  C_15
REMARK    4  A    between atoms: N_7  and  C_16
REMARK    5  A    between atoms: C_9  and  C_15
REMARK    6  A    between atoms: C_10  and  C_16
REMARK    7  A    between atoms: C_26  and  C_27
REMARK                            x       y       z     vdW  Elec       q    Type
REMARK                         _______ _______ _______ _____ _____    ______ ____
ROOT
ATOM      5  N   UNL     1      16.530  -2.026  24.713  0.00  0.00    -0.298 NA
ATOM      8  C   UNL     1      18.326  -3.027  23.119  0.00  0.00    -0.003 C 
ATOM      9  C   UNL     1      17.090  -3.950  23.207  0.00  0.00    +0.020 C 
ATOM     10  C   UNL     1      17.848  -2.080  25.401  0.00  0.00    +0.072 C 
ATOM     11  C   UNL     1      18.899  -2.806  24.531  0.00  0.00    +0.024 C 
ATOM     12  C   UNL     1      16.125  -3.383  24.272  0.00  0.00    +0.089 C 
ATOM     13  C   UNL     1      17.828  -1.660  22.610  0.00  0.00    +0.019 C 
ATOM     14  C   UNL     1      16.678  -1.173  23.510  0.00  0.00    +0.085 C 
ENDROOT
BRANCH   9  15
ATOM     15  C   UNL     1      17.446  -5.408  23.489  0.00  0.00    +0.089 C 
BRANCH  15   6
ATOM      2  O   UNL     1      20.795  -7.579  22.191  0.00  0.00    -0.377 OA
ATOM      6  N   UNL     1      18.770  -5.733  22.966  0.00  0.00    -0.298 NA
ATOM     17  C   UNL     1      19.557  -6.475  23.962  0.00  0.00    +0.112 C 
ATOM     18  C   UNL     1      18.664  -6.514  21.726  0.00  0.00    +0.112 C 
ATOM     19  C   UNL     1      20.930  -6.813  23.388  0.00  0.00    +0.175 C 
ATOM     20  C   UNL     1      20.059  -6.852  21.206  0.00  0.00    +0.175 C 
ENDBRANCH  15   6
ENDBRANCH   9  15
BRANCH  10  16
ATOM     16  C   UNL     1      17.753  -2.687  26.802  0.00  0.00    +0.124 C 
BRANCH  16   7
ATOM      7  N   UNL     1      18.149  -4.085  26.786  0.00  0.00    -0.188 NA
ATOM     28  H   UNL     1      18.531  -4.446  25.903  0.00  0.00    +0.148 HD
BRANCH   7   1
ATOM      1  S   UNL     1      18.580  -4.888  28.237  0.00  0.00    +0.058 S 
ATOM      3  O   UNL     1      19.125  -3.919  29.169  0.00  0.00    -0.153 OA
ATOM      4  O   UNL     1      19.322  -6.095  27.923  0.00  0.00    -0.153 OA
BRANCH   1  21
ATOM     21  C   UNL     1      16.999  -5.397  28.842  0.00  0.00    +0.105 A 
ATOM     22  C   UNL     1      16.450  -4.778  29.965  0.00  0.00    +0.029 A 
ATOM     23  C   UNL     1      16.302  -6.419  28.199  0.00  0.00    +0.029 A 
ATOM     24  C   UNL     1      15.204  -5.181  30.444  0.00  0.00    +0.005 A 
ATOM     25  C   UNL     1      15.057  -6.823  28.678  0.00  0.00    +0.005 A 
ATOM     26  C   UNL     1      14.507  -6.204  29.801  0.00  0.00    -0.050 A 
ATOM     27  C   UNL     1      13.174  -6.634  30.313  0.00  0.00    +0.044 C 
ENDBRANCH   1  21
ENDBRANCH   7   1
ENDBRANCH  16   7
ENDBRANCH  10  16
TORSDOF 6
ENDMDL
