REMARK  Name = 26742025
REMARK  8 active torsions:
REMARK  status: ('A' for Active; 'I' for Inactive)
REMARK    1  A    between atoms: O_1  and  C_11
REMARK    2  A    between atoms: O_5  and  C_24
REMARK    3  A    between atoms: O_5  and  C_28
REMARK    4  A    between atoms: N_7  and  C_10
REMARK    5  A    between atoms: N_8  and  C_21
REMARK    6  A    between atoms: N_9  and  C_25
REMARK    7  A    between atoms: C_17  and  C_20
REMARK    8  A    between atoms: C_21  and  C_24
REMARK                            x       y       z     vdW  Elec       q    Type
REMARK                         _______ _______ _______ _____ _____    ______ ____
ROOT
ATOM      4  O   UNL     1       2.872   3.082  -1.152  0.00  0.00    -0.270 OA
ATOM      7  N   UNL     1       2.846   1.274   0.299  0.00  0.00    -0.305 N 
ATOM     17  C   UNL     1       2.261   2.260  -0.473  0.00  0.00    +0.244 C 
ATOM     36  H   UNL     1       2.273   0.564   0.741  0.00  0.00    +0.149 HD
ENDROOT
BRANCH   7  10
ATOM      3  O   UNL     1       3.726  -3.247  -0.376  0.00  0.00    -0.252 OA
ATOM      6  N   UNL     1       4.776  -1.192  -0.513  0.00  0.00    -0.284 N 
ATOM      9  N   UNL     1       2.551  -1.452  -1.266  0.00  0.00    -0.269 N 
ATOM     10  C   UNL     1       4.285   1.110   0.382  0.00  0.00    +0.119 C 
ATOM     11  C   UNL     1       4.653   0.636   1.800  0.00  0.00    +0.136 C 
ATOM     12  C   UNL     1       6.047   0.022   1.956  0.00  0.00    +0.035 C 
ATOM     13  C   UNL     1       4.799   0.252  -0.781  0.00  0.00    +0.134 C 
ATOM     14  C   UNL     1       6.103  -1.459   1.574  0.00  0.00    +0.022 C 
ATOM     15  C   UNL     1       6.003  -1.730   0.078  0.00  0.00    +0.109 C 
ATOM     16  C   UNL     1       3.672  -2.058  -0.700  0.00  0.00    +0.307 C 
ATOM     38  H   UNL     1       2.696  -0.633  -1.847  0.00  0.00    +0.156 HD
BRANCH   9  25
ATOM     25  C   UNL     1       1.187  -1.787  -1.071  0.00  0.00    +0.035 A 
ATOM     31  C   UNL     1       0.191  -1.063  -1.726  0.00  0.00    +0.023 A 
ATOM     32  C   UNL     1       0.841  -2.839  -0.223  0.00  0.00    +0.023 A 
ATOM     33  C   UNL     1      -1.151  -1.392  -1.534  0.00  0.00    +0.002 A 
ATOM     34  C   UNL     1      -0.501  -3.168  -0.031  0.00  0.00    +0.002 A 
ATOM     35  C   UNL     1      -1.497  -2.444  -0.687  0.00  0.00    +0.000 A 
ENDBRANCH   9  25
BRANCH  11   1
ATOM      1  O   UNL     1       4.596   1.775   2.670  0.00  0.00    -0.390 OA
ATOM     37  H   UNL     1       4.700   1.455   3.582  0.00  0.00    +0.210 HD
ENDBRANCH  11   1
ENDBRANCH   7  10
BRANCH  17  20
ATOM     20  C   UNL     1       0.777   2.313  -0.431  0.00  0.00    +0.037 A 
ATOM     26  C   UNL     1       0.067   2.827  -1.516  0.00  0.00    +0.016 A 
ATOM     27  C   UNL     1       0.095   1.851   0.694  0.00  0.00    +0.016 A 
ATOM     28  C   UNL     1      -2.009   2.416  -0.351  0.00  0.00    +0.121 A 
ATOM     29  C   UNL     1      -1.327   2.878  -1.476  0.00  0.00    +0.046 A 
ATOM     30  C   UNL     1      -1.299   1.902   0.734  0.00  0.00    +0.046 A 
BRANCH  28   5
ATOM      5  O   UNL     1      -3.369   2.465  -0.311  0.00  0.00    -0.491 OA
BRANCH   5  24
ATOM     24  C   UNL     1      -4.033   1.464   0.458  0.00  0.00    +0.244 C 
BRANCH  24  21
ATOM     21  C   UNL     1      -5.404   1.210  -0.148  0.00  0.00    +0.125 C 
BRANCH  21   8
ATOM      2  O   UNL     1      -7.788  -2.121   0.762  0.00  0.00    -0.377 OA
ATOM      8  N   UNL     1      -6.115   0.176   0.600  0.00  0.00    -0.295 NA
ATOM     18  C   UNL     1      -5.622  -1.161   0.239  0.00  0.00    +0.112 C 
ATOM     19  C   UNL     1      -7.563   0.260   0.359  0.00  0.00    +0.112 C 
ATOM     22  C   UNL     1      -6.388  -2.224   1.022  0.00  0.00    +0.175 C 
ATOM     23  C   UNL     1      -8.282  -0.836   1.140  0.00  0.00    +0.175 C 
ENDBRANCH  21   8
ENDBRANCH  24  21
ENDBRANCH   5  24
ENDBRANCH  28   5
ENDBRANCH  17  20
TORSDOF 8
