REMARK  Name = 7113955
REMARK  8 active torsions:
REMARK  status: ('A' for Active; 'I' for Inactive)
REMARK    1  A    between atoms: S_1  and  N_11
REMARK    2  A    between atoms: S_1  and  C_25
REMARK    3  A    between atoms: O_6  and  C_35
REMARK    4  A    between atoms: O_6  and  C_38
REMARK    5  A    between atoms: N_10  and  C_24
REMARK    6  A    between atoms: N_11  and  C_22
REMARK    7  A    between atoms: C_32  and  C_36
REMARK    8  A    between atoms: C_36  and  C_37
REMARK                            x       y       z     vdW  Elec       q    Type
REMARK                         _______ _______ _______ _____ _____    ______ ____
ROOT
ATOM      2  O   UNL     1      -1.880  -2.533  -1.815  0.00  0.00    -0.266 OA
ATOM      3  O   UNL     1      -3.040   2.411  -1.576  0.00  0.00    -0.252 OA
ATOM      8  N   UNL     1      -4.111   1.418   0.215  0.00  0.00    -0.284 N 
ATOM      9  N   UNL     1      -3.129  -1.556  -0.090  0.00  0.00    -0.310 N 
ATOM     10  N   UNL     1      -2.041   2.505   0.516  0.00  0.00    -0.269 N 
ATOM     12  C   UNL     1      -5.462  -0.560  -0.447  0.00  0.00    +0.027 C 
ATOM     13  C   UNL     1      -4.420  -0.473   1.785  0.00  0.00    +0.054 C 
ATOM     14  C   UNL     1      -5.675  -0.903   1.024  0.00  0.00    +0.018 C 
ATOM     15  C   UNL     1      -5.218   0.952  -0.623  0.00  0.00    +0.114 C 
ATOM     16  C   UNL     1      -4.290  -1.398  -0.978  0.00  0.00    +0.130 C 
ATOM     17  C   UNL     1      -4.237   1.049   1.636  0.00  0.00    +0.119 C 
ATOM     18  C   UNL     1      -3.191  -1.194   1.263  0.00  0.00    +0.027 A 
ATOM     19  C   UNL     1      -2.156  -1.446   2.085  0.00  0.00    +0.024 A 
ATOM     20  C   UNL     1      -1.989  -2.177  -0.643  0.00  0.00    +0.274 A 
ATOM     21  C   UNL     1      -3.057   2.150  -0.370  0.00  0.00    +0.306 C 
ATOM     22  C   UNL     1      -0.872  -2.406   0.307  0.00  0.00    +0.112 A 
ATOM     23  C   UNL     1      -0.957  -2.071   1.595  0.00  0.00    +0.031 A 
ATOM     39  H   UNL     1      -2.280   2.648   1.491  0.00  0.00    +0.156 HD
ENDROOT
BRANCH  10  24
ATOM     24  C   UNL     1      -0.667   2.687   0.221  0.00  0.00    +0.035 A 
ATOM     26  C   UNL     1       0.223   3.043   1.234  0.00  0.00    +0.024 A 
ATOM     27  C   UNL     1      -0.205   2.508  -1.083  0.00  0.00    +0.024 A 
ATOM     28  C   UNL     1       1.575   3.220   0.943  0.00  0.00    +0.013 A 
ATOM     29  C   UNL     1       1.147   2.686  -1.374  0.00  0.00    +0.013 A 
ATOM     32  C   UNL     1       2.038   3.042  -0.361  0.00  0.00    +0.017 A 
BRANCH  32  36
ATOM      7  O   UNL     1       4.152   4.030  -0.019  0.00  0.00    -0.292 OA
ATOM     36  C   UNL     1       3.447   3.228  -0.665  0.00  0.00    +0.160 C 
ATOM     37  C   UNL     1       4.102   2.437  -1.793  0.00  0.00    +0.091 C 
ENDBRANCH  32  36
ENDBRANCH  10  24
BRANCH  22  11
ATOM     11  N   UNL     1       0.320  -3.007  -0.134  0.00  0.00    -0.211 N 
ATOM     40  H   UNL     1       0.896  -3.367   0.641  0.00  0.00    +0.174 HD
BRANCH  11   1
ATOM      1  S   UNL     1       1.189  -2.201  -1.342  0.00  0.00    +0.073 S 
ATOM      4  O   UNL     1       1.456  -3.110  -2.441  0.00  0.00    -0.150 OA
ATOM      5  O   UNL     1       0.587  -0.906  -1.595  0.00  0.00    -0.150 OA
BRANCH   1  25
ATOM     25  C   UNL     1       2.723  -1.916  -0.509  0.00  0.00    +0.109 A 
ATOM     30  C   UNL     1       2.910  -0.745   0.225  0.00  0.00    +0.032 A 
ATOM     31  C   UNL     1       3.745  -2.862  -0.585  0.00  0.00    +0.032 A 
ATOM     33  C   UNL     1       4.120  -0.520   0.883  0.00  0.00    +0.047 A 
ATOM     34  C   UNL     1       4.954  -2.638   0.073  0.00  0.00    +0.047 A 
ATOM     35  C   UNL     1       5.141  -1.467   0.807  0.00  0.00    +0.120 A 
BRANCH  35   6
ATOM      6  O   UNL     1       6.322  -1.247   1.448  0.00  0.00    -0.495 OA
ATOM     38  C   UNL     1       6.446  -0.029   2.180  0.00  0.00    +0.277 C 
ENDBRANCH  35   6
ENDBRANCH   1  25
ENDBRANCH  11   1
ENDBRANCH  22  11
TORSDOF 6
