MODEL 1
REMARK VINA RESULT:      -7.3      0.000      0.000
REMARK  Name = 9422184
REMARK  4 active torsions:
REMARK  status: ('A' for Active; 'I' for Inactive)
REMARK    1  A    between atoms: O_3  and  C_26
REMARK    2  A    between atoms: O_3  and  C_31
REMARK    3  A    between atoms: N_6  and  C_25
REMARK    4  A    between atoms: C_14  and  C_15
REMARK                            x       y       z     vdW  Elec       q    Type
REMARK                         _______ _______ _______ _____ _____    ______ ____
ROOT
ATOM      1  O   UNL     1      12.569   9.252  16.791  0.00  0.00    -0.267 OA
ATOM      2  O   UNL     1      10.544   9.279  21.620  0.00  0.00    -0.252 OA
ATOM      4  N   UNL     1      13.751   8.706  18.729  0.00  0.00    -0.312 N 
ATOM      5  N   UNL     1      12.718   8.498  21.742  0.00  0.00    -0.284 N 
ATOM      6  N   UNL     1      12.211  10.726  22.328  0.00  0.00    -0.266 N 
ATOM      7  C   UNL     1      13.211   6.641  20.140  0.00  0.00    +0.027 C 
ATOM      8  C   UNL     1      15.015   8.158  20.838  0.00  0.00    +0.054 C 
ATOM      9  C   UNL     1      14.680   6.699  20.538  0.00  0.00    +0.018 C 
ATOM     10  C   UNL     1      13.012   7.442  18.848  0.00  0.00    +0.130 C 
ATOM     11  C   UNL     1      12.326   7.161  21.286  0.00  0.00    +0.114 C 
ATOM     12  C   UNL     1      14.157   8.660  22.019  0.00  0.00    +0.119 C 
ATOM     13  C   UNL     1      14.772   9.034  19.624  0.00  0.00    +0.027 A 
ATOM     15  C   UNL     1      14.275  10.754  17.437  0.00  0.00    +0.020 A 
ATOM     16  C   UNL     1      13.448   9.513  17.613  0.00  0.00    +0.255 A 
ATOM     17  C   UNL     1      15.511  10.139  19.426  0.00  0.00    +0.022 A 
ATOM     20  C   UNL     1      15.253  11.008  18.315  0.00  0.00    +0.011 A 
ATOM     24  C   UNL     1      11.731   9.499  21.874  0.00  0.00    +0.307 C 
ATOM     32  H   UNL     1      13.036  10.732  22.918  0.00  0.00    +0.156 HD
ENDROOT
BRANCH  15  14
ATOM     14  C   UNL     1      13.964  11.643  16.270  0.00  0.00    +0.024 C 
ATOM     18  C   UNL     1      14.210  13.116  16.624  0.00  0.00    +0.008 C 
ATOM     19  C   UNL     1      14.784  11.234  15.039  0.00  0.00    +0.008 C 
ATOM     21  C   UNL     1      13.946  14.035  15.432  0.00  0.00    +0.001 C 
ATOM     22  C   UNL     1      14.518  12.156  13.850  0.00  0.00    +0.001 C 
ATOM     23  C   UNL     1      14.758  13.619  14.210  0.00  0.00    +0.000 C 
ENDBRANCH  15  14
BRANCH   6  25
ATOM     25  C   UNL     1      11.639  12.004  22.109  0.00  0.00    +0.077 A 
ATOM     26  C   UNL     1      10.764  12.557  23.042  0.00  0.00    +0.141 A 
ATOM     27  C   UNL     1      11.960  12.704  20.948  0.00  0.00    +0.027 A 
ATOM     28  C   UNL     1      10.207  13.815  22.813  0.00  0.00    +0.047 A 
ATOM     29  C   UNL     1      11.404  13.961  20.718  0.00  0.00    +0.002 A 
ATOM     30  C   UNL     1      10.529  14.518  21.651  0.00  0.00    +0.004 A 
BRANCH  26   3
ATOM      3  O   UNL     1      10.437  11.886  24.183  0.00  0.00    -0.493 OA
ATOM     31  C   UNL     1      10.883  12.450  25.414  0.00  0.00    +0.277 C 
ENDBRANCH  26   3
ENDBRANCH   6  25
TORSDOF 3
ENDMDL
MODEL 2
REMARK VINA RESULT:      -6.9     14.428     17.680
REMARK  Name = 9422184
REMARK  4 active torsions:
REMARK  status: ('A' for Active; 'I' for Inactive)
REMARK    1  A    between atoms: O_3  and  C_26
REMARK    2  A    between atoms: O_3  and  C_31
REMARK    3  A    between atoms: N_6  and  C_25
REMARK    4  A    between atoms: C_14  and  C_15
REMARK                            x       y       z     vdW  Elec       q    Type
REMARK                         _______ _______ _______ _____ _____    ______ ____
ROOT
ATOM      1  O   UNL     1      10.039   6.997   1.016  0.00  0.00    -0.267 OA
ATOM      2  O   UNL     1      11.775   9.718   5.140  0.00  0.00    -0.252 OA
ATOM      4  N   UNL     1       9.648   6.422   3.245  0.00  0.00    -0.312 N 
ATOM      5  N   UNL     1      10.456   7.981   5.912  0.00  0.00    -0.284 N 
ATOM      6  N   UNL     1      12.809   7.819   5.977  0.00  0.00    -0.266 N 
ATOM      7  C   UNL     1       8.215   7.853   4.809  0.00  0.00    +0.027 C 
ATOM      8  C   UNL     1       9.273   5.803   5.658  0.00  0.00    +0.054 C 
ATOM      9  C   UNL     1       7.942   6.541   5.534  0.00  0.00    +0.018 C 
ATOM     10  C   UNL     1       8.713   7.545   3.392  0.00  0.00    +0.130 C 
ATOM     11  C   UNL     1       9.219   8.705   5.605  0.00  0.00    +0.114 C 
ATOM     12  C   UNL     1      10.261   6.642   6.496  0.00  0.00    +0.119 C 
ATOM     13  C   UNL     1       9.872   5.525   4.292  0.00  0.00    +0.027 A 
ATOM     15  C   UNL     1      11.098   5.034   1.794  0.00  0.00    +0.020 A 
ATOM     16  C   UNL     1      10.223   6.241   1.971  0.00  0.00    +0.255 A 
ATOM     17  C   UNL     1      10.641   4.441   4.096  0.00  0.00    +0.022 A 
ATOM     20  C   UNL     1      11.262   4.198   2.826  0.00  0.00    +0.011 A 
ATOM     24  C   UNL     1      11.700   8.589   5.632  0.00  0.00    +0.307 C 
ATOM     32  H   UNL     1      12.717   7.156   6.739  0.00  0.00    +0.156 HD
ENDROOT
BRANCH  15  14
ATOM     14  C   UNL     1      11.740   4.824   0.455  0.00  0.00    +0.024 C 
ATOM     18  C   UNL     1      13.015   3.979   0.586  0.00  0.00    +0.008 C 
ATOM     19  C   UNL     1      10.754   4.173  -0.526  0.00  0.00    +0.008 C 
ATOM     21  C   UNL     1      13.658   3.713  -0.774  0.00  0.00    +0.001 C 
ATOM     22  C   UNL     1      11.401   3.906  -1.884  0.00  0.00    +0.001 C 
ATOM     23  C   UNL     1      12.672   3.074  -1.746  0.00  0.00    +0.000 C 
ENDBRANCH  15  14
BRANCH   6  25
ATOM     25  C   UNL     1      14.108   7.891   5.416  0.00  0.00    +0.077 A 
ATOM     26  C   UNL     1      14.303   7.669   4.054  0.00  0.00    +0.141 A 
ATOM     27  C   UNL     1      15.191   8.186   6.241  0.00  0.00    +0.027 A 
ATOM     28  C   UNL     1      15.588   7.743   3.515  0.00  0.00    +0.047 A 
ATOM     29  C   UNL     1      16.475   8.260   5.703  0.00  0.00    +0.002 A 
ATOM     30  C   UNL     1      16.674   8.039   4.340  0.00  0.00    +0.004 A 
BRANCH  26   3
ATOM      3  O   UNL     1      13.256   7.379   3.232  0.00  0.00    -0.493 OA
ATOM     31  C   UNL     1      13.177   8.101   2.005  0.00  0.00    +0.277 C 
ENDBRANCH  26   3
ENDBRANCH   6  25
TORSDOF 3
ENDMDL
MODEL 3
REMARK VINA RESULT:      -6.9     17.071     21.337
REMARK  Name = 9422184
REMARK  4 active torsions:
REMARK  status: ('A' for Active; 'I' for Inactive)
REMARK    1  A    between atoms: O_3  and  C_26
REMARK    2  A    between atoms: O_3  and  C_31
REMARK    3  A    between atoms: N_6  and  C_25
REMARK    4  A    between atoms: C_14  and  C_15
REMARK                            x       y       z     vdW  Elec       q    Type
REMARK                         _______ _______ _______ _____ _____    ______ ____
ROOT
ATOM      1  O   UNL     1      12.480   7.976   2.054  0.00  0.00    -0.267 OA
ATOM      2  O   UNL     1      13.027   5.551  -2.555  0.00  0.00    -0.252 OA
ATOM      4  N   UNL     1      12.898   5.693   1.796  0.00  0.00    -0.312 N 
ATOM      5  N   UNL     1      13.420   4.016  -0.870  0.00  0.00    -0.284 N 
ATOM      6  N   UNL     1      11.343   4.060  -1.988  0.00  0.00    -0.266 N 
ATOM      7  C   UNL     1      15.087   4.791   0.826  0.00  0.00    +0.027 C 
ATOM      8  C   UNL     1      13.311   3.227   1.491  0.00  0.00    +0.054 C 
ATOM      9  C   UNL     1      14.792   3.556   1.669  0.00  0.00    +0.018 C 
ATOM     10  C   UNL     1      14.276   5.972   1.370  0.00  0.00    +0.130 C 
ATOM     11  C   UNL     1      14.783   4.512  -0.655  0.00  0.00    +0.114 C 
ATOM     12  C   UNL     1      13.022   2.903   0.010  0.00  0.00    +0.119 C 
ATOM     13  C   UNL     1      12.437   4.383   1.940  0.00  0.00    +0.027 A 
ATOM     15  C   UNL     1      10.734   6.513   2.681  0.00  0.00    +0.020 A 
ATOM     16  C   UNL     1      12.108   6.805   2.148  0.00  0.00    +0.255 A 
ATOM     17  C   UNL     1      11.212   4.151   2.442  0.00  0.00    +0.022 A 
ATOM     20  C   UNL     1      10.352   5.237   2.815  0.00  0.00    +0.011 A 
ATOM     24  C   UNL     1      12.614   4.620  -1.860  0.00  0.00    +0.307 C 
ATOM     32  H   UNL     1      11.221   3.084  -1.745  0.00  0.00    +0.156 HD
ENDROOT
BRANCH  15  14
ATOM     14  C   UNL     1       9.862   7.676   3.046  0.00  0.00    +0.024 C 
ATOM     18  C   UNL     1       9.030   8.136   1.840  0.00  0.00    +0.008 C 
ATOM     19  C   UNL     1       8.953   7.325   4.232  0.00  0.00    +0.008 C 
ATOM     21  C   UNL     1       8.098   9.290   2.203  0.00  0.00    +0.001 C 
ATOM     22  C   UNL     1       8.020   8.481   4.591  0.00  0.00    +0.001 C 
ATOM     23  C   UNL     1       7.203   8.938   3.387  0.00  0.00    +0.000 C 
ENDBRANCH  15  14
BRANCH   6  25
ATOM     25  C   UNL     1      10.178   4.692  -2.488  0.00  0.00    +0.077 A 
ATOM     26  C   UNL     1       9.573   4.237  -3.658  0.00  0.00    +0.141 A 
ATOM     27  C   UNL     1       9.640   5.774  -1.795  0.00  0.00    +0.027 A 
ATOM     28  C   UNL     1       8.425   4.868  -4.138  0.00  0.00    +0.047 A 
ATOM     29  C   UNL     1       8.493   6.405  -2.274  0.00  0.00    +0.002 A 
ATOM     30  C   UNL     1       7.885   5.953  -3.445  0.00  0.00    +0.004 A 
BRANCH  26   3
ATOM      3  O   UNL     1      10.085   3.180  -4.349  0.00  0.00    -0.493 OA
ATOM     31  C   UNL     1       9.669   3.030  -5.704  0.00  0.00    +0.277 C 
ENDBRANCH  26   3
ENDBRANCH   6  25
TORSDOF 3
ENDMDL
MODEL 4
REMARK VINA RESULT:      -6.8      3.151      5.927
REMARK  Name = 9422184
REMARK  4 active torsions:
REMARK  status: ('A' for Active; 'I' for Inactive)
REMARK    1  A    between atoms: O_3  and  C_26
REMARK    2  A    between atoms: O_3  and  C_31
REMARK    3  A    between atoms: N_6  and  C_25
REMARK    4  A    between atoms: C_14  and  C_15
REMARK                            x       y       z     vdW  Elec       q    Type
REMARK                         _______ _______ _______ _____ _____    ______ ____
ROOT
ATOM      1  O   UNL     1      13.527  11.744  21.119  0.00  0.00    -0.267 OA
ATOM      2  O   UNL     1      14.353   6.578  21.342  0.00  0.00    -0.252 OA
ATOM      4  N   UNL     1      13.118  10.258  19.365  0.00  0.00    -0.312 N 
ATOM      5  N   UNL     1      13.389   7.078  19.299  0.00  0.00    -0.284 N 
ATOM      6  N   UNL     1      15.712   6.698  19.467  0.00  0.00    -0.266 N 
ATOM      7  C   UNL     1      11.308   8.453  19.478  0.00  0.00    +0.027 C 
ATOM      8  C   UNL     1      12.721   8.639  17.476  0.00  0.00    +0.054 C 
ATOM      9  C   UNL     1      11.274   8.586  17.961  0.00  0.00    +0.018 C 
ATOM     10  C   UNL     1      11.955   9.708  20.075  0.00  0.00    +0.130 C 
ATOM     11  C   UNL     1      12.049   7.168  19.886  0.00  0.00    +0.114 C 
ATOM     12  C   UNL     1      13.446   7.328  17.847  0.00  0.00    +0.119 C 
ATOM     13  C   UNL     1      13.457   9.819  18.083  0.00  0.00    +0.027 A 
ATOM     15  C   UNL     1      14.928  11.943  19.227  0.00  0.00    +0.020 A 
ATOM     16  C   UNL     1      13.803  11.314  19.998  0.00  0.00    +0.255 A 
ATOM     17  C   UNL     1      14.453  10.417  17.408  0.00  0.00    +0.022 A 
ATOM     20  C   UNL     1      15.196  11.495  17.995  0.00  0.00    +0.011 A 
ATOM     24  C   UNL     1      14.489   6.774  20.132  0.00  0.00    +0.307 C 
ATOM     32  H   UNL     1      15.712   6.428  18.490  0.00  0.00    +0.156 HD
ENDROOT
BRANCH  15  14
ATOM     14  C   UNL     1      15.689  13.057  19.881  0.00  0.00    +0.024 C 
ATOM     18  C   UNL     1      17.202  12.810  19.797  0.00  0.00    +0.008 C 
ATOM     19  C   UNL     1      15.323  14.410  19.254  0.00  0.00    +0.008 C 
ATOM     21  C   UNL     1      17.998  13.958  20.415  0.00  0.00    +0.001 C 
ATOM     22  C   UNL     1      16.123  15.555  19.874  0.00  0.00    +0.001 C 
ATOM     23  C   UNL     1      17.624  15.299  19.794  0.00  0.00    +0.000 C 
ENDBRANCH  15  14
BRANCH   6  25
ATOM     25  C   UNL     1      17.000   6.902  20.020  0.00  0.00    +0.077 A 
ATOM     26  C   UNL     1      17.316   8.102  20.655  0.00  0.00    +0.141 A 
ATOM     27  C   UNL     1      17.950   5.889  19.924  0.00  0.00    +0.027 A 
ATOM     28  C   UNL     1      18.588   8.289  21.195  0.00  0.00    +0.047 A 
ATOM     29  C   UNL     1      19.222   6.074  20.464  0.00  0.00    +0.002 A 
ATOM     30  C   UNL     1      19.541   7.274  21.100  0.00  0.00    +0.004 A 
BRANCH  26   3
ATOM      3  O   UNL     1      16.398   9.105  20.758  0.00  0.00    -0.493 OA
ATOM     31  C   UNL     1      16.402   9.863  21.966  0.00  0.00    +0.277 C 
ENDBRANCH  26   3
ENDBRANCH   6  25
TORSDOF 3
ENDMDL
MODEL 5
REMARK VINA RESULT:      -6.8     25.135     27.200
REMARK  Name = 9422184
REMARK  4 active torsions:
REMARK  status: ('A' for Active; 'I' for Inactive)
REMARK    1  A    between atoms: O_3  and  C_26
REMARK    2  A    between atoms: O_3  and  C_31
REMARK    3  A    between atoms: N_6  and  C_25
REMARK    4  A    between atoms: C_14  and  C_15
REMARK                            x       y       z     vdW  Elec       q    Type
REMARK                         _______ _______ _______ _____ _____    ______ ____
ROOT
ATOM      1  O   UNL     1     -13.932   8.389  18.584  0.00  0.00    -0.267 OA
ATOM      2  O   UNL     1     -16.611   9.930  22.811  0.00  0.00    -0.252 OA
ATOM      4  N   UNL     1     -14.678   6.962  20.275  0.00  0.00    -0.312 N 
ATOM      5  N   UNL     1     -16.446   7.623  22.850  0.00  0.00    -0.284 N 
ATOM      6  N   UNL     1     -15.028   8.948  24.192  0.00  0.00    -0.266 N 
ATOM      7  C   UNL     1     -17.161   6.527  20.718  0.00  0.00    +0.027 C 
ATOM      8  C   UNL     1     -15.462   5.450  22.131  0.00  0.00    +0.054 C 
ATOM      9  C   UNL     1     -16.687   5.184  21.259  0.00  0.00    +0.018 C 
ATOM     10  C   UNL     1     -16.067   7.117  19.821  0.00  0.00    +0.130 C 
ATOM     11  C   UNL     1     -17.531   7.469  21.876  0.00  0.00    +0.114 C 
ATOM     12  C   UNL     1     -15.851   6.358  23.317  0.00  0.00    +0.119 C 
ATOM     13  C   UNL     1     -14.354   6.105  21.329  0.00  0.00    +0.027 A 
ATOM     15  C   UNL     1     -12.264   7.398  19.933  0.00  0.00    +0.020 A 
ATOM     16  C   UNL     1     -13.691   7.638  19.531  0.00  0.00    +0.255 A 
ATOM     17  C   UNL     1     -13.066   5.891  21.650  0.00  0.00    +0.022 A 
ATOM     20  C   UNL     1     -12.010   6.552  20.938  0.00  0.00    +0.011 A 
ATOM     24  C   UNL     1     -16.058   8.920  23.252  0.00  0.00    +0.307 C 
ATOM     32  H   UNL     1     -14.929   8.159  24.821  0.00  0.00    +0.156 HD
ENDROOT
BRANCH  15  14
ATOM     14  C   UNL     1     -11.191   8.118  19.172  0.00  0.00    +0.024 C 
ATOM     18  C   UNL     1     -11.326   7.865  17.664  0.00  0.00    +0.008 C 
ATOM     19  C   UNL     1     -11.223   9.622  19.476  0.00  0.00    +0.008 C 
ATOM     21  C   UNL     1     -10.271   8.629  16.866  0.00  0.00    +0.001 C 
ATOM     22  C   UNL     1     -10.168  10.383  18.675  0.00  0.00    +0.001 C 
ATOM     23  C   UNL     1     -10.302  10.122  17.179  0.00  0.00    +0.000 C 
ENDBRANCH  15  14
BRANCH   6  25
ATOM     25  C   UNL     1     -14.109  10.002  24.422  0.00  0.00    +0.077 A 
ATOM     26  C   UNL     1     -14.135  10.714  25.619  0.00  0.00    +0.141 A 
ATOM     27  C   UNL     1     -13.177  10.319  23.437  0.00  0.00    +0.027 A 
ATOM     28  C   UNL     1     -13.225  11.749  25.832  0.00  0.00    +0.047 A 
ATOM     29  C   UNL     1     -12.266  11.353  23.649  0.00  0.00    +0.002 A 
ATOM     30  C   UNL     1     -12.289  12.068  24.847  0.00  0.00    +0.004 A 
BRANCH  26   3
ATOM      3  O   UNL     1     -15.041  10.418  26.594  0.00  0.00    -0.493 OA
ATOM     31  C   UNL     1     -14.569  10.425  27.939  0.00  0.00    +0.277 C 
ENDBRANCH  26   3
ENDBRANCH   6  25
TORSDOF 3
ENDMDL
MODEL 6
REMARK VINA RESULT:      -6.7      3.034      6.588
REMARK  Name = 9422184
REMARK  4 active torsions:
REMARK  status: ('A' for Active; 'I' for Inactive)
REMARK    1  A    between atoms: O_3  and  C_26
REMARK    2  A    between atoms: O_3  and  C_31
REMARK    3  A    between atoms: N_6  and  C_25
REMARK    4  A    between atoms: C_14  and  C_15
REMARK                            x       y       z     vdW  Elec       q    Type
REMARK                         _______ _______ _______ _____ _____    ______ ____
ROOT
ATOM      1  O   UNL     1      11.414   9.125  22.979  0.00  0.00    -0.267 OA
ATOM      2  O   UNL     1      16.260   7.637  21.664  0.00  0.00    -0.252 OA
ATOM      4  N   UNL     1      12.257   9.122  20.802  0.00  0.00    -0.312 N 
ATOM      5  N   UNL     1      15.093   8.127  19.727  0.00  0.00    -0.284 N 
ATOM      6  N   UNL     1      16.623   9.680  20.630  0.00  0.00    -0.266 N 
ATOM      7  C   UNL     1      12.882   6.971  19.565  0.00  0.00    +0.027 C 
ATOM      8  C   UNL     1      13.201   9.146  18.466  0.00  0.00    +0.054 C 
ATOM      9  C   UNL     1      12.567   7.767  18.305  0.00  0.00    +0.018 C 
ATOM     10  C   UNL     1      12.217   7.654  20.766  0.00  0.00    +0.130 C 
ATOM     11  C   UNL     1      14.403   6.834  19.745  0.00  0.00    +0.114 C 
ATOM     12  C   UNL     1      14.733   9.005  18.599  0.00  0.00    +0.119 C 
ATOM     13  C   UNL     1      12.648   9.862  19.684  0.00  0.00    +0.027 A 
ATOM     15  C   UNL     1      11.730  11.240  21.974  0.00  0.00    +0.020 A 
ATOM     16  C   UNL     1      11.785   9.739  21.977  0.00  0.00    +0.255 A 
ATOM     17  C   UNL     1      12.565  11.204  19.702  0.00  0.00    +0.022 A 
ATOM     20  C   UNL     1      12.099  11.897  20.868  0.00  0.00    +0.011 A 
ATOM     24  C   UNL     1      16.015   8.432  20.753  0.00  0.00    +0.307 C 
ATOM     32  H   UNL     1      16.734  10.071  19.701  0.00  0.00    +0.156 HD
ENDROOT
BRANCH  15  14
ATOM     14  C   UNL     1      11.250  11.926  23.218  0.00  0.00    +0.024 C 
ATOM     18  C   UNL     1      12.410  12.158  24.196  0.00  0.00    +0.008 C 
ATOM     19  C   UNL     1      10.553  13.250  22.876  0.00  0.00    +0.008 C 
ATOM     21  C   UNL     1      11.952  12.901  25.450  0.00  0.00    +0.001 C 
ATOM     22  C   UNL     1      10.098  13.990  24.133  0.00  0.00    +0.001 C 
ATOM     23  C   UNL     1      11.253  14.211  25.104  0.00  0.00    +0.000 C 
ENDBRANCH  15  14
BRANCH   6  25
ATOM     25  C   UNL     1      17.175  10.469  21.669  0.00  0.00    +0.077 A 
ATOM     26  C   UNL     1      18.521  10.348  22.011  0.00  0.00    +0.141 A 
ATOM     27  C   UNL     1      16.358  11.370  22.347  0.00  0.00    +0.027 A 
ATOM     28  C   UNL     1      19.051  11.132  23.036  0.00  0.00    +0.047 A 
ATOM     29  C   UNL     1      16.887  12.153  23.372  0.00  0.00    +0.002 A 
ATOM     30  C   UNL     1      18.233  12.035  23.716  0.00  0.00    +0.004 A 
BRANCH  26   3
ATOM      3  O   UNL     1      19.336   9.472  21.358  0.00  0.00    -0.493 OA
ATOM     31  C   UNL     1      19.738   8.306  22.073  0.00  0.00    +0.277 C 
ENDBRANCH  26   3
ENDBRANCH   6  25
TORSDOF 3
ENDMDL
MODEL 7
REMARK VINA RESULT:      -6.7     22.038     24.562
REMARK  Name = 9422184
REMARK  4 active torsions:
REMARK  status: ('A' for Active; 'I' for Inactive)
REMARK    1  A    between atoms: O_3  and  C_26
REMARK    2  A    between atoms: O_3  and  C_31
REMARK    3  A    between atoms: N_6  and  C_25
REMARK    4  A    between atoms: C_14  and  C_15
REMARK                            x       y       z     vdW  Elec       q    Type
REMARK                         _______ _______ _______ _____ _____    ______ ____
ROOT
ATOM      1  O   UNL     1      -6.322  10.147   5.809  0.00  0.00    -0.267 OA
ATOM      2  O   UNL     1      -2.613  12.323   2.821  0.00  0.00    -0.252 OA
ATOM      4  N   UNL     1      -4.059   9.579   5.879  0.00  0.00    -0.312 N 
ATOM      5  N   UNL     1      -1.600  10.851   4.290  0.00  0.00    -0.284 N 
ATOM      6  N   UNL     1      -1.987  10.230   2.046  0.00  0.00    -0.266 N 
ATOM      7  C   UNL     1      -2.251  11.204   6.678  0.00  0.00    +0.027 C 
ATOM      8  C   UNL     1      -1.618   8.957   5.909  0.00  0.00    +0.054 C 
ATOM      9  C   UNL     1      -1.484   9.946   7.065  0.00  0.00    +0.018 C 
ATOM     10  C   UNL     1      -3.736  10.857   6.528  0.00  0.00    +0.130 C 
ATOM     11  C   UNL     1      -1.665  11.813   5.393  0.00  0.00    +0.114 C 
ATOM     12  C   UNL     1      -0.986   9.555   4.634  0.00  0.00    +0.119 C 
ATOM     13  C   UNL     1      -3.073   8.618   5.646  0.00  0.00    +0.027 A 
ATOM     15  C   UNL     1      -5.759   7.987   5.035  0.00  0.00    +0.020 A 
ATOM     16  C   UNL     1      -5.419   9.335   5.603  0.00  0.00    +0.255 A 
ATOM     17  C   UNL     1      -3.410   7.412   5.159  0.00  0.00    +0.022 A 
ATOM     20  C   UNL     1      -4.775   7.099   4.849  0.00  0.00    +0.011 A 
ATOM     24  C   UNL     1      -2.114  11.214   3.025  0.00  0.00    +0.307 C 
ATOM     32  H   UNL     1      -1.221   9.571   2.124  0.00  0.00    +0.156 HD
ENDROOT
BRANCH  15  14
ATOM     14  C   UNL     1      -7.196   7.705   4.712  0.00  0.00    +0.024 C 
ATOM     18  C   UNL     1      -7.514   8.080   3.258  0.00  0.00    +0.008 C 
ATOM     19  C   UNL     1      -7.536   6.232   4.981  0.00  0.00    +0.008 C 
ATOM     21  C   UNL     1      -8.962   7.755   2.894  0.00  0.00    +0.001 C 
ATOM     22  C   UNL     1      -8.983   5.910   4.613  0.00  0.00    +0.001 C 
ATOM     23  C   UNL     1      -9.295   6.293   3.170  0.00  0.00    +0.000 C 
ENDBRANCH  15  14
BRANCH   6  25
ATOM     25  C   UNL     1      -2.787  10.066   0.889  0.00  0.00    +0.077 A 
ATOM     26  C   UNL     1      -2.198   9.817  -0.349  0.00  0.00    +0.141 A 
ATOM     27  C   UNL     1      -4.172  10.157   1.001  0.00  0.00    +0.027 A 
ATOM     28  C   UNL     1      -2.999   9.658  -1.481  0.00  0.00    +0.047 A 
ATOM     29  C   UNL     1      -4.973   9.998  -0.130  0.00  0.00    +0.002 A 
ATOM     30  C   UNL     1      -4.387   9.748  -1.370  0.00  0.00    +0.004 A 
BRANCH  26   3
ATOM      3  O   UNL     1      -0.844   9.726  -0.478  0.00  0.00    -0.493 OA
ATOM     31  C   UNL     1      -0.177  10.825  -1.094  0.00  0.00    +0.277 C 
ENDBRANCH  26   3
ENDBRANCH   6  25
TORSDOF 3
ENDMDL
MODEL 8
REMARK VINA RESULT:      -6.7     25.105     27.443
REMARK  Name = 9422184
REMARK  4 active torsions:
REMARK  status: ('A' for Active; 'I' for Inactive)
REMARK    1  A    between atoms: O_3  and  C_26
REMARK    2  A    between atoms: O_3  and  C_31
REMARK    3  A    between atoms: N_6  and  C_25
REMARK    4  A    between atoms: C_14  and  C_15
REMARK                            x       y       z     vdW  Elec       q    Type
REMARK                         _______ _______ _______ _____ _____    ______ ____
ROOT
ATOM      1  O   UNL     1     -13.311   9.925  20.478  0.00  0.00    -0.267 OA
ATOM      2  O   UNL     1     -14.542  10.764  15.457  0.00  0.00    -0.252 OA
ATOM      4  N   UNL     1     -11.784   9.880  18.711  0.00  0.00    -0.312 N 
ATOM      5  N   UNL     1     -12.248  10.504  15.615  0.00  0.00    -0.284 N 
ATOM      6  N   UNL     1     -13.607   8.725  14.871  0.00  0.00    -0.266 N 
ATOM      7  C   UNL     1     -11.187  11.962  17.348  0.00  0.00    +0.027 C 
ATOM      8  C   UNL     1     -10.164   9.800  16.784  0.00  0.00    +0.054 C 
ATOM      9  C   UNL     1      -9.857  11.259  17.114  0.00  0.00    +0.018 C 
ATOM     10  C   UNL     1     -11.872  11.340  18.571  0.00  0.00    +0.130 C 
ATOM     11  C   UNL     1     -12.065  11.880  16.088  0.00  0.00    +0.114 C 
ATOM     12  C   UNL     1     -11.005   9.721  15.492  0.00  0.00    +0.119 C 
ATOM     13  C   UNL     1     -10.912   9.129  17.921  0.00  0.00    +0.027 A 
ATOM     15  C   UNL     1     -12.373   7.820  19.955  0.00  0.00    +0.020 A 
ATOM     16  C   UNL     1     -12.543   9.298  19.746  0.00  0.00    +0.255 A 
ATOM     17  C   UNL     1     -10.763   7.813  18.147  0.00  0.00    +0.022 A 
ATOM     20  C   UNL     1     -11.509   7.154  19.180  0.00  0.00    +0.011 A 
ATOM     24  C   UNL     1     -13.551  10.041  15.327  0.00  0.00    +0.307 C 
ATOM     32  H   UNL     1     -12.804   8.352  14.377  0.00  0.00    +0.156 HD
ENDROOT
BRANCH  15  14
ATOM     14  C   UNL     1     -13.182   7.168  21.036  0.00  0.00    +0.024 C 
ATOM     18  C   UNL     1     -14.608   6.876  20.551  0.00  0.00    +0.008 C 
ATOM     19  C   UNL     1     -12.500   5.884  21.527  0.00  0.00    +0.008 C 
ATOM     21  C   UNL     1     -15.435   6.166  21.623  0.00  0.00    +0.001 C 
ATOM     22  C   UNL     1     -13.330   5.176  22.597  0.00  0.00    +0.001 C 
ATOM     23  C   UNL     1     -14.749   4.896  22.112  0.00  0.00    +0.000 C 
ENDBRANCH  15  14
BRANCH   6  25
ATOM     25  C   UNL     1     -14.705   7.833  14.964  0.00  0.00    +0.077 A 
ATOM     26  C   UNL     1     -15.076   7.051  13.872  0.00  0.00    +0.141 A 
ATOM     27  C   UNL     1     -15.410   7.745  16.162  0.00  0.00    +0.027 A 
ATOM     28  C   UNL     1     -16.159   6.178  13.979  0.00  0.00    +0.047 A 
ATOM     29  C   UNL     1     -16.493   6.873  16.269  0.00  0.00    +0.002 A 
ATOM     30  C   UNL     1     -16.867   6.089  15.178  0.00  0.00    +0.004 A 
BRANCH  26   3
ATOM      3  O   UNL     1     -14.398   7.124  12.692  0.00  0.00    -0.493 OA
ATOM     31  C   UNL     1     -15.057   7.770  11.606  0.00  0.00    +0.277 C 
ENDBRANCH  26   3
ENDBRANCH   6  25
TORSDOF 3
ENDMDL
MODEL 9
REMARK VINA RESULT:      -6.6     21.616     24.513
REMARK  Name = 9422184
REMARK  4 active torsions:
REMARK  status: ('A' for Active; 'I' for Inactive)
REMARK    1  A    between atoms: O_3  and  C_26
REMARK    2  A    between atoms: O_3  and  C_31
REMARK    3  A    between atoms: N_6  and  C_25
REMARK    4  A    between atoms: C_14  and  C_15
REMARK                            x       y       z     vdW  Elec       q    Type
REMARK                         _______ _______ _______ _____ _____    ______ ____
ROOT
ATOM      1  O   UNL     1      -0.911  10.443  40.090  0.00  0.00    -0.267 OA
ATOM      2  O   UNL     1      -4.422  13.214  37.366  0.00  0.00    -0.252 OA
ATOM      4  N   UNL     1      -0.600  11.193  37.900  0.00  0.00    -0.312 N 
ATOM      5  N   UNL     1      -2.501  13.011  36.092  0.00  0.00    -0.284 N 
ATOM      6  N   UNL     1      -4.372  11.637  35.667  0.00  0.00    -0.266 N 
ATOM      7  C   UNL     1      -0.416  13.674  37.303  0.00  0.00    +0.027 C 
ATOM      8  C   UNL     1      -0.305  11.980  35.526  0.00  0.00    +0.054 C 
ATOM      9  C   UNL     1       0.415  13.187  36.123  0.00  0.00    +0.018 C 
ATOM     10  C   UNL     1      -0.455  12.576  38.372  0.00  0.00    +0.130 C 
ATOM     11  C   UNL     1      -1.824  14.079  36.835  0.00  0.00    +0.114 C 
ATOM     12  C   UNL     1      -1.700  12.402  35.015  0.00  0.00    +0.119 C 
ATOM     13  C   UNL     1      -0.452  10.870  36.549  0.00  0.00    +0.027 A 
ATOM     15  C   UNL     1      -0.838   8.781  38.412  0.00  0.00    +0.020 A 
ATOM     16  C   UNL     1      -0.792  10.205  38.887  0.00  0.00    +0.255 A 
ATOM     17  C   UNL     1      -0.473   9.585  36.158  0.00  0.00    +0.022 A 
ATOM     20  C   UNL     1      -0.671   8.529  37.108  0.00  0.00    +0.011 A 
ATOM     24  C   UNL     1      -3.820  12.651  36.448  0.00  0.00    +0.307 C 
ATOM     32  H   UNL     1      -4.047  11.535  34.712  0.00  0.00    +0.156 HD
ENDROOT
BRANCH  15  14
ATOM     14  C   UNL     1      -1.060   7.708  39.436  0.00  0.00    +0.024 C 
ATOM     18  C   UNL     1      -2.560   7.478  39.671  0.00  0.00    +0.008 C 
ATOM     19  C   UNL     1      -0.369   6.403  39.017  0.00  0.00    +0.008 C 
ATOM     21  C   UNL     1      -2.809   6.354  40.675  0.00  0.00    +0.001 C 
ATOM     22  C   UNL     1      -0.622   5.281  40.023  0.00  0.00    +0.001 C 
ATOM     23  C   UNL     1      -2.113   5.063  40.258  0.00  0.00    +0.000 C 
ENDBRANCH  15  14
BRANCH   6  25
ATOM     25  C   UNL     1      -5.404  10.740  36.035  0.00  0.00    +0.077 A 
ATOM     26  C   UNL     1      -6.641  10.783  35.395  0.00  0.00    +0.141 A 
ATOM     27  C   UNL     1      -5.171   9.811  37.047  0.00  0.00    +0.027 A 
ATOM     28  C   UNL     1      -7.648   9.893  35.767  0.00  0.00    +0.047 A 
ATOM     29  C   UNL     1      -6.177   8.921  37.420  0.00  0.00    +0.002 A 
ATOM     30  C   UNL     1      -7.416   8.962  36.780  0.00  0.00    +0.004 A 
BRANCH  26   3
ATOM      3  O   UNL     1      -6.888  11.685  34.403  0.00  0.00    -0.493 OA
ATOM     31  C   UNL     1      -8.143  11.583  33.734  0.00  0.00    +0.277 C 
ENDBRANCH  26   3
ENDBRANCH   6  25
TORSDOF 3
ENDMDL
MODEL 10
REMARK VINA RESULT:      -6.5     11.016     13.524
REMARK  Name = 9422184
REMARK  4 active torsions:
REMARK  status: ('A' for Active; 'I' for Inactive)
REMARK    1  A    between atoms: O_3  and  C_26
REMARK    2  A    between atoms: O_3  and  C_31
REMARK    3  A    between atoms: N_6  and  C_25
REMARK    4  A    between atoms: C_14  and  C_15
REMARK                            x       y       z     vdW  Elec       q    Type
REMARK                         _______ _______ _______ _____ _____    ______ ____
ROOT
ATOM      1  O   UNL     1      12.685   8.177   3.645  0.00  0.00    -0.267 OA
ATOM      2  O   UNL     1       8.647   9.994   6.441  0.00  0.00    -0.252 OA
ATOM      4  N   UNL     1      11.564   6.968   5.298  0.00  0.00    -0.312 N 
ATOM      5  N   UNL     1       9.002   7.783   7.021  0.00  0.00    -0.284 N 
ATOM      6  N   UNL     1       9.778   9.525   8.410  0.00  0.00    -0.266 N 
ATOM      7  C   UNL     1       9.123   6.236   5.059  0.00  0.00    +0.027 C 
ATOM      8  C   UNL     1      10.362   5.697   7.112  0.00  0.00    +0.054 C 
ATOM      9  C   UNL     1       9.517   5.097   5.991  0.00  0.00    +0.018 C 
ATOM     10  C   UNL     1      10.390   6.824   4.427  0.00  0.00    +0.130 C 
ATOM     11  C   UNL     1       8.311   7.296   5.823  0.00  0.00    +0.114 C 
ATOM     12  C   UNL     1       9.527   6.726   7.904  0.00  0.00    +0.119 C 
ATOM     13  C   UNL     1      11.606   6.368   6.559  0.00  0.00    +0.027 A 
ATOM     15  C   UNL     1      13.907   7.706   5.612  0.00  0.00    +0.020 A 
ATOM     16  C   UNL     1      12.673   7.649   4.758  0.00  0.00    +0.255 A 
ATOM     17  C   UNL     1      12.733   6.415   7.289  0.00  0.00    +0.022 A 
ATOM     20  C   UNL     1      13.897   7.097   6.803  0.00  0.00    +0.011 A 
ATOM     24  C   UNL     1       9.117   9.174   7.234  0.00  0.00    +0.307 C 
ATOM     32  H   UNL     1       9.740   8.882   9.193  0.00  0.00    +0.156 HD
ENDROOT
BRANCH  15  14
ATOM     14  C   UNL     1      15.098   8.441   5.072  0.00  0.00    +0.024 C 
ATOM     18  C   UNL     1      15.801   9.234   6.183  0.00  0.00    +0.008 C 
ATOM     19  C   UNL     1      16.076   7.472   4.394  0.00  0.00    +0.008 C 
ATOM     21  C   UNL     1      17.046   9.951   5.665  0.00  0.00    +0.001 C 
ATOM     22  C   UNL     1      17.320   8.192   3.879  0.00  0.00    +0.001 C 
ATOM     23  C   UNL     1      18.009   8.984   4.985  0.00  0.00    +0.000 C 
ENDBRANCH  15  14
BRANCH   6  25
ATOM     25  C   UNL     1      10.471  10.732   8.674  0.00  0.00    +0.077 A 
ATOM     26  C   UNL     1       9.912  11.701   9.504  0.00  0.00    +0.141 A 
ATOM     27  C   UNL     1      11.721  10.940   8.096  0.00  0.00    +0.027 A 
ATOM     28  C   UNL     1      10.606  12.885   9.756  0.00  0.00    +0.047 A 
ATOM     29  C   UNL     1      12.415  12.123   8.346  0.00  0.00    +0.002 A 
ATOM     30  C   UNL     1      11.858  13.096   9.177  0.00  0.00    +0.004 A 
BRANCH  26   3
ATOM      3  O   UNL     1       8.690  11.515  10.079  0.00  0.00    -0.493 OA
ATOM     31  C   UNL     1       8.207  12.557  10.924  0.00  0.00    +0.277 C 
ENDBRANCH  26   3
ENDBRANCH   6  25
TORSDOF 3
ENDMDL
