MODEL 1
REMARK VINA RESULT:      -8.1      0.000      0.000
REMARK  Name = 45784062
REMARK  3 active torsions:
REMARK  status: ('A' for Active; 'I' for Inactive)
REMARK    1  A    between atoms: N_8  and  C_21
REMARK    2  A    between atoms: C_9  and  C_13
REMARK    3  A    between atoms: C_19  and  C_22
REMARK                            x       y       z     vdW  Elec       q    Type
REMARK                         _______ _______ _______ _____ _____    ______ ____
ROOT
ATOM      4  O   UNL     1      11.774  11.729  21.446  0.00  0.00    -0.252 OA
ATOM      5  N   UNL     1      11.670   9.443  21.627  0.00  0.00    -0.285 N 
ATOM      8  N   UNL     1      11.621  10.757  23.562  0.00  0.00    -0.269 N 
ATOM      9  C   UNL     1      12.059   7.720  20.033  0.00  0.00    +0.074 C 
ATOM     10  C   UNL     1      11.372   7.125  21.270  0.00  0.00    +0.032 C 
ATOM     11  C   UNL     1      11.750   9.214  20.187  0.00  0.00    +0.120 C 
ATOM     12  C   UNL     1      11.578   8.178  22.352  0.00  0.00    +0.110 C 
ATOM     14  C   UNL     1      11.691  10.734  22.169  0.00  0.00    +0.306 C 
ATOM     29  H   UNL     1      11.584   9.867  24.049  0.00  0.00    +0.156 HD
ENDROOT
BRANCH   9  13
ATOM      6  N   UNL     1      14.378   7.595  21.005  0.00  0.00    -0.342 N 
ATOM      7  N   UNL     1      14.136   6.725  18.974  0.00  0.00    -0.232 NA
ATOM     13  C   UNL     1      13.526   7.331  19.968  0.00  0.00    +0.113 A 
ATOM     15  C   UNL     1      15.619   7.130  20.657  0.00  0.00    +0.067 A 
ATOM     16  C   UNL     1      15.442   6.592  19.384  0.00  0.00    +0.089 A 
ATOM     17  C   UNL     1      16.845   7.133  21.323  0.00  0.00    +0.040 A 
ATOM     18  C   UNL     1      16.542   6.019  18.724  0.00  0.00    +0.030 A 
ATOM     19  C   UNL     1      17.929   6.559  20.652  0.00  0.00    +0.057 A 
ATOM     20  C   UNL     1      17.782   6.011  19.375  0.00  0.00    +0.014 A 
ATOM     28  H   UNL     1      14.138   8.053  21.874  0.00  0.00    +0.167 HD
BRANCH  19  22
ATOM      1  F   UNL     1      20.052   5.489  20.910  0.00  0.00    -0.166 F 
ATOM      2  F   UNL     1      19.178   6.423  22.670  0.00  0.00    -0.166 F 
ATOM      3  F   UNL     1      20.013   7.651  21.081  0.00  0.00    -0.166 F 
ATOM     22  C   UNL     1      19.267   6.531  21.313  0.00  0.00    +0.417 C 
ENDBRANCH  19  22
ENDBRANCH   9  13
BRANCH   8  21
ATOM     21  C   UNL     1      11.620  11.889  24.414  0.00  0.00    +0.035 A 
ATOM     23  C   UNL     1      10.464  12.657  24.553  0.00  0.00    +0.023 A 
ATOM     24  C   UNL     1      12.775  12.233  25.115  0.00  0.00    +0.023 A 
ATOM     25  C   UNL     1      10.464  13.771  25.391  0.00  0.00    +0.002 A 
ATOM     26  C   UNL     1      12.775  13.348  25.954  0.00  0.00    +0.002 A 
ATOM     27  C   UNL     1      11.619  14.116  26.092  0.00  0.00    +0.000 A 
ENDBRANCH   8  21
TORSDOF 3
ENDMDL
MODEL 2
REMARK VINA RESULT:      -8.0     27.735     29.657
REMARK  Name = 45784062
REMARK  3 active torsions:
REMARK  status: ('A' for Active; 'I' for Inactive)
REMARK    1  A    between atoms: N_8  and  C_21
REMARK    2  A    between atoms: C_9  and  C_13
REMARK    3  A    between atoms: C_19  and  C_22
REMARK                            x       y       z     vdW  Elec       q    Type
REMARK                         _______ _______ _______ _____ _____    ______ ____
ROOT
ATOM      4  O   UNL     1      -3.282  -9.134   9.743  0.00  0.00    -0.252 OA
ATOM      5  N   UNL     1      -3.036 -11.020  11.029  0.00  0.00    -0.285 N 
ATOM      8  N   UNL     1      -4.423 -11.079   9.145  0.00  0.00    -0.269 N 
ATOM      9  C   UNL     1      -2.075 -11.341  13.181  0.00  0.00    +0.074 C 
ATOM     10  C   UNL     1      -2.291 -12.705  12.510  0.00  0.00    +0.032 C 
ATOM     11  C   UNL     1      -2.131 -10.386  11.982  0.00  0.00    +0.120 C 
ATOM     12  C   UNL     1      -3.282 -12.414  11.389  0.00  0.00    +0.110 C 
ATOM     14  C   UNL     1      -3.566 -10.317   9.940  0.00  0.00    +0.306 C 
ATOM     29  H   UNL     1      -4.601 -12.038   9.426  0.00  0.00    +0.156 HD
ENDROOT
BRANCH   9  13
ATOM      6  N   UNL     1      -2.887 -11.598  15.550  0.00  0.00    -0.342 N 
ATOM      7  N   UNL     1      -4.206 -10.423  14.201  0.00  0.00    -0.232 NA
ATOM     13  C   UNL     1      -3.083 -11.100  14.292  0.00  0.00    +0.113 A 
ATOM     15  C   UNL     1      -3.954 -11.218  16.323  0.00  0.00    +0.067 A 
ATOM     16  C   UNL     1      -4.764 -10.486  15.457  0.00  0.00    +0.089 A 
ATOM     17  C   UNL     1      -4.271 -11.443  17.662  0.00  0.00    +0.040 A 
ATOM     18  C   UNL     1      -5.964  -9.940  15.940  0.00  0.00    +0.030 A 
ATOM     19  C   UNL     1      -5.471 -10.894  18.126  0.00  0.00    +0.057 A 
ATOM     20  C   UNL     1      -6.304 -10.155  17.282  0.00  0.00    +0.014 A 
ATOM     28  H   UNL     1      -2.097 -12.149  15.859  0.00  0.00    +0.167 HD
BRANCH  19  22
ATOM      1  F   UNL     1      -4.873 -11.637  20.320  0.00  0.00    -0.166 F 
ATOM      2  F   UNL     1      -6.930 -11.944  19.682  0.00  0.00    -0.166 F 
ATOM      3  F   UNL     1      -6.229  -9.949  20.188  0.00  0.00    -0.166 F 
ATOM     22  C   UNL     1      -5.866 -11.100  19.552  0.00  0.00    +0.417 C 
ENDBRANCH  19  22
ENDBRANCH   9  13
BRANCH   8  21
ATOM     21  C   UNL     1      -5.118 -10.675   7.979  0.00  0.00    +0.035 A 
ATOM     23  C   UNL     1      -4.835 -11.278   6.754  0.00  0.00    +0.023 A 
ATOM     24  C   UNL     1      -6.086  -9.674   8.058  0.00  0.00    +0.023 A 
ATOM     25  C   UNL     1      -5.520 -10.878   5.606  0.00  0.00    +0.002 A 
ATOM     26  C   UNL     1      -6.771  -9.275   6.910  0.00  0.00    +0.002 A 
ATOM     27  C   UNL     1      -6.488  -9.877   5.684  0.00  0.00    +0.000 A 
ENDBRANCH   8  21
TORSDOF 3
ENDMDL
MODEL 3
REMARK VINA RESULT:      -8.0      1.556      2.360
REMARK  Name = 45784062
REMARK  3 active torsions:
REMARK  status: ('A' for Active; 'I' for Inactive)
REMARK    1  A    between atoms: N_8  and  C_21
REMARK    2  A    between atoms: C_9  and  C_13
REMARK    3  A    between atoms: C_19  and  C_22
REMARK                            x       y       z     vdW  Elec       q    Type
REMARK                         _______ _______ _______ _____ _____    ______ ____
ROOT
ATOM      4  O   UNL     1      12.695  11.608  20.422  0.00  0.00    -0.252 OA
ATOM      5  N   UNL     1      12.825   9.316  20.429  0.00  0.00    -0.285 N 
ATOM      8  N   UNL     1      11.811  10.421  22.225  0.00  0.00    -0.269 N 
ATOM      9  C   UNL     1      14.057   7.807  19.064  0.00  0.00    +0.074 C 
ATOM     10  C   UNL     1      13.005   7.027  19.866  0.00  0.00    +0.032 C 
ATOM     11  C   UNL     1      13.520   9.241  19.148  0.00  0.00    +0.120 C 
ATOM     12  C   UNL     1      12.607   7.983  20.985  0.00  0.00    +0.110 C 
ATOM     14  C   UNL     1      12.452  10.543  20.992  0.00  0.00    +0.306 C 
ATOM     29  H   UNL     1      11.692   9.488  22.607  0.00  0.00    +0.156 HD
ENDROOT
BRANCH   9  13
ATOM      6  N   UNL     1      16.171   6.455  19.267  0.00  0.00    -0.342 N 
ATOM      7  N   UNL     1      16.129   8.356  20.417  0.00  0.00    -0.232 NA
ATOM     13  C   UNL     1      15.457   7.571  19.605  0.00  0.00    +0.113 A 
ATOM     15  C   UNL     1      17.384   6.524  19.903  0.00  0.00    +0.067 A 
ATOM     16  C   UNL     1      17.333   7.720  20.614  0.00  0.00    +0.089 A 
ATOM     17  C   UNL     1      18.487   5.671  19.916  0.00  0.00    +0.040 A 
ATOM     18  C   UNL     1      18.439   8.102  21.391  0.00  0.00    +0.030 A 
ATOM     19  C   UNL     1      19.580   6.066  20.695  0.00  0.00    +0.057 A 
ATOM     20  C   UNL     1      19.558   7.260  21.419  0.00  0.00    +0.014 A 
ATOM     28  H   UNL     1      15.862   5.709  18.658  0.00  0.00    +0.167 HD
BRANCH  19  22
ATOM      1  F   UNL     1      21.312   5.067  22.006  0.00  0.00    -0.166 F 
ATOM      2  F   UNL     1      21.810   5.666  19.975  0.00  0.00    -0.166 F 
ATOM      3  F   UNL     1      20.565   3.918  20.324  0.00  0.00    -0.166 F 
ATOM     22  C   UNL     1      20.792   5.195  20.750  0.00  0.00    +0.417 C 
ENDBRANCH  19  22
ENDBRANCH   9  13
BRANCH   8  21
ATOM     21  C   UNL     1      11.311  11.457  23.052  0.00  0.00    +0.035 A 
ATOM     23  C   UNL     1      10.795  12.619  22.479  0.00  0.00    +0.023 A 
ATOM     24  C   UNL     1      11.334  11.313  24.439  0.00  0.00    +0.023 A 
ATOM     25  C   UNL     1      10.303  13.638  23.294  0.00  0.00    +0.002 A 
ATOM     26  C   UNL     1      10.843  12.333  25.254  0.00  0.00    +0.002 A 
ATOM     27  C   UNL     1      10.327  13.496  24.681  0.00  0.00    +0.000 A 
ENDBRANCH   8  21
TORSDOF 3
ENDMDL
MODEL 4
REMARK VINA RESULT:      -8.0      4.490      6.843
REMARK  Name = 45784062
REMARK  3 active torsions:
REMARK  status: ('A' for Active; 'I' for Inactive)
REMARK    1  A    between atoms: N_8  and  C_21
REMARK    2  A    between atoms: C_9  and  C_13
REMARK    3  A    between atoms: C_19  and  C_22
REMARK                            x       y       z     vdW  Elec       q    Type
REMARK                         _______ _______ _______ _____ _____    ______ ____
ROOT
ATOM      4  O   UNL     1      13.603   8.682  14.992  0.00  0.00    -0.252 OA
ATOM      5  N   UNL     1      13.353   9.234  17.206  0.00  0.00    -0.285 N 
ATOM      8  N   UNL     1      13.653  10.928  15.620  0.00  0.00    -0.269 N 
ATOM      9  C   UNL     1      13.402   7.900  19.175  0.00  0.00    +0.074 C 
ATOM     10  C   UNL     1      12.839   9.287  19.513  0.00  0.00    +0.032 C 
ATOM     11  C   UNL     1      13.228   7.850  17.652  0.00  0.00    +0.120 C 
ATOM     12  C   UNL     1      13.261  10.157  18.335  0.00  0.00    +0.110 C 
ATOM     14  C   UNL     1      13.540   9.558  15.856  0.00  0.00    +0.306 C 
ATOM     29  H   UNL     1      13.613  11.551  16.420  0.00  0.00    +0.156 HD
ENDROOT
BRANCH   9  13
ATOM      6  N   UNL     1      15.612   6.699  19.285  0.00  0.00    -0.342 N 
ATOM      7  N   UNL     1      15.426   8.495  20.580  0.00  0.00    -0.232 NA
ATOM     13  C   UNL     1      14.816   7.728  19.705  0.00  0.00    +0.113 A 
ATOM     15  C   UNL     1      16.815   6.809  19.933  0.00  0.00    +0.067 A 
ATOM     16  C   UNL     1      16.674   7.938  20.736  0.00  0.00    +0.089 A 
ATOM     17  C   UNL     1      17.980   6.043  19.887  0.00  0.00    +0.040 A 
ATOM     18  C   UNL     1      17.747   8.340  21.548  0.00  0.00    +0.030 A 
ATOM     19  C   UNL     1      19.039   6.456  20.702  0.00  0.00    +0.057 A 
ATOM     20  C   UNL     1      18.926   7.585  21.518  0.00  0.00    +0.014 A 
ATOM     28  H   UNL     1      15.361   5.982  18.617  0.00  0.00    +0.167 HD
BRANCH  19  22
ATOM      1  F   UNL     1      20.745   5.334  21.946  0.00  0.00    -0.166 F 
ATOM      2  F   UNL     1      21.344   6.364  20.126  0.00  0.00    -0.166 F 
ATOM      3  F   UNL     1      20.230   4.501  20.010  0.00  0.00    -0.166 F 
ATOM     22  C   UNL     1      20.313   5.677  20.697  0.00  0.00    +0.417 C 
ENDBRANCH  19  22
ENDBRANCH   9  13
BRANCH   8  21
ATOM     21  C   UNL     1      13.846  11.584  14.379  0.00  0.00    +0.035 A 
ATOM     23  C   UNL     1      15.130  11.705  13.848  0.00  0.00    +0.023 A 
ATOM     24  C   UNL     1      12.752  12.106  13.689  0.00  0.00    +0.023 A 
ATOM     25  C   UNL     1      15.319  12.352  12.626  0.00  0.00    +0.002 A 
ATOM     26  C   UNL     1      12.943  12.753  12.468  0.00  0.00    +0.002 A 
ATOM     27  C   UNL     1      14.226  12.875  11.936  0.00  0.00    +0.000 A 
ENDBRANCH   8  21
TORSDOF 3
ENDMDL
MODEL 5
REMARK VINA RESULT:      -7.6     26.758     29.081
REMARK  Name = 45784062
REMARK  3 active torsions:
REMARK  status: ('A' for Active; 'I' for Inactive)
REMARK    1  A    between atoms: N_8  and  C_21
REMARK    2  A    between atoms: C_9  and  C_13
REMARK    3  A    between atoms: C_19  and  C_22
REMARK                            x       y       z     vdW  Elec       q    Type
REMARK                         _______ _______ _______ _____ _____    ______ ____
ROOT
ATOM      4  O   UNL     1      -9.321 -12.102  17.375  0.00  0.00    -0.252 OA
ATOM      5  N   UNL     1      -7.454 -11.344  18.476  0.00  0.00    -0.285 N 
ATOM      8  N   UNL     1      -9.322  -9.949  18.274  0.00  0.00    -0.269 N 
ATOM      9  C   UNL     1      -5.244 -12.213  18.607  0.00  0.00    +0.074 C 
ATOM     10  C   UNL     1      -5.428 -11.126  19.675  0.00  0.00    +0.032 C 
ATOM     11  C   UNL     1      -6.695 -12.573  18.267  0.00  0.00    +0.120 C 
ATOM     12  C   UNL     1      -6.666 -10.363  19.218  0.00  0.00    +0.110 C 
ATOM     14  C   UNL     1      -8.760 -11.195  17.993  0.00  0.00    +0.306 C 
ATOM     29  H   UNL     1      -8.749  -9.272  18.768  0.00  0.00    +0.156 HD
ENDROOT
BRANCH   9  13
ATOM      6  N   UNL     1      -4.813 -11.780  16.164  0.00  0.00    -0.342 N 
ATOM      7  N   UNL     1      -3.168 -11.217  17.548  0.00  0.00    -0.232 NA
ATOM     13  C   UNL     1      -4.376 -11.726  17.459  0.00  0.00    +0.113 A 
ATOM     15  C   UNL     1      -3.821 -11.273  15.365  0.00  0.00    +0.067 A 
ATOM     16  C   UNL     1      -2.804 -10.929  16.253  0.00  0.00    +0.089 A 
ATOM     17  C   UNL     1      -3.728 -11.091  13.985  0.00  0.00    +0.040 A 
ATOM     18  C   UNL     1      -1.618 -10.370  15.751  0.00  0.00    +0.030 A 
ATOM     19  C   UNL     1      -2.539 -10.534  13.503  0.00  0.00    +0.057 A 
ATOM     20  C   UNL     1      -1.502 -10.178  14.368  0.00  0.00    +0.014 A 
ATOM     28  H   UNL     1      -5.708 -12.131  15.850  0.00  0.00    +0.167 HD
BRANCH  19  22
ATOM      1  F   UNL     1      -3.405  -9.609  11.474  0.00  0.00    -0.166 F 
ATOM      2  F   UNL     1      -2.308 -11.482  11.335  0.00  0.00    -0.166 F 
ATOM      3  F   UNL     1      -1.248  -9.621  11.708  0.00  0.00    -0.166 F 
ATOM     22  C   UNL     1      -2.378 -10.313  12.034  0.00  0.00    +0.417 C 
ENDBRANCH  19  22
ENDBRANCH   9  13
BRANCH   8  21
ATOM     21  C   UNL     1     -10.614  -9.479  17.930  0.00  0.00    +0.035 A 
ATOM     23  C   UNL     1     -11.738  -9.995  18.574  0.00  0.00    +0.023 A 
ATOM     24  C   UNL     1     -10.759  -8.500  16.947  0.00  0.00    +0.023 A 
ATOM     25  C   UNL     1     -13.009  -9.533  18.234  0.00  0.00    +0.002 A 
ATOM     26  C   UNL     1     -12.031  -8.038  16.608  0.00  0.00    +0.002 A 
ATOM     27  C   UNL     1     -13.156  -8.554  17.252  0.00  0.00    +0.000 A 
ENDBRANCH   8  21
TORSDOF 3
ENDMDL
MODEL 6
REMARK VINA RESULT:      -7.5     26.242     28.995
REMARK  Name = 45784062
REMARK  3 active torsions:
REMARK  status: ('A' for Active; 'I' for Inactive)
REMARK    1  A    between atoms: N_8  and  C_21
REMARK    2  A    between atoms: C_9  and  C_13
REMARK    3  A    between atoms: C_19  and  C_22
REMARK                            x       y       z     vdW  Elec       q    Type
REMARK                         _______ _______ _______ _____ _____    ______ ____
ROOT
ATOM      4  O   UNL     1       8.907   4.904  -5.431  0.00  0.00    -0.252 OA
ATOM      5  N   UNL     1       7.251   6.041  -4.319  0.00  0.00    -0.285 N 
ATOM      8  N   UNL     1       8.971   5.024  -3.102  0.00  0.00    -0.269 N 
ATOM      9  C   UNL     1       5.155   6.888  -5.060  0.00  0.00    +0.074 C 
ATOM     10  C   UNL     1       5.486   7.478  -3.681  0.00  0.00    +0.032 C 
ATOM     11  C   UNL     1       6.531   6.404  -5.535  0.00  0.00    +0.120 C 
ATOM     12  C   UNL     1       6.572   6.559  -3.134  0.00  0.00    +0.110 C 
ATOM     14  C   UNL     1       8.431   5.287  -4.361  0.00  0.00    +0.306 C 
ATOM     29  H   UNL     1       8.471   5.370  -2.290  0.00  0.00    +0.156 HD
ENDROOT
BRANCH   9  13
ATOM      6  N   UNL     1       4.227   4.587  -5.489  0.00  0.00    -0.342 N 
ATOM      7  N   UNL     1       2.878   5.985  -4.410  0.00  0.00    -0.232 NA
ATOM     13  C   UNL     1       4.059   5.840  -4.968  0.00  0.00    +0.113 A 
ATOM     15  C   UNL     1       3.079   3.876  -5.254  0.00  0.00    +0.067 A 
ATOM     16  C   UNL     1       2.252   4.771  -4.579  0.00  0.00    +0.089 A 
ATOM     17  C   UNL     1       2.704   2.569  -5.561  0.00  0.00    +0.040 A 
ATOM     18  C   UNL     1       0.971   4.353  -4.182  0.00  0.00    +0.030 A 
ATOM     19  C   UNL     1       1.425   2.169  -5.159  0.00  0.00    +0.057 A 
ATOM     20  C   UNL     1       0.573   3.044  -4.481  0.00  0.00    +0.014 A 
ATOM     28  H   UNL     1       5.051   4.243  -5.966  0.00  0.00    +0.167 HD
BRANCH  19  22
ATOM      1  F   UNL     1       0.749   0.554  -6.788  0.00  0.00    -0.166 F 
ATOM      2  F   UNL     1      -0.210   0.473  -4.838  0.00  0.00    -0.166 F 
ATOM      3  F   UNL     1       1.850  -0.183  -5.071  0.00  0.00    -0.166 F 
ATOM     22  C   UNL     1       0.965   0.780  -5.459  0.00  0.00    +0.417 C 
ENDBRANCH  19  22
ENDBRANCH   9  13
BRANCH   8  21
ATOM     21  C   UNL     1      10.147   4.295  -2.795  0.00  0.00    +0.035 A 
ATOM     23  C   UNL     1      11.228   4.937  -2.192  0.00  0.00    +0.023 A 
ATOM     24  C   UNL     1      10.221   2.935  -3.095  0.00  0.00    +0.023 A 
ATOM     25  C   UNL     1      12.385   4.219  -1.891  0.00  0.00    +0.002 A 
ATOM     26  C   UNL     1      11.378   2.217  -2.794  0.00  0.00    +0.002 A 
ATOM     27  C   UNL     1      12.460   2.859  -2.191  0.00  0.00    +0.000 A 
ENDBRANCH   8  21
TORSDOF 3
ENDMDL
MODEL 7
REMARK VINA RESULT:      -7.3     15.041     17.701
REMARK  Name = 45784062
REMARK  3 active torsions:
REMARK  status: ('A' for Active; 'I' for Inactive)
REMARK    1  A    between atoms: N_8  and  C_21
REMARK    2  A    between atoms: C_9  and  C_13
REMARK    3  A    between atoms: C_19  and  C_22
REMARK                            x       y       z     vdW  Elec       q    Type
REMARK                         _______ _______ _______ _____ _____    ______ ____
ROOT
ATOM      4  O   UNL     1      15.905   6.623   3.719  0.00  0.00    -0.252 OA
ATOM      5  N   UNL     1      14.317   8.275   3.864  0.00  0.00    -0.285 N 
ATOM      8  N   UNL     1      16.468   8.664   4.699  0.00  0.00    -0.269 N 
ATOM      9  C   UNL     1      11.965   8.229   3.518  0.00  0.00    +0.074 C 
ATOM     10  C   UNL     1      12.444   9.687   3.576  0.00  0.00    +0.032 C 
ATOM     11  C   UNL     1      13.271   7.478   3.232  0.00  0.00    +0.120 C 
ATOM     12  C   UNL     1      13.820   9.600   4.225  0.00  0.00    +0.110 C 
ATOM     14  C   UNL     1      15.606   7.766   4.069  0.00  0.00    +0.306 C 
ATOM     29  H   UNL     1      16.097   9.570   4.965  0.00  0.00    +0.156 HD
ENDROOT
BRANCH   9  13
ATOM      6  N   UNL     1      11.464   6.654   5.417  0.00  0.00    -0.342 N 
ATOM      7  N   UNL     1      10.289   8.540   5.394  0.00  0.00    -0.232 NA
ATOM     13  C   UNL     1      11.215   7.838   4.781  0.00  0.00    +0.113 A 
ATOM     15  C   UNL     1      10.644   6.586   6.513  0.00  0.00    +0.067 A 
ATOM     16  C   UNL     1       9.919   7.775   6.476  0.00  0.00    +0.089 A 
ATOM     17  C   UNL     1      10.477   5.618   7.503  0.00  0.00    +0.040 A 
ATOM     18  C   UNL     1       8.969   8.029   7.478  0.00  0.00    +0.030 A 
ATOM     19  C   UNL     1       9.527   5.886   8.493  0.00  0.00    +0.057 A 
ATOM     20  C   UNL     1       8.785   7.070   8.483  0.00  0.00    +0.014 A 
ATOM     28  H   UNL     1      12.133   5.951   5.131  0.00  0.00    +0.167 HD
BRANCH  19  22
ATOM      1  F   UNL     1       8.167   5.117  10.304  0.00  0.00    -0.166 F 
ATOM      2  F   UNL     1      10.319   4.867  10.489  0.00  0.00    -0.166 F 
ATOM      3  F   UNL     1       9.186   3.606   9.128  0.00  0.00    -0.166 F 
ATOM     22  C   UNL     1       9.302   4.888   9.581  0.00  0.00    +0.417 C 
ENDBRANCH  19  22
ENDBRANCH   9  13
BRANCH   8  21
ATOM     21  C   UNL     1      17.827   8.465   5.049  0.00  0.00    +0.035 A 
ATOM     23  C   UNL     1      18.742   8.047   4.084  0.00  0.00    +0.023 A 
ATOM     24  C   UNL     1      18.247   8.688   6.361  0.00  0.00    +0.023 A 
ATOM     25  C   UNL     1      20.079   7.851   4.431  0.00  0.00    +0.002 A 
ATOM     26  C   UNL     1      19.584   8.492   6.706  0.00  0.00    +0.002 A 
ATOM     27  C   UNL     1      20.500   8.074   5.741  0.00  0.00    +0.000 A 
ENDBRANCH   8  21
TORSDOF 3
ENDMDL
MODEL 8
REMARK VINA RESULT:      -7.3     27.878     30.043
REMARK  Name = 45784062
REMARK  3 active torsions:
REMARK  status: ('A' for Active; 'I' for Inactive)
REMARK    1  A    between atoms: N_8  and  C_21
REMARK    2  A    between atoms: C_9  and  C_13
REMARK    3  A    between atoms: C_19  and  C_22
REMARK                            x       y       z     vdW  Elec       q    Type
REMARK                         _______ _______ _______ _____ _____    ______ ____
ROOT
ATOM      4  O   UNL     1     -17.225   4.460  28.029  0.00  0.00    -0.252 OA
ATOM      5  N   UNL     1     -16.809   3.587  25.946  0.00  0.00    -0.285 N 
ATOM      8  N   UNL     1     -15.687   2.719  27.807  0.00  0.00    -0.269 N 
ATOM      9  C   UNL     1     -17.393   4.358  23.773  0.00  0.00    +0.074 C 
ATOM     10  C   UNL     1     -16.902   2.906  23.685  0.00  0.00    +0.032 C 
ATOM     11  C   UNL     1     -17.733   4.487  25.263  0.00  0.00    +0.120 C 
ATOM     12  C   UNL     1     -16.163   2.683  24.999  0.00  0.00    +0.110 C 
ATOM     14  C   UNL     1     -16.616   3.645  27.333  0.00  0.00    +0.306 C 
ATOM     29  H   UNL     1     -15.229   2.118  27.130  0.00  0.00    +0.156 HD
ENDROOT
BRANCH   9  13
ATOM      6  N   UNL     1     -15.380   4.913  22.367  0.00  0.00    -0.342 N 
ATOM      7  N   UNL     1     -16.281   6.616  23.476  0.00  0.00    -0.232 NA
ATOM     13  C   UNL     1     -16.362   5.329  23.223  0.00  0.00    +0.113 A 
ATOM     15  C   UNL     1     -14.613   6.003  22.047  0.00  0.00    +0.067 A 
ATOM     16  C   UNL     1     -15.196   7.054  22.752  0.00  0.00    +0.089 A 
ATOM     17  C   UNL     1     -13.496   6.158  21.227  0.00  0.00    +0.040 A 
ATOM     18  C   UNL     1     -14.643   8.341  22.644  0.00  0.00    +0.030 A 
ATOM     19  C   UNL     1     -12.957   7.445  21.131  0.00  0.00    +0.057 A 
ATOM     20  C   UNL     1     -13.520   8.519  21.827  0.00  0.00    +0.014 A 
ATOM     28  H   UNL     1     -15.241   3.970  22.030  0.00  0.00    +0.167 HD
BRANCH  19  22
ATOM      1  F   UNL     1     -11.787   6.967  19.102  0.00  0.00    -0.166 F 
ATOM      2  F   UNL     1     -10.595   7.325  20.886  0.00  0.00    -0.166 F 
ATOM      3  F   UNL     1     -11.601   8.978  19.894  0.00  0.00    -0.166 F 
ATOM     22  C   UNL     1     -11.760   7.675  20.269  0.00  0.00    +0.417 C 
ENDBRANCH  19  22
ENDBRANCH   9  13
BRANCH   8  21
ATOM     21  C   UNL     1     -15.265   2.518  29.145  0.00  0.00    +0.035 A 
ATOM     23  C   UNL     1     -15.452   1.278  29.756  0.00  0.00    +0.023 A 
ATOM     24  C   UNL     1     -14.661   3.560  29.849  0.00  0.00    +0.023 A 
ATOM     25  C   UNL     1     -15.037   1.081  31.072  0.00  0.00    +0.002 A 
ATOM     26  C   UNL     1     -14.247   3.362  31.166  0.00  0.00    +0.002 A 
ATOM     27  C   UNL     1     -14.434   2.122  31.778  0.00  0.00    +0.000 A 
ENDBRANCH   8  21
TORSDOF 3
ENDMDL
MODEL 9
REMARK VINA RESULT:      -7.2     27.783     29.287
REMARK  Name = 45784062
REMARK  3 active torsions:
REMARK  status: ('A' for Active; 'I' for Inactive)
REMARK    1  A    between atoms: N_8  and  C_21
REMARK    2  A    between atoms: C_9  and  C_13
REMARK    3  A    between atoms: C_19  and  C_22
REMARK                            x       y       z     vdW  Elec       q    Type
REMARK                         _______ _______ _______ _____ _____    ______ ____
ROOT
ATOM      4  O   UNL     1      -8.156 -12.540  16.968  0.00  0.00    -0.252 OA
ATOM      5  N   UNL     1      -6.081 -11.584  17.189  0.00  0.00    -0.285 N 
ATOM      8  N   UNL     1      -7.969 -10.437  17.962  0.00  0.00    -0.269 N 
ATOM      9  C   UNL     1      -3.974 -12.163  16.248  0.00  0.00    +0.074 C 
ATOM     10  C   UNL     1      -3.766 -11.146  17.380  0.00  0.00    +0.032 C 
ATOM     11  C   UNL     1      -5.379 -12.696  16.557  0.00  0.00    +0.120 C 
ATOM     12  C   UNL     1      -5.146 -10.535  17.589  0.00  0.00    +0.110 C 
ATOM     14  C   UNL     1      -7.472 -11.589  17.351  0.00  0.00    +0.306 C 
ATOM     29  H   UNL     1      -7.306  -9.709  18.208  0.00  0.00    +0.156 HD
ENDROOT
BRANCH   9  13
ATOM      6  N   UNL     1      -4.825 -11.029  14.168  0.00  0.00    -0.342 N 
ATOM      7  N   UNL     1      -2.631 -11.378  14.247  0.00  0.00    -0.232 NA
ATOM     13  C   UNL     1      -3.771 -11.527  14.883  0.00  0.00    +0.113 A 
ATOM     15  C   UNL     1      -4.332 -10.526  12.992  0.00  0.00    +0.067 A 
ATOM     16  C   UNL     1      -2.960 -10.756  13.065  0.00  0.00    +0.089 A 
ATOM     17  C   UNL     1      -4.947  -9.907  11.904  0.00  0.00    +0.040 A 
ATOM     18  C   UNL     1      -2.140 -10.353  11.999  0.00  0.00    +0.030 A 
ATOM     19  C   UNL     1      -4.116  -9.512  10.850  0.00  0.00    +0.057 A 
ATOM     20  C   UNL     1      -2.737  -9.730  10.895  0.00  0.00    +0.014 A 
ATOM     28  H   UNL     1      -5.795 -11.031  14.452  0.00  0.00    +0.167 HD
BRANCH  19  22
ATOM      1  F   UNL     1      -5.282  -7.634   9.938  0.00  0.00    -0.166 F 
ATOM      2  F   UNL     1      -5.703  -9.588   9.081  0.00  0.00    -0.166 F 
ATOM      3  F   UNL     1      -3.815  -8.596   8.662  0.00  0.00    -0.166 F 
ATOM     22  C   UNL     1      -4.716  -8.844   9.657  0.00  0.00    +0.417 C 
ENDBRANCH  19  22
ENDBRANCH   9  13
BRANCH   8  21
ATOM     21  C   UNL     1      -9.317 -10.128  18.269  0.00  0.00    +0.035 A 
ATOM     23  C   UNL     1      -9.902 -10.637  19.428  0.00  0.00    +0.023 A 
ATOM     24  C   UNL     1     -10.057  -9.313  17.413  0.00  0.00    +0.023 A 
ATOM     25  C   UNL     1     -11.229 -10.333  19.730  0.00  0.00    +0.002 A 
ATOM     26  C   UNL     1     -11.384  -9.008  17.715  0.00  0.00    +0.002 A 
ATOM     27  C   UNL     1     -11.970  -9.518  18.874  0.00  0.00    +0.000 A 
ENDBRANCH   8  21
TORSDOF 3
ENDMDL
MODEL 10
REMARK VINA RESULT:      -7.1     28.493     30.649
REMARK  Name = 45784062
REMARK  3 active torsions:
REMARK  status: ('A' for Active; 'I' for Inactive)
REMARK    1  A    between atoms: N_8  and  C_21
REMARK    2  A    between atoms: C_9  and  C_13
REMARK    3  A    between atoms: C_19  and  C_22
REMARK                            x       y       z     vdW  Elec       q    Type
REMARK                         _______ _______ _______ _____ _____    ______ ____
ROOT
ATOM      4  O   UNL     1      -3.991  -9.940  16.772  0.00  0.00    -0.252 OA
ATOM      5  N   UNL     1      -5.644 -11.370  17.476  0.00  0.00    -0.285 N 
ATOM      8  N   UNL     1      -4.513 -11.808  15.475  0.00  0.00    -0.269 N 
ATOM      9  C   UNL     1      -7.286 -11.156  19.183  0.00  0.00    +0.074 C 
ATOM     10  C   UNL     1      -7.223 -12.617  18.717  0.00  0.00    +0.032 C 
ATOM     11  C   UNL     1      -5.946 -10.605  18.681  0.00  0.00    +0.120 C 
ATOM     12  C   UNL     1      -6.502 -12.548  17.376  0.00  0.00    +0.110 C 
ATOM     14  C   UNL     1      -4.652 -10.962  16.575  0.00  0.00    +0.306 C 
ATOM     29  H   UNL     1      -5.136 -12.607  15.410  0.00  0.00    +0.156 HD
ENDROOT
BRANCH   9  13
ATOM      6  N   UNL     1      -8.468  -9.357  17.876  0.00  0.00    -0.342 N 
ATOM      7  N   UNL     1      -9.784 -10.811  18.922  0.00  0.00    -0.232 NA
ATOM     13  C   UNL     1      -8.540 -10.463  18.677  0.00  0.00    +0.113 A 
ATOM     15  C   UNL     1      -9.748  -8.965  17.586  0.00  0.00    +0.067 A 
ATOM     16  C   UNL     1     -10.552  -9.888  18.251  0.00  0.00    +0.089 A 
ATOM     17  C   UNL     1     -10.259  -7.915  16.822  0.00  0.00    +0.040 A 
ATOM     18  C   UNL     1     -11.949  -9.772  18.160  0.00  0.00    +0.030 A 
ATOM     19  C   UNL     1     -11.652  -7.813  16.743  0.00  0.00    +0.057 A 
ATOM     20  C   UNL     1     -12.483  -8.724  17.399  0.00  0.00    +0.014 A 
ATOM     28  H   UNL     1      -7.621  -8.906  17.555  0.00  0.00    +0.167 HD
BRANCH  19  22
ATOM      1  F   UNL     1     -12.384  -7.008  14.614  0.00  0.00    -0.166 F 
ATOM      2  F   UNL     1     -11.528  -5.560  15.994  0.00  0.00    -0.166 F 
ATOM      3  F   UNL     1     -13.516  -6.367  16.350  0.00  0.00    -0.166 F 
ATOM     22  C   UNL     1     -12.260  -6.710  15.940  0.00  0.00    +0.417 C 
ENDBRANCH  19  22
ENDBRANCH   9  13
BRANCH   8  21
ATOM     21  C   UNL     1      -3.610 -11.684  14.390  0.00  0.00    +0.035 A 
ATOM     23  C   UNL     1      -2.476 -12.493  14.330  0.00  0.00    +0.023 A 
ATOM     24  C   UNL     1      -3.858 -10.752  13.382  0.00  0.00    +0.023 A 
ATOM     25  C   UNL     1      -1.588 -12.369  13.262  0.00  0.00    +0.002 A 
ATOM     26  C   UNL     1      -2.969 -10.628  12.314  0.00  0.00    +0.002 A 
ATOM     27  C   UNL     1      -1.834 -11.437  12.254  0.00  0.00    +0.000 A 
ENDBRANCH   8  21
TORSDOF 3
ENDMDL
