MODEL 1
REMARK VINA RESULT:      -7.8      0.000      0.000
REMARK  Name = 7142382
REMARK  2 active torsions:
REMARK  status: ('A' for Active; 'I' for Inactive)
REMARK    1  A    between atoms: C_18  and  C_23
REMARK    2  A    between atoms: C_21  and  C_24
REMARK                            x       y       z     vdW  Elec       q    Type
REMARK                         _______ _______ _______ _____ _____    ______ ____
ROOT
ATOM      2  O   UNL     1      16.180   6.071  18.378  0.00  0.00    -0.273 OA
ATOM      3  O   UNL     1      18.706   8.887  22.069  0.00  0.00    -0.270 OA
ATOM      4  O   UNL     1      12.326   6.521  19.287  0.00  0.00    -0.265 OA
ATOM      6  N   UNL     1      16.935   7.746  21.113  0.00  0.00    -0.283 N 
ATOM      7  N   UNL     1      14.249   7.652  20.028  0.00  0.00    -0.290 N 
ATOM      8  N   UNL     1      18.217   5.754  19.342  0.00  0.00    -0.283 N 
ATOM     10  C   UNL     1      16.327   6.471  20.755  0.00  0.00    +0.180 C 
ATOM     11  C   UNL     1      14.795   6.519  20.774  0.00  0.00    +0.140 C 
ATOM     12  C   UNL     1      16.061   8.920  21.149  0.00  0.00    +0.128 C 
ATOM     13  C   UNL     1      15.025   8.893  20.035  0.00  0.00    +0.127 C 
ATOM     14  C   UNL     1      16.889   6.117  19.386  0.00  0.00    +0.239 C 
ATOM     15  C   UNL     1      18.241   7.855  21.583  0.00  0.00    +0.249 C 
ATOM     16  C   UNL     1      19.145   6.679  21.475  0.00  0.00    +0.059 A 
ATOM     17  C   UNL     1      19.169   5.797  20.382  0.00  0.00    +0.046 A 
ATOM     18  C   UNL     1      13.044   7.510  19.353  0.00  0.00    +0.301 C 
ATOM     19  C   UNL     1      20.143   6.580  22.462  0.00  0.00    +0.023 A 
ATOM     20  C   UNL     1      20.232   4.884  20.269  0.00  0.00    +0.024 A 
ATOM     21  C   UNL     1      21.163   5.636  22.357  0.00  0.00    -0.017 A 
ATOM     22  C   UNL     1      21.216   4.796  21.253  0.00  0.00    +0.010 A 
ATOM     30  H   UNL     1      18.520   5.309  18.479  0.00  0.00    +0.155 HD
ENDROOT
BRANCH  21  24
ATOM      1 CL   UNL     1      25.341   5.269  26.589  0.00  0.00    -0.084 Cl
ATOM     24  C   UNL     1      22.178   5.546  23.385  0.00  0.00    -0.018 A 
ATOM     25  C   UNL     1      22.791   4.323  23.655  0.00  0.00    +0.010 A 
ATOM     26  C   UNL     1      22.543   6.684  24.105  0.00  0.00    +0.010 A 
ATOM     27  C   UNL     1      23.769   4.236  24.646  0.00  0.00    +0.020 A 
ATOM     28  C   UNL     1      23.521   6.598  25.096  0.00  0.00    +0.020 A 
ATOM     29  C   UNL     1      24.134   5.374  25.366  0.00  0.00    +0.041 A 
ENDBRANCH  21  24
BRANCH  18  23
ATOM      5  O   UNL     1      11.988   9.582  19.219  0.00  0.00    -0.265 OA
ATOM      9  N   UNL     1      12.870   8.668  17.270  0.00  0.00    -0.322 N 
ATOM     23  C   UNL     1      12.575   8.703  18.607  0.00  0.00    +0.297 C 
ATOM     31  H   UNL     1      12.601   9.428  16.654  0.00  0.00    +0.145 HD
ATOM     32  H   UNL     1      13.367   7.892  16.845  0.00  0.00    +0.145 HD
ENDBRANCH  18  23
TORSDOF 2
ENDMDL
MODEL 2
REMARK VINA RESULT:      -7.6     33.708     34.831
REMARK  Name = 7142382
REMARK  2 active torsions:
REMARK  status: ('A' for Active; 'I' for Inactive)
REMARK    1  A    between atoms: C_18  and  C_23
REMARK    2  A    between atoms: C_21  and  C_24
REMARK                            x       y       z     vdW  Elec       q    Type
REMARK                         _______ _______ _______ _____ _____    ______ ____
ROOT
ATOM      2  O   UNL     1     -14.978   4.308  30.592  0.00  0.00    -0.273 OA
ATOM      3  O   UNL     1     -14.595   4.228  35.861  0.00  0.00    -0.270 OA
ATOM      4  O   UNL     1     -13.557   0.760  29.464  0.00  0.00    -0.265 OA
ATOM      6  N   UNL     1     -14.149   3.561  33.692  0.00  0.00    -0.283 N 
ATOM      7  N   UNL     1     -14.198   1.590  31.567  0.00  0.00    -0.290 N 
ATOM      8  N   UNL     1     -14.599   5.995  32.071  0.00  0.00    -0.283 N 
ATOM     10  C   UNL     1     -13.482   3.825  32.424  0.00  0.00    +0.180 C 
ATOM     11  C   UNL     1     -13.093   2.542  31.681  0.00  0.00    +0.140 C 
ATOM     12  C   UNL     1     -14.608   2.193  33.938  0.00  0.00    +0.128 C 
ATOM     13  C   UNL     1     -15.153   1.540  32.676  0.00  0.00    +0.127 C 
ATOM     14  C   UNL     1     -14.438   4.701  31.628  0.00  0.00    +0.239 C 
ATOM     15  C   UNL     1     -14.207   4.495  34.723  0.00  0.00    +0.249 C 
ATOM     16  C   UNL     1     -13.810   5.901  34.445  0.00  0.00    +0.059 A 
ATOM     17  C   UNL     1     -14.098   6.583  33.251  0.00  0.00    +0.046 A 
ATOM     18  C   UNL     1     -14.299   0.791  30.437  0.00  0.00    +0.301 C 
ATOM     19  C   UNL     1     -13.274   6.613  35.533  0.00  0.00    +0.023 A 
ATOM     20  C   UNL     1     -13.906   7.975  33.201  0.00  0.00    +0.024 A 
ATOM     21  C   UNL     1     -13.046   7.986  35.449  0.00  0.00    -0.017 A 
ATOM     22  C   UNL     1     -13.375   8.670  34.286  0.00  0.00    +0.010 A 
ATOM     30  H   UNL     1     -15.054   6.628  31.417  0.00  0.00    +0.155 HD
ENDROOT
BRANCH  21  24
ATOM      1 CL   UNL     1     -10.754  10.927  40.095  0.00  0.00    -0.084 Cl
ATOM     24  C   UNL     1     -12.489   8.701  36.577  0.00  0.00    -0.018 A 
ATOM     25  C   UNL     1     -13.082   9.885  37.013  0.00  0.00    +0.010 A 
ATOM     26  C   UNL     1     -11.361   8.204  37.229  0.00  0.00    +0.010 A 
ATOM     27  C   UNL     1     -12.546  10.575  38.101  0.00  0.00    +0.020 A 
ATOM     28  C   UNL     1     -10.824   8.893  38.317  0.00  0.00    +0.020 A 
ATOM     29  C   UNL     1     -11.417  10.078  38.752  0.00  0.00    +0.041 A 
ENDBRANCH  21  24
BRANCH  18  23
ATOM      5  O   UNL     1     -16.457   0.209  29.780  0.00  0.00    -0.265 OA
ATOM      9  N   UNL     1     -15.261  -1.297  31.090  0.00  0.00    -0.322 N 
ATOM     23  C   UNL     1     -15.460  -0.131  30.398  0.00  0.00    +0.297 C 
ATOM     31  H   UNL     1     -15.983  -2.008  31.136  0.00  0.00    +0.145 HD
ATOM     32  H   UNL     1     -14.393  -1.497  31.576  0.00  0.00    +0.145 HD
ENDBRANCH  18  23
TORSDOF 2
ENDMDL
MODEL 3
REMARK VINA RESULT:      -7.5      2.549      3.569
REMARK  Name = 7142382
REMARK  2 active torsions:
REMARK  status: ('A' for Active; 'I' for Inactive)
REMARK    1  A    between atoms: C_18  and  C_23
REMARK    2  A    between atoms: C_21  and  C_24
REMARK                            x       y       z     vdW  Elec       q    Type
REMARK                         _______ _______ _______ _____ _____    ______ ____
ROOT
ATOM      2  O   UNL     1      13.421   8.750  19.564  0.00  0.00    -0.273 OA
ATOM      3  O   UNL     1      17.987   9.851  21.986  0.00  0.00    -0.270 OA
ATOM      4  O   UNL     1      10.638   9.949  22.152  0.00  0.00    -0.265 OA
ATOM      6  N   UNL     1      15.711   9.470  21.820  0.00  0.00    -0.283 N 
ATOM      7  N   UNL     1      12.955  10.335  22.058  0.00  0.00    -0.290 N 
ATOM      8  N   UNL     1      15.436   7.697  19.468  0.00  0.00    -0.283 N 
ATOM     10  C   UNL     1      14.621   8.519  21.646  0.00  0.00    +0.180 C 
ATOM     11  C   UNL     1      13.335   8.954  22.358  0.00  0.00    +0.140 C 
ATOM     12  C   UNL     1      15.374  10.786  22.365  0.00  0.00    +0.128 C 
ATOM     13  C   UNL     1      14.039  11.294  21.841  0.00  0.00    +0.127 C 
ATOM     14  C   UNL     1      14.440   8.369  20.142  0.00  0.00    +0.239 C 
ATOM     15  C   UNL     1      17.050   9.122  21.660  0.00  0.00    +0.249 C 
ATOM     16  C   UNL     1      17.383   7.813  21.036  0.00  0.00    +0.059 A 
ATOM     17  C   UNL     1      16.675   7.243  19.966  0.00  0.00    +0.046 A 
ATOM     18  C   UNL     1      11.611  10.674  21.988  0.00  0.00    +0.301 C 
ATOM     19  C   UNL     1      18.593   7.227  21.451  0.00  0.00    +0.023 A 
ATOM     20  C   UNL     1      17.231   6.141  19.293  0.00  0.00    +0.024 A 
ATOM     21  C   UNL     1      19.106   6.105  20.802  0.00  0.00    -0.017 A 
ATOM     22  C   UNL     1      18.431   5.569  19.713  0.00  0.00    +0.010 A 
ATOM     30  H   UNL     1      15.204   7.408  18.521  0.00  0.00    +0.155 HD
ENDROOT
BRANCH  21  24
ATOM      1 CL   UNL     1      24.226   3.670  22.633  0.00  0.00    -0.084 Cl
ATOM     24  C   UNL     1      20.349   5.513  21.247  0.00  0.00    -0.018 A 
ATOM     25  C   UNL     1      20.934   5.936  22.441  0.00  0.00    +0.010 A 
ATOM     26  C   UNL     1      20.963   4.521  20.482  0.00  0.00    +0.010 A 
ATOM     27  C   UNL     1      22.133   5.367  22.870  0.00  0.00    +0.020 A 
ATOM     28  C   UNL     1      22.162   3.951  20.911  0.00  0.00    +0.020 A 
ATOM     29  C   UNL     1      22.747   4.375  22.105  0.00  0.00    +0.041 A 
ENDBRANCH  21  24
BRANCH  18  23
ATOM      5  O   UNL     1      11.739  12.548  20.609  0.00  0.00    -0.265 OA
ATOM      9  N   UNL     1      10.579  12.735  22.618  0.00  0.00    -0.322 N 
ATOM     23  C   UNL     1      11.317  12.090  21.660  0.00  0.00    +0.297 C 
ATOM     31  H   UNL     1      10.314  13.709  22.507  0.00  0.00    +0.145 HD
ATOM     32  H   UNL     1      10.268  12.272  23.466  0.00  0.00    +0.145 HD
ENDBRANCH  18  23
TORSDOF 2
ENDMDL
MODEL 4
REMARK VINA RESULT:      -7.2     27.674     30.663
REMARK  Name = 7142382
REMARK  2 active torsions:
REMARK  status: ('A' for Active; 'I' for Inactive)
REMARK    1  A    between atoms: C_18  and  C_23
REMARK    2  A    between atoms: C_21  and  C_24
REMARK                            x       y       z     vdW  Elec       q    Type
REMARK                         _______ _______ _______ _____ _____    ______ ____
ROOT
ATOM      2  O   UNL     1     -14.098   9.936  21.149  0.00  0.00    -0.273 OA
ATOM      3  O   UNL     1      -9.332   9.088  19.031  0.00  0.00    -0.270 OA
ATOM      4  O   UNL     1     -16.007   6.472  20.656  0.00  0.00    -0.265 OA
ATOM      6  N   UNL     1     -11.576   8.695  19.430  0.00  0.00    -0.283 N 
ATOM      7  N   UNL     1     -13.739   7.052  20.441  0.00  0.00    -0.290 N 
ATOM      8  N   UNL     1     -12.681  11.361  20.083  0.00  0.00    -0.283 N 
ATOM     10  C   UNL     1     -12.964   9.076  19.199  0.00  0.00    +0.180 C 
ATOM     11  C   UNL     1     -13.923   7.881  19.250  0.00  0.00    +0.140 C 
ATOM     12  C   UNL     1     -11.327   7.350  19.950  0.00  0.00    +0.128 C 
ATOM     13  C   UNL     1     -12.378   6.928  20.966  0.00  0.00    +0.127 C 
ATOM     14  C   UNL     1     -13.282  10.133  20.247  0.00  0.00    +0.239 C 
ATOM     15  C   UNL     1     -10.500   9.477  19.018  0.00  0.00    +0.249 C 
ATOM     16  C   UNL     1     -10.755  10.870  18.561  0.00  0.00    +0.059 A 
ATOM     17  C   UNL     1     -11.697  11.734  19.144  0.00  0.00    +0.046 A 
ATOM     18  C   UNL     1     -14.838   6.430  21.018  0.00  0.00    +0.301 C 
ATOM     19  C   UNL     1      -9.856  11.375  17.604  0.00  0.00    +0.023 A 
ATOM     20  C   UNL     1     -11.669  13.098  18.804  0.00  0.00    +0.024 A 
ATOM     21  C   UNL     1      -9.875  12.722  17.244  0.00  0.00    -0.017 A 
ATOM     22  C   UNL     1     -10.773  13.587  17.854  0.00  0.00    +0.010 A 
ATOM     30  H   UNL     1     -13.066  12.115  20.647  0.00  0.00    +0.155 HD
ENDROOT
BRANCH  21  24
ATOM      1 CL   UNL     1      -6.048  14.780  13.168  0.00  0.00    -0.084 Cl
ATOM     24  C   UNL     1      -8.945  13.222  16.254  0.00  0.00    -0.018 A 
ATOM     25  C   UNL     1      -7.589  13.328  16.563  0.00  0.00    +0.010 A 
ATOM     26  C   UNL     1      -9.405  13.596  14.992  0.00  0.00    +0.010 A 
ATOM     27  C   UNL     1      -6.693  13.811  15.609  0.00  0.00    +0.020 A 
ATOM     28  C   UNL     1      -8.509  14.078  14.037  0.00  0.00    +0.020 A 
ATOM     29  C   UNL     1      -7.153  14.185  14.347  0.00  0.00    +0.041 A 
ENDBRANCH  21  24
BRANCH  18  23
ATOM      5  O   UNL     1     -14.669   6.158  23.325  0.00  0.00    -0.265 OA
ATOM      9  N   UNL     1     -14.207   4.328  21.964  0.00  0.00    -0.322 N 
ATOM     23  C   UNL     1     -14.563   5.624  22.232  0.00  0.00    +0.297 C 
ATOM     31  H   UNL     1     -13.995   3.678  22.713  0.00  0.00    +0.145 HD
ATOM     32  H   UNL     1     -14.147   3.968  21.017  0.00  0.00    +0.145 HD
ENDBRANCH  18  23
TORSDOF 2
ENDMDL
MODEL 5
REMARK VINA RESULT:      -7.2     17.686     21.478
REMARK  Name = 7142382
REMARK  2 active torsions:
REMARK  status: ('A' for Active; 'I' for Inactive)
REMARK    1  A    between atoms: C_18  and  C_23
REMARK    2  A    between atoms: C_21  and  C_24
REMARK                            x       y       z     vdW  Elec       q    Type
REMARK                         _______ _______ _______ _____ _____    ______ ____
ROOT
ATOM      2  O   UNL     1      11.451   7.028  -1.266  0.00  0.00    -0.273 OA
ATOM      3  O   UNL     1      11.755   3.184   2.348  0.00  0.00    -0.270 OA
ATOM      4  O   UNL     1      15.089   7.121  -2.890  0.00  0.00    -0.265 OA
ATOM      6  N   UNL     1      12.553   4.778   0.873  0.00  0.00    -0.283 N 
ATOM      7  N   UNL     1      14.040   5.547  -1.493  0.00  0.00    -0.290 N 
ATOM      8  N   UNL     1      10.394   6.795   0.736  0.00  0.00    -0.283 N 
ATOM     10  C   UNL     1      12.777   6.184   0.567  0.00  0.00    +0.180 C 
ATOM     11  C   UNL     1      14.013   6.410  -0.312  0.00  0.00    +0.140 C 
ATOM     12  C   UNL     1      13.314   3.793   0.102  0.00  0.00    +0.128 C 
ATOM     13  C   UNL     1      13.469   4.206  -1.354  0.00  0.00    +0.127 C 
ATOM     14  C   UNL     1      11.493   6.674  -0.086  0.00  0.00    +0.239 C 
ATOM     15  C   UNL     1      11.798   4.353   1.963  0.00  0.00    +0.249 C 
ATOM     16  C   UNL     1      10.969   5.348   2.695  0.00  0.00    +0.059 A 
ATOM     17  C   UNL     1      10.261   6.394   2.081  0.00  0.00    +0.046 A 
ATOM     18  C   UNL     1      14.591   6.023  -2.675  0.00  0.00    +0.301 C 
ATOM     19  C   UNL     1      10.763   5.086   4.062  0.00  0.00    +0.023 A 
ATOM     20  C   UNL     1       9.312   7.107   2.835  0.00  0.00    +0.024 A 
ATOM     21  C   UNL     1       9.852   5.835   4.806  0.00  0.00    -0.017 A 
ATOM     22  C   UNL     1       9.116   6.838   4.189  0.00  0.00    +0.010 A 
ATOM     30  H   UNL     1       9.617   7.327   0.351  0.00  0.00    +0.155 HD
ENDROOT
BRANCH  21  24
ATOM      1 CL   UNL     1       9.051   4.674  10.595  0.00  0.00    -0.084 Cl
ATOM     24  C   UNL     1       9.658   5.553   6.212  0.00  0.00    -0.018 A 
ATOM     25  C   UNL     1       9.238   6.566   7.075  0.00  0.00    +0.010 A 
ATOM     26  C   UNL     1       9.889   4.269   6.705  0.00  0.00    +0.010 A 
ATOM     27  C   UNL     1       9.051   6.295   8.430  0.00  0.00    +0.020 A 
ATOM     28  C   UNL     1       9.702   3.997   8.060  0.00  0.00    +0.020 A 
ATOM     29  C   UNL     1       9.283   5.011   8.922  0.00  0.00    +0.041 A 
ENDBRANCH  21  24
BRANCH  18  23
ATOM      5  O   UNL     1      13.493   4.886  -4.387  0.00  0.00    -0.265 OA
ATOM      9  N   UNL     1      15.780   4.546  -4.128  0.00  0.00    -0.322 N 
ATOM     23  C   UNL     1      14.559   5.088  -3.826  0.00  0.00    +0.297 C 
ATOM     31  H   UNL     1      15.887   3.892  -4.897  0.00  0.00    +0.145 HD
ATOM     32  H   UNL     1      16.620   4.775  -3.606  0.00  0.00    +0.145 HD
ENDBRANCH  18  23
TORSDOF 2
ENDMDL
MODEL 6
REMARK VINA RESULT:      -7.1     29.057     33.064
REMARK  Name = 7142382
REMARK  2 active torsions:
REMARK  status: ('A' for Active; 'I' for Inactive)
REMARK    1  A    between atoms: C_18  and  C_23
REMARK    2  A    between atoms: C_21  and  C_24
REMARK                            x       y       z     vdW  Elec       q    Type
REMARK                         _______ _______ _______ _____ _____    ______ ____
ROOT
ATOM      2  O   UNL     1      -4.693 -12.849  18.207  0.00  0.00    -0.273 OA
ATOM      3  O   UNL     1      -8.197  -8.909  17.852  0.00  0.00    -0.270 OA
ATOM      4  O   UNL     1      -2.998 -12.964  14.602  0.00  0.00    -0.265 OA
ATOM      6  N   UNL     1      -6.749 -10.536  17.075  0.00  0.00    -0.283 N 
ATOM      7  N   UNL     1      -4.374 -11.360  15.632  0.00  0.00    -0.290 N 
ATOM      8  N   UNL     1      -6.710 -12.569  19.225  0.00  0.00    -0.283 N 
ATOM     10  C   UNL     1      -6.475 -11.950  16.849  0.00  0.00    +0.180 C 
ATOM     11  C   UNL     1      -5.578 -12.192  15.629  0.00  0.00    +0.140 C 
ATOM     12  C   UNL     1      -5.937  -9.568  16.336  0.00  0.00    +0.128 C 
ATOM     13  C   UNL     1      -4.489 -10.019  16.208  0.00  0.00    +0.127 C 
ATOM     14  C   UNL     1      -5.863 -12.464  18.143  0.00  0.00    +0.239 C 
ATOM     15  C   UNL     1      -7.843 -10.088  17.810  0.00  0.00    +0.249 C 
ATOM     16  C   UNL     1      -8.618 -11.067  18.618  0.00  0.00    +0.059 A 
ATOM     17  C   UNL     1      -8.047 -12.133  19.332  0.00  0.00    +0.046 A 
ATOM     18  C   UNL     1      -3.194 -11.864  15.103  0.00  0.00    +0.301 C 
ATOM     19  C   UNL     1      -9.982 -10.770  18.797  0.00  0.00    +0.023 A 
ATOM     20  C   UNL     1      -8.839 -12.831  20.261  0.00  0.00    +0.024 A 
ATOM     21  C   UNL     1     -10.764 -11.504  19.688  0.00  0.00    -0.017 A 
ATOM     22  C   UNL     1     -10.189 -12.527  20.431  0.00  0.00    +0.010 A 
ATOM     30  H   UNL     1      -6.355 -13.115  20.006  0.00  0.00    +0.155 HD
ENDROOT
BRANCH  21  24
ATOM      1 CL   UNL     1     -16.535 -10.196  20.379  0.00  0.00    -0.084 Cl
ATOM     24  C   UNL     1     -12.166 -11.186  19.856  0.00  0.00    -0.018 A 
ATOM     25  C   UNL     1     -12.544  -9.922  20.306  0.00  0.00    +0.010 A 
ATOM     26  C   UNL     1     -13.137 -12.145  19.567  0.00  0.00    +0.010 A 
ATOM     27  C   UNL     1     -13.895  -9.615  20.469  0.00  0.00    +0.020 A 
ATOM     28  C   UNL     1     -14.489 -11.838  19.730  0.00  0.00    +0.020 A 
ATOM     29  C   UNL     1     -14.867 -10.573  20.180  0.00  0.00    +0.041 A 
ENDBRANCH  21  24
BRANCH  18  23
ATOM      5  O   UNL     1      -1.781 -10.245  14.204  0.00  0.00    -0.265 OA
ATOM      9  N   UNL     1      -1.319 -11.047  16.338  0.00  0.00    -0.322 N 
ATOM     23  C   UNL     1      -2.019 -10.960  15.164  0.00  0.00    +0.297 C 
ATOM     31  H   UNL     1      -0.495 -10.476  16.500  0.00  0.00    +0.145 HD
ATOM     32  H   UNL     1      -1.594 -11.673  17.088  0.00  0.00    +0.145 HD
ENDBRANCH  18  23
TORSDOF 2
ENDMDL
MODEL 7
REMARK VINA RESULT:      -7.0     29.587     32.283
REMARK  Name = 7142382
REMARK  2 active torsions:
REMARK  status: ('A' for Active; 'I' for Inactive)
REMARK    1  A    between atoms: C_18  and  C_23
REMARK    2  A    between atoms: C_21  and  C_24
REMARK                            x       y       z     vdW  Elec       q    Type
REMARK                         _______ _______ _______ _____ _____    ______ ____
ROOT
ATOM      2  O   UNL     1     -15.564   8.001  23.841  0.00  0.00    -0.273 OA
ATOM      3  O   UNL     1     -11.292   7.197  20.837  0.00  0.00    -0.270 OA
ATOM      4  O   UNL     1     -17.787   4.746  23.255  0.00  0.00    -0.265 OA
ATOM      6  N   UNL     1     -13.463   6.875  21.567  0.00  0.00    -0.283 N 
ATOM      7  N   UNL     1     -15.548   5.226  22.724  0.00  0.00    -0.290 N 
ATOM      8  N   UNL     1     -14.237   9.481  22.733  0.00  0.00    -0.283 N 
ATOM     10  C   UNL     1     -14.836   7.358  21.631  0.00  0.00    +0.180 C 
ATOM     11  C   UNL     1     -15.862   6.220  21.697  0.00  0.00    +0.140 C 
ATOM     12  C   UNL     1     -13.234   5.459  21.862  0.00  0.00    +0.128 C 
ATOM     13  C   UNL     1     -14.132   4.959  22.984  0.00  0.00    +0.127 C 
ATOM     14  C   UNL     1     -14.895   8.276  22.843  0.00  0.00    +0.239 C 
ATOM     15  C   UNL     1     -12.413   7.646  21.076  0.00  0.00    +0.249 C 
ATOM     16  C   UNL     1     -12.633   9.100  20.850  0.00  0.00    +0.059 A 
ATOM     17  C   UNL     1     -13.397   9.925  21.691  0.00  0.00    +0.046 A 
ATOM     18  C   UNL     1     -16.581   4.592  23.400  0.00  0.00    +0.301 C 
ATOM     19  C   UNL     1     -11.868   9.682  19.822  0.00  0.00    +0.023 A 
ATOM     20  C   UNL     1     -13.321  11.320  21.526  0.00  0.00    +0.024 A 
ATOM     21  C   UNL     1     -11.843  11.065  19.643  0.00  0.00    -0.017 A 
ATOM     22  C   UNL     1     -12.560  11.886  20.504  0.00  0.00    +0.010 A 
ATOM     30  H   UNL     1     -14.466  10.170  23.445  0.00  0.00    +0.155 HD
ENDROOT
BRANCH  21  24
ATOM      1 CL   UNL     1      -8.595  13.454  15.257  0.00  0.00    -0.084 Cl
ATOM     24  C   UNL     1     -11.054  11.645  18.578  0.00  0.00    -0.018 A 
ATOM     25  C   UNL     1     -10.305  10.822  17.738  0.00  0.00    +0.010 A 
ATOM     26  C   UNL     1     -11.044  13.027  18.391  0.00  0.00    +0.010 A 
ATOM     27  C   UNL     1      -9.544  11.380  16.711  0.00  0.00    +0.020 A 
ATOM     28  C   UNL     1     -10.283  13.587  17.364  0.00  0.00    +0.020 A 
ATOM     29  C   UNL     1      -9.533  12.762  16.525  0.00  0.00    +0.041 A 
ENDBRANCH  21  24
BRANCH  18  23
ATOM      5  O   UNL     1     -16.087   2.435  24.129  0.00  0.00    -0.265 OA
ATOM      9  N   UNL     1     -15.929   4.178  25.661  0.00  0.00    -0.322 N 
ATOM     23  C   UNL     1     -16.171   3.613  24.436  0.00  0.00    +0.297 C 
ATOM     31  H   UNL     1     -15.640   3.611  26.451  0.00  0.00    +0.145 HD
ATOM     32  H   UNL     1     -16.022   5.175  25.826  0.00  0.00    +0.145 HD
ENDBRANCH  18  23
TORSDOF 2
ENDMDL
MODEL 8
REMARK VINA RESULT:      -6.9     29.160     33.256
REMARK  Name = 7142382
REMARK  2 active torsions:
REMARK  status: ('A' for Active; 'I' for Inactive)
REMARK    1  A    between atoms: C_18  and  C_23
REMARK    2  A    between atoms: C_21  and  C_24
REMARK                            x       y       z     vdW  Elec       q    Type
REMARK                         _______ _______ _______ _____ _____    ______ ____
ROOT
ATOM      2  O   UNL     1      -3.826 -12.087   9.450  0.00  0.00    -0.273 OA
ATOM      3  O   UNL     1      -7.832  -8.648   9.232  0.00  0.00    -0.270 OA
ATOM      4  O   UNL     1      -1.346 -10.515  12.146  0.00  0.00    -0.265 OA
ATOM      6  N   UNL     1      -5.694  -9.387   9.717  0.00  0.00    -0.283 N 
ATOM      7  N   UNL     1      -3.576 -10.014  11.592  0.00  0.00    -0.290 N 
ATOM      8  N   UNL     1      -5.181 -11.506   7.717  0.00  0.00    -0.283 N 
ATOM     10  C   UNL     1      -4.366  -9.743   9.238  0.00  0.00    +0.180 C 
ATOM     11  C   UNL     1      -3.268  -9.465  10.272  0.00  0.00    +0.140 C 
ATOM     12  C   UNL     1      -5.841  -9.109  11.147  0.00  0.00    +0.128 C 
ATOM     13  C   UNL     1      -4.982 -10.033  11.997  0.00  0.00    +0.127 C 
ATOM     14  C   UNL     1      -4.448 -11.211   8.846  0.00  0.00    +0.239 C 
ATOM     15  C   UNL     1      -6.763  -9.133   8.861  0.00  0.00    +0.249 C 
ATOM     16  C   UNL     1      -6.632  -9.488   7.422  0.00  0.00    +0.059 A 
ATOM     17  C   UNL     1      -5.983 -10.639   6.946  0.00  0.00    +0.046 A 
ATOM     18  C   UNL     1      -2.545 -10.488  12.393  0.00  0.00    +0.301 C 
ATOM     19  C   UNL     1      -7.370  -8.693   6.526  0.00  0.00    +0.023 A 
ATOM     20  C   UNL     1      -6.146 -11.003   5.598  0.00  0.00    +0.024 A 
ATOM     21  C   UNL     1      -7.481  -9.044   5.181  0.00  0.00    -0.017 A 
ATOM     22  C   UNL     1      -6.880 -10.207   4.719  0.00  0.00    +0.010 A 
ATOM     30  H   UNL     1      -5.047 -12.441   7.341  0.00  0.00    +0.155 HD
ENDROOT
BRANCH  21  24
ATOM      1 CL   UNL     1     -10.605  -5.613   1.444  0.00  0.00    -0.084 Cl
ATOM     24  C   UNL     1      -8.240  -8.210   4.273  0.00  0.00    -0.018 A 
ATOM     25  C   UNL     1      -9.400  -7.575   4.716  0.00  0.00    +0.010 A 
ATOM     26  C   UNL     1      -7.811  -8.043   2.957  0.00  0.00    +0.010 A 
ATOM     27  C   UNL     1     -10.132  -6.772   3.841  0.00  0.00    +0.020 A 
ATOM     28  C   UNL     1      -8.543  -7.240   2.081  0.00  0.00    +0.020 A 
ATOM     29  C   UNL     1      -9.703  -6.605   2.525  0.00  0.00    +0.041 A 
ENDBRANCH  21  24
BRANCH  18  23
ATOM      5  O   UNL     1      -3.423 -12.168  13.747  0.00  0.00    -0.265 OA
ATOM      9  N   UNL     1      -2.733 -10.189  14.756  0.00  0.00    -0.322 N 
ATOM     23  C   UNL     1      -2.950 -11.043  13.707  0.00  0.00    +0.297 C 
ATOM     31  H   UNL     1      -2.969 -10.456  15.706  0.00  0.00    +0.145 HD
ATOM     32  H   UNL     1      -2.330  -9.266  14.629  0.00  0.00    +0.145 HD
ENDBRANCH  18  23
TORSDOF 2
ENDMDL
MODEL 9
REMARK VINA RESULT:      -6.7     29.208     32.230
REMARK  Name = 7142382
REMARK  2 active torsions:
REMARK  status: ('A' for Active; 'I' for Inactive)
REMARK    1  A    between atoms: C_18  and  C_23
REMARK    2  A    between atoms: C_21  and  C_24
REMARK                            x       y       z     vdW  Elec       q    Type
REMARK                         _______ _______ _______ _____ _____    ______ ____
ROOT
ATOM      2  O   UNL     1     -13.276  10.570  16.982  0.00  0.00    -0.273 OA
ATOM      3  O   UNL     1     -11.279   7.042  20.372  0.00  0.00    -0.270 OA
ATOM      4  O   UNL     1     -11.176  13.883  17.683  0.00  0.00    -0.265 OA
ATOM      6  N   UNL     1     -11.711   9.143  19.506  0.00  0.00    -0.283 N 
ATOM      7  N   UNL     1     -10.842  11.652  18.343  0.00  0.00    -0.290 N 
ATOM      8  N   UNL     1     -14.268   8.824  18.052  0.00  0.00    -0.283 N 
ATOM     10  C   UNL     1     -12.662  10.226  19.291  0.00  0.00    +0.180 C 
ATOM     11  C   UNL     1     -11.990  11.604  19.248  0.00  0.00    +0.140 C 
ATOM     12  C   UNL     1     -10.289   9.458  19.359  0.00  0.00    +0.128 C 
ATOM     13  C   UNL     1     -10.037  10.435  18.220  0.00  0.00    +0.127 C 
ATOM     14  C   UNL     1     -13.392   9.885  18.000  0.00  0.00    +0.239 C 
ATOM     15  C   UNL     1     -12.085   7.898  20.006  0.00  0.00    +0.249 C 
ATOM     16  C   UNL     1     -13.531   7.558  20.082  0.00  0.00    +0.059 A 
ATOM     17  C   UNL     1     -14.481   7.918  19.112  0.00  0.00    +0.046 A 
ATOM     18  C   UNL     1     -10.567  12.822  17.648  0.00  0.00    +0.301 C 
ATOM     19  C   UNL     1     -13.897   6.669  21.109  0.00  0.00    +0.023 A 
ATOM     20  C   UNL     1     -15.755   7.325  19.156  0.00  0.00    +0.024 A 
ATOM     21  C   UNL     1     -15.181   6.128  21.164  0.00  0.00    -0.017 A 
ATOM     22  C   UNL     1     -16.107   6.445  20.179  0.00  0.00    +0.010 A 
ATOM     30  H   UNL     1     -14.907   8.746  17.265  0.00  0.00    +0.155 HD
ENDROOT
BRANCH  21  24
ATOM      1 CL   UNL     1     -16.663   2.386  25.557  0.00  0.00    -0.084 Cl
ATOM     24  C   UNL     1     -15.541   5.219  22.231  0.00  0.00    -0.018 A 
ATOM     25  C   UNL     1     -14.646   4.979  23.273  0.00  0.00    +0.010 A 
ATOM     26  C   UNL     1     -16.783   4.584  22.217  0.00  0.00    +0.010 A 
ATOM     27  C   UNL     1     -14.992   4.102  24.302  0.00  0.00    +0.020 A 
ATOM     28  C   UNL     1     -17.130   3.708  23.246  0.00  0.00    +0.020 A 
ATOM     29  C   UNL     1     -16.234   3.467  24.288  0.00  0.00    +0.041 A 
ENDBRANCH  21  24
BRANCH  18  23
ATOM      5  O   UNL     1      -8.317  13.169  17.154  0.00  0.00    -0.265 OA
ATOM      9  N   UNL     1      -9.684  12.276  15.496  0.00  0.00    -0.322 N 
ATOM     23  C   UNL     1      -9.396  12.775  16.739  0.00  0.00    +0.297 C 
ATOM     31  H   UNL     1      -8.963  12.193  14.786  0.00  0.00    +0.145 HD
ATOM     32  H   UNL     1     -10.616  11.968  15.238  0.00  0.00    +0.145 HD
ENDBRANCH  18  23
TORSDOF 2
ENDMDL
MODEL 10
REMARK VINA RESULT:      -6.7     16.393     19.239
REMARK  Name = 7142382
REMARK  2 active torsions:
REMARK  status: ('A' for Active; 'I' for Inactive)
REMARK    1  A    between atoms: C_18  and  C_23
REMARK    2  A    between atoms: C_21  and  C_24
REMARK                            x       y       z     vdW  Elec       q    Type
REMARK                         _______ _______ _______ _____ _____    ______ ____
ROOT
ATOM      2  O   UNL     1       9.036   8.282   8.707  0.00  0.00    -0.273 OA
ATOM      3  O   UNL     1       9.465   9.166   3.515  0.00  0.00    -0.270 OA
ATOM      4  O   UNL     1      10.780  11.453  10.376  0.00  0.00    -0.265 OA
ATOM      6  N   UNL     1       9.955   9.432   5.759  0.00  0.00    -0.283 N 
ATOM      7  N   UNL     1      10.079  11.034   8.172  0.00  0.00    -0.290 N 
ATOM      8  N   UNL     1       9.263   6.825   6.974  0.00  0.00    -0.283 N 
ATOM     10  C   UNL     1      10.585   8.906   6.964  0.00  0.00    +0.180 C 
ATOM     11  C   UNL     1      11.089  10.012   7.899  0.00  0.00    +0.140 C 
ATOM     12  C   UNL     1       9.632  10.860   5.739  0.00  0.00    +0.128 C 
ATOM     13  C   UNL     1       9.142  11.352   7.093  0.00  0.00    +0.127 C 
ATOM     14  C   UNL     1       9.544   8.010   7.617  0.00  0.00    +0.239 C 
ATOM     15  C   UNL     1       9.817   8.685   4.593  0.00  0.00    +0.249 C 
ATOM     16  C   UNL     1      10.075   7.221   4.640  0.00  0.00    +0.059 A 
ATOM     17  C   UNL     1       9.715   6.388   5.712  0.00  0.00    +0.046 A 
ATOM     18  C   UNL     1      10.046  11.648   9.416  0.00  0.00    +0.301 C 
ATOM     19  C   UNL     1      10.549   6.644   3.447  0.00  0.00    +0.023 A 
ATOM     20  C   UNL     1       9.772   4.994   5.538  0.00  0.00    +0.024 A 
ATOM     21  C   UNL     1      10.645   5.260   3.310  0.00  0.00    -0.017 A 
ATOM     22  C   UNL     1      10.243   4.433   4.351  0.00  0.00    +0.010 A 
ATOM     30  H   UNL     1       8.745   6.142   7.522  0.00  0.00    +0.155 HD
ENDROOT
BRANCH  21  24
ATOM      1 CL   UNL     1      12.680   2.894  -1.765  0.00  0.00    -0.084 Cl
ATOM     24  C   UNL     1      11.139   4.685   2.077  0.00  0.00    -0.018 A 
ATOM     25  C   UNL     1      12.314   3.933   2.081  0.00  0.00    +0.010 A 
ATOM     26  C   UNL     1      10.440   4.882   0.887  0.00  0.00    +0.010 A 
ATOM     27  C   UNL     1      12.792   3.380   0.893  0.00  0.00    +0.020 A 
ATOM     28  C   UNL     1      10.917   4.329  -0.302  0.00  0.00    +0.020 A 
ATOM     29  C   UNL     1      12.093   3.578  -0.298  0.00  0.00    +0.041 A 
ENDBRANCH  21  24
BRANCH  18  23
ATOM      5  O   UNL     1       9.125  13.768   9.121  0.00  0.00    -0.265 OA
ATOM      9  N   UNL     1       7.917  12.203  10.348  0.00  0.00    -0.322 N 
ATOM     23  C   UNL     1       8.978  12.659   9.611  0.00  0.00    +0.297 C 
ATOM     31  H   UNL     1       7.123  12.803  10.548  0.00  0.00    +0.145 HD
ATOM     32  H   UNL     1       7.879  11.258  10.716  0.00  0.00    +0.145 HD
ENDBRANCH  18  23
TORSDOF 2
ENDMDL
