MODEL 1
REMARK VINA RESULT:      -8.7      0.000      0.000
REMARK  Name = 44716227
REMARK  6 active torsions:
REMARK  status: ('A' for Active; 'I' for Inactive)
REMARK    1  A    between atoms: N_5  and  C_16
REMARK    2  A    between atoms: C_10  and  C_17
REMARK    3  A    between atoms: C_11  and  C_16
REMARK    4  A    between atoms: C_22  and  C_24
REMARK    5  A    between atoms: C_25  and  C_26
REMARK    6  A    between atoms: C_31  and  C_32
REMARK                            x       y       z     vdW  Elec       q    Type
REMARK                         _______ _______ _______ _____ _____    ______ ____
ROOT
ATOM      3  N   UNL     1     -18.065   2.294  27.504  0.00  0.00    -0.297 NA
ATOM      9  C   UNL     1     -15.944   2.640  28.970  0.00  0.00    +0.005 C 
ATOM     10  C   UNL     1     -17.181   3.297  29.614  0.00  0.00    +0.092 C 
ATOM     11  C   UNL     1     -16.966   2.863  26.680  0.00  0.00    +0.078 C 
ATOM     12  C   UNL     1     -15.746   3.222  27.557  0.00  0.00    +0.025 C 
ATOM     13  C   UNL     1     -16.269   1.144  28.810  0.00  0.00    +0.020 C 
ATOM     14  C   UNL     1     -18.371   3.192  28.645  0.00  0.00    +0.097 C 
ATOM     15  C   UNL     1     -17.600   0.995  28.050  0.00  0.00    +0.085 C 
ENDROOT
BRANCH  10  17
ATOM      1  O   UNL     1     -16.731   5.569  29.121  0.00  0.00    -0.275 OA
ATOM      4  N   UNL     1     -16.885   5.009  31.371  0.00  0.00    -0.301 N 
ATOM     17  C   UNL     1     -16.912   4.729  30.005  0.00  0.00    +0.220 C 
ATOM     18  C   UNL     1     -16.672   6.383  31.828  0.00  0.00    +0.108 C 
ATOM     19  C   UNL     1     -17.097   4.030  32.444  0.00  0.00    +0.108 C 
ATOM     20  C   UNL     1     -15.502   6.456  32.807  0.00  0.00    +0.032 C 
ATOM     21  C   UNL     1     -15.935   4.054  33.436  0.00  0.00    +0.032 C 
ATOM     22  C   UNL     1     -15.688   5.469  33.963  0.00  0.00    +0.078 C 
BRANCH  22  24
ATOM      2  O   UNL     1     -13.600   6.350  34.722  0.00  0.00    -0.276 OA
ATOM      8  N   UNL     1     -14.417   4.452  35.737  0.00  0.00    -0.329 N 
ATOM     24  C   UNL     1     -14.469   5.488  34.834  0.00  0.00    +0.214 C 
ATOM     38  H   UNL     1     -13.635   4.359  36.376  0.00  0.00    +0.145 HD
ATOM     39  H   UNL     1     -15.142   3.746  35.799  0.00  0.00    +0.145 HD
ENDBRANCH  22  24
ENDBRANCH  10  17
BRANCH  11  16
ATOM     16  C   UNL     1     -17.427   4.052  25.833  0.00  0.00    +0.164 C 
BRANCH  16   5
ATOM      5  N   UNL     1     -16.605   4.189  24.583  0.00  0.00    -0.250 N 
ATOM      6  N   UNL     1     -16.548   3.189  23.688  0.00  0.00    -0.065 NA
ATOM      7  N   UNL     1     -15.758   3.591  22.698  0.00  0.00    -0.130 NA
ATOM     23  C   UNL     1     -15.856   5.256  24.191  0.00  0.00    +0.138 A 
ATOM     25  C   UNL     1     -15.326   4.854  22.991  0.00  0.00    +0.113 A 
BRANCH  25  26
ATOM     26  C   UNL     1     -14.455   5.628  22.166  0.00  0.00    +0.004 A 
ATOM     27  C   UNL     1     -14.966   6.680  21.406  0.00  0.00    +0.011 A 
ATOM     28  C   UNL     1     -13.093   5.330  22.120  0.00  0.00    +0.011 A 
ATOM     29  C   UNL     1     -14.114   7.436  20.600  0.00  0.00    +0.009 A 
ATOM     30  C   UNL     1     -12.241   6.086  21.314  0.00  0.00    +0.009 A 
ATOM     31  C   UNL     1     -12.751   7.138  20.554  0.00  0.00    -0.018 A 
BRANCH  31  32
ATOM     32  C   UNL     1     -11.868   7.921  19.718  0.00  0.00    -0.018 A 
ATOM     33  C   UNL     1     -11.454   7.422  18.483  0.00  0.00    +0.008 A 
ATOM     34  C   UNL     1     -11.428   9.173  20.147  0.00  0.00    +0.008 A 
ATOM     35  C   UNL     1     -10.601   8.176  17.676  0.00  0.00    +0.001 A 
ATOM     36  C   UNL     1     -10.575   9.927  19.341  0.00  0.00    +0.001 A 
ATOM     37  C   UNL     1     -10.162   9.428  18.105  0.00  0.00    +0.000 A 
ENDBRANCH  31  32
ENDBRANCH  25  26
ENDBRANCH  16   5
ENDBRANCH  11  16
TORSDOF 6
ENDMDL
MODEL 2
REMARK VINA RESULT:      -8.6     28.392     32.278
REMARK  Name = 44716227
REMARK  6 active torsions:
REMARK  status: ('A' for Active; 'I' for Inactive)
REMARK    1  A    between atoms: N_5  and  C_16
REMARK    2  A    between atoms: C_10  and  C_17
REMARK    3  A    between atoms: C_11  and  C_16
REMARK    4  A    between atoms: C_22  and  C_24
REMARK    5  A    between atoms: C_25  and  C_26
REMARK    6  A    between atoms: C_31  and  C_32
REMARK                            x       y       z     vdW  Elec       q    Type
REMARK                         _______ _______ _______ _____ _____    ______ ____
ROOT
ATOM      3  N   UNL     1      12.259   6.961  19.600  0.00  0.00    -0.297 NA
ATOM      9  C   UNL     1      12.174   8.139  21.917  0.00  0.00    +0.005 C 
ATOM     10  C   UNL     1      11.459   8.977  20.838  0.00  0.00    +0.092 C 
ATOM     11  C   UNL     1      13.629   7.054  20.171  0.00  0.00    +0.078 C 
ATOM     12  C   UNL     1      13.628   7.885  21.473  0.00  0.00    +0.025 C 
ATOM     13  C   UNL     1      11.463   6.775  21.964  0.00  0.00    +0.020 C 
ATOM     14  C   UNL     1      11.663   8.312  19.466  0.00  0.00    +0.097 C 
ATOM     15  C   UNL     1      11.424   6.178  20.544  0.00  0.00    +0.085 C 
ENDROOT
BRANCH  10  17
ATOM      1  O   UNL     1      12.668  10.795  19.920  0.00  0.00    -0.275 OA
ATOM      4  N   UNL     1      11.512  11.211  21.892  0.00  0.00    -0.301 N 
ATOM     17  C   UNL     1      11.937  10.407  20.835  0.00  0.00    +0.220 C 
ATOM     18  C   UNL     1      11.899  12.622  21.936  0.00  0.00    +0.108 C 
ATOM     19  C   UNL     1      10.643  10.778  22.993  0.00  0.00    +0.108 C 
ATOM     20  C   UNL     1      12.573  12.961  23.264  0.00  0.00    +0.032 C 
ATOM     21  C   UNL     1      11.291  11.078  24.343  0.00  0.00    +0.032 C 
ATOM     22  C   UNL     1      11.693  12.551  24.448  0.00  0.00    +0.078 C 
BRANCH  22  24
ATOM      2  O   UNL     1      13.363  12.071  26.089  0.00  0.00    -0.276 OA
ATOM      8  N   UNL     1      11.968  13.867  26.446  0.00  0.00    -0.329 N 
ATOM     24  C   UNL     1      12.435  12.792  25.726  0.00  0.00    +0.214 C 
ATOM     38  H   UNL     1      12.390  14.123  27.332  0.00  0.00    +0.145 HD
ATOM     39  H   UNL     1      11.191  14.437  26.130  0.00  0.00    +0.145 HD
ENDBRANCH  22  24
ENDBRANCH  10  17
BRANCH  11  16
ATOM     16  C   UNL     1      14.648   7.583  19.160  0.00  0.00    +0.164 C 
BRANCH  16   5
ATOM      5  N   UNL     1      15.949   6.836  19.246  0.00  0.00    -0.250 N 
ATOM      6  N   UNL     1      16.294   5.950  18.298  0.00  0.00    -0.065 NA
ATOM      7  N   UNL     1      17.480   5.453  18.636  0.00  0.00    -0.130 NA
ATOM     23  C   UNL     1      16.902   6.933  20.214  0.00  0.00    +0.138 A 
ATOM     25  C   UNL     1      17.866   6.046  19.806  0.00  0.00    +0.113 A 
BRANCH  25  26
ATOM     26  C   UNL     1      19.088   5.773  20.490  0.00  0.00    +0.004 A 
ATOM     27  C   UNL     1      19.483   6.577  21.560  0.00  0.00    +0.011 A 
ATOM     28  C   UNL     1      19.888   4.703  20.089  0.00  0.00    +0.011 A 
ATOM     29  C   UNL     1      20.678   6.310  22.229  0.00  0.00    +0.009 A 
ATOM     30  C   UNL     1      21.083   4.436  20.758  0.00  0.00    +0.009 A 
ATOM     31  C   UNL     1      21.478   5.239  21.827  0.00  0.00    -0.018 A 
BRANCH  31  32
ATOM     32  C   UNL     1      22.717   4.962  22.519  0.00  0.00    -0.018 A 
ATOM     33  C   UNL     1      23.066   3.647  22.826  0.00  0.00    +0.008 A 
ATOM     34  C   UNL     1      23.564   6.010  22.882  0.00  0.00    +0.008 A 
ATOM     35  C   UNL     1      24.261   3.379  23.493  0.00  0.00    +0.001 A 
ATOM     36  C   UNL     1      24.759   5.742  23.550  0.00  0.00    +0.001 A 
ATOM     37  C   UNL     1      25.108   4.427  23.856  0.00  0.00    +0.000 A 
ENDBRANCH  31  32
ENDBRANCH  25  26
ENDBRANCH  16   5
ENDBRANCH  11  16
TORSDOF 6
ENDMDL
MODEL 3
REMARK VINA RESULT:      -8.1     28.449     32.573
REMARK  Name = 44716227
REMARK  6 active torsions:
REMARK  status: ('A' for Active; 'I' for Inactive)
REMARK    1  A    between atoms: N_5  and  C_16
REMARK    2  A    between atoms: C_10  and  C_17
REMARK    3  A    between atoms: C_11  and  C_16
REMARK    4  A    between atoms: C_22  and  C_24
REMARK    5  A    between atoms: C_25  and  C_26
REMARK    6  A    between atoms: C_31  and  C_32
REMARK                            x       y       z     vdW  Elec       q    Type
REMARK                         _______ _______ _______ _____ _____    ______ ____
ROOT
ATOM      3  N   UNL     1      13.981   8.747  19.267  0.00  0.00    -0.297 NA
ATOM      9  C   UNL     1      11.458   8.366  19.777  0.00  0.00    +0.005 C 
ATOM     10  C   UNL     1      11.961   9.684  20.399  0.00  0.00    +0.092 C 
ATOM     11  C   UNL     1      13.781   7.395  19.854  0.00  0.00    +0.078 C 
ATOM     12  C   UNL     1      12.317   7.202  20.309  0.00  0.00    +0.025 C 
ATOM     13  C   UNL     1      11.708   8.466  18.261  0.00  0.00    +0.020 C 
ATOM     14  C   UNL     1      13.482   9.791  20.195  0.00  0.00    +0.097 C 
ATOM     15  C   UNL     1      13.186   8.822  18.016  0.00  0.00    +0.085 C 
ENDROOT
BRANCH  10  17
ATOM      1  O   UNL     1      11.207   8.782  22.455  0.00  0.00    -0.275 OA
ATOM      4  N   UNL     1      11.707  11.051  22.441  0.00  0.00    -0.301 N 
ATOM     17  C   UNL     1      11.590   9.790  21.857  0.00  0.00    +0.220 C 
ATOM     18  C   UNL     1      11.406  11.225  23.863  0.00  0.00    +0.108 C 
ATOM     19  C   UNL     1      12.159  12.268  21.755  0.00  0.00    +0.108 C 
ATOM     20  C   UNL     1      10.369  12.327  24.070  0.00  0.00    +0.032 C 
ATOM     21  C   UNL     1      11.137  13.391  21.918  0.00  0.00    +0.032 C 
ATOM     22  C   UNL     1      10.807  13.629  23.393  0.00  0.00    +0.078 C 
BRANCH  22  24
ATOM      2  O   UNL     1       9.758  15.552  24.348  0.00  0.00    -0.276 OA
ATOM      8  N   UNL     1       8.673  14.453  22.641  0.00  0.00    -0.329 N 
ATOM     24  C   UNL     1       9.715  14.647  23.518  0.00  0.00    +0.214 C 
ATOM     38  H   UNL     1       7.874  15.078  22.637  0.00  0.00    +0.145 HD
ATOM     39  H   UNL     1       8.657  13.689  21.975  0.00  0.00    +0.145 HD
ENDBRANCH  22  24
ENDBRANCH  10  17
BRANCH  11  16
ATOM     16  C   UNL     1      14.770   7.097  20.983  0.00  0.00    +0.164 C 
BRANCH  16   5
ATOM      5  N   UNL     1      16.086   6.607  20.447  0.00  0.00    -0.250 N 
ATOM      6  N   UNL     1      16.197   6.203  19.171  0.00  0.00    -0.065 NA
ATOM      7  N   UNL     1      17.459   5.829  18.985  0.00  0.00    -0.130 NA
ATOM     23  C   UNL     1      17.269   6.504  21.111  0.00  0.00    +0.138 A 
ATOM     25  C   UNL     1      18.128   6.008  20.163  0.00  0.00    +0.113 A 
BRANCH  25  26
ATOM     26  C   UNL     1      19.511   5.718  20.365  0.00  0.00    +0.004 A 
ATOM     27  C   UNL     1      20.436   6.758  20.464  0.00  0.00    +0.011 A 
ATOM     28  C   UNL     1      19.938   4.394  20.462  0.00  0.00    +0.011 A 
ATOM     29  C   UNL     1      21.787   6.474  20.661  0.00  0.00    +0.009 A 
ATOM     30  C   UNL     1      21.290   4.109  20.659  0.00  0.00    +0.009 A 
ATOM     31  C   UNL     1      22.214   5.149  20.759  0.00  0.00    -0.018 A 
BRANCH  31  32
ATOM     32  C   UNL     1      23.615   4.853  20.962  0.00  0.00    -0.018 A 
ATOM     33  C   UNL     1      24.427   4.538  19.873  0.00  0.00    +0.008 A 
ATOM     34  C   UNL     1      24.155   4.882  22.248  0.00  0.00    +0.008 A 
ATOM     35  C   UNL     1      25.778   4.252  20.068  0.00  0.00    +0.001 A 
ATOM     36  C   UNL     1      25.506   4.596  22.444  0.00  0.00    +0.001 A 
ATOM     37  C   UNL     1      26.318   4.281  21.354  0.00  0.00    +0.000 A 
ENDBRANCH  31  32
ENDBRANCH  25  26
ENDBRANCH  16   5
ENDBRANCH  11  16
TORSDOF 6
ENDMDL
MODEL 4
REMARK VINA RESULT:      -7.8     18.776     21.536
REMARK  Name = 44716227
REMARK  6 active torsions:
REMARK  status: ('A' for Active; 'I' for Inactive)
REMARK    1  A    between atoms: N_5  and  C_16
REMARK    2  A    between atoms: C_10  and  C_17
REMARK    3  A    between atoms: C_11  and  C_16
REMARK    4  A    between atoms: C_22  and  C_24
REMARK    5  A    between atoms: C_25  and  C_26
REMARK    6  A    between atoms: C_31  and  C_32
REMARK                            x       y       z     vdW  Elec       q    Type
REMARK                         _______ _______ _______ _____ _____    ______ ____
ROOT
ATOM      3  N   UNL     1      -5.397 -12.421  18.291  0.00  0.00    -0.297 NA
ATOM      9  C   UNL     1      -6.626 -10.157  17.931  0.00  0.00    +0.005 C 
ATOM     10  C   UNL     1      -7.615 -11.339  17.904  0.00  0.00    +0.092 C 
ATOM     11  C   UNL     1      -4.744 -11.659  17.193  0.00  0.00    +0.078 C 
ATOM     12  C   UNL     1      -5.546 -10.382  16.855  0.00  0.00    +0.025 C 
ATOM     13  C   UNL     1      -5.925 -10.195  19.301  0.00  0.00    +0.020 C 
ATOM     14  C   UNL     1      -6.827 -12.658  17.974  0.00  0.00    +0.097 C 
ATOM     15  C   UNL     1      -5.326 -11.596  19.522  0.00  0.00    +0.085 C 
ENDROOT
BRANCH  10  17
ATOM      1  O   UNL     1      -8.234 -12.000  15.716  0.00  0.00    -0.275 OA
ATOM      4  N   UNL     1      -9.602 -10.433  16.750  0.00  0.00    -0.301 N 
ATOM     17  C   UNL     1      -8.507 -11.293  16.689  0.00  0.00    +0.220 C 
ATOM     18  C   UNL     1     -10.539 -10.365  15.627  0.00  0.00    +0.108 C 
ATOM     19  C   UNL     1      -9.952  -9.581  17.894  0.00  0.00    +0.108 C 
ATOM     20  C   UNL     1     -10.704  -8.926  15.142  0.00  0.00    +0.032 C 
ATOM     21  C   UNL     1     -10.105  -8.126  17.456  0.00  0.00    +0.032 C 
ATOM     22  C   UNL     1     -11.095  -7.998  16.296  0.00  0.00    +0.078 C 
BRANCH  22  24
ATOM      2  O   UNL     1     -12.191  -5.981  15.633  0.00  0.00    -0.276 OA
ATOM      8  N   UNL     1      -9.891  -6.050  15.555  0.00  0.00    -0.329 N 
ATOM     24  C   UNL     1     -11.133  -6.584  15.806  0.00  0.00    +0.214 C 
ATOM     38  H   UNL     1      -9.793  -5.099  15.213  0.00  0.00    +0.145 HD
ATOM     39  H   UNL     1      -9.035  -6.574  15.694  0.00  0.00    +0.145 HD
ENDBRANCH  22  24
ENDBRANCH  10  17
BRANCH  11  16
ATOM     16  C   UNL     1      -4.496 -12.519  15.952  0.00  0.00    +0.164 C 
BRANCH  16   5
ATOM      5  N   UNL     1      -4.391 -11.679  14.711  0.00  0.00    -0.250 N 
ATOM      6  N   UNL     1      -3.256 -11.021  14.425  0.00  0.00    -0.065 NA
ATOM      7  N   UNL     1      -3.454 -10.372  13.282  0.00  0.00    -0.130 NA
ATOM     23  C   UNL     1      -5.344 -11.472  13.762  0.00  0.00    +0.138 A 
ATOM     25  C   UNL     1      -4.728 -10.639  12.863  0.00  0.00    +0.113 A 
BRANCH  25  26
ATOM     26  C   UNL     1      -5.317 -10.122  11.670  0.00  0.00    +0.004 A 
ATOM     27  C   UNL     1      -6.473 -10.705  11.152  0.00  0.00    +0.011 A 
ATOM     28  C   UNL     1      -4.734  -9.033  11.021  0.00  0.00    +0.011 A 
ATOM     29  C   UNL     1      -7.048 -10.199   9.986  0.00  0.00    +0.009 A 
ATOM     30  C   UNL     1      -5.309  -8.527   9.855  0.00  0.00    +0.009 A 
ATOM     31  C   UNL     1      -6.466  -9.109   9.338  0.00  0.00    -0.018 A 
BRANCH  31  32
ATOM     32  C   UNL     1      -7.061  -8.585   8.128  0.00  0.00    -0.018 A 
ATOM     33  C   UNL     1      -6.844  -9.227   6.909  0.00  0.00    +0.008 A 
ATOM     34  C   UNL     1      -7.850  -7.436   8.180  0.00  0.00    +0.008 A 
ATOM     35  C   UNL     1      -7.417  -8.721   5.742  0.00  0.00    +0.001 A 
ATOM     36  C   UNL     1      -8.423  -6.930   7.013  0.00  0.00    +0.001 A 
ATOM     37  C   UNL     1      -8.206  -7.572   5.794  0.00  0.00    +0.000 A 
ENDBRANCH  31  32
ENDBRANCH  25  26
ENDBRANCH  16   5
ENDBRANCH  11  16
TORSDOF 6
ENDMDL
MODEL 5
REMARK VINA RESULT:      -7.8      8.308     14.113
REMARK  Name = 44716227
REMARK  6 active torsions:
REMARK  status: ('A' for Active; 'I' for Inactive)
REMARK    1  A    between atoms: N_5  and  C_16
REMARK    2  A    between atoms: C_10  and  C_17
REMARK    3  A    between atoms: C_11  and  C_16
REMARK    4  A    between atoms: C_22  and  C_24
REMARK    5  A    between atoms: C_25  and  C_26
REMARK    6  A    between atoms: C_31  and  C_32
REMARK                            x       y       z     vdW  Elec       q    Type
REMARK                         _______ _______ _______ _____ _____    ______ ____
ROOT
ATOM      3  N   UNL     1     -12.035  11.279  32.358  0.00  0.00    -0.297 NA
ATOM      9  C   UNL     1     -11.611   8.755  31.888  0.00  0.00    +0.005 C 
ATOM     10  C   UNL     1     -12.942   8.968  32.636  0.00  0.00    +0.092 C 
ATOM     11  C   UNL     1     -10.684  10.892  32.845  0.00  0.00    +0.078 C 
ATOM     12  C   UNL     1     -10.466   9.368  32.718  0.00  0.00    +0.025 C 
ATOM     13  C   UNL     1     -11.707   9.555  30.576  0.00  0.00    +0.020 C 
ATOM     14  C   UNL     1     -13.075  10.452  33.018  0.00  0.00    +0.097 C 
ATOM     15  C   UNL     1     -12.088  11.011  30.900  0.00  0.00    +0.085 C 
ENDROOT
BRANCH  10  17
ATOM      1  O   UNL     1     -12.309   8.277  34.811  0.00  0.00    -0.275 OA
ATOM      4  N   UNL     1     -14.003   7.059  33.790  0.00  0.00    -0.301 N 
ATOM     17  C   UNL     1     -13.051   8.075  33.847  0.00  0.00    +0.220 C 
ATOM     18  C   UNL     1     -14.197   6.177  34.943  0.00  0.00    +0.108 C 
ATOM     19  C   UNL     1     -14.899   6.795  32.658  0.00  0.00    +0.108 C 
ATOM     20  C   UNL     1     -14.067   4.711  34.537  0.00  0.00    +0.032 C 
ATOM     21  C   UNL     1     -14.783   5.341  32.203  0.00  0.00    +0.032 C 
ATOM     22  C   UNL     1     -15.003   4.377  33.371  0.00  0.00    +0.078 C 
BRANCH  22  24
ATOM      2  O   UNL     1     -14.259   2.703  31.837  0.00  0.00    -0.276 OA
ATOM      8  N   UNL     1     -15.170   2.022  33.838  0.00  0.00    -0.329 N 
ATOM     24  C   UNL     1     -14.761   2.968  32.927  0.00  0.00    +0.214 C 
ATOM     38  H   UNL     1     -15.062   1.032  33.644  0.00  0.00    +0.145 HD
ATOM     39  H   UNL     1     -15.594   2.267  34.726  0.00  0.00    +0.145 HD
ENDBRANCH  22  24
ENDBRANCH  10  17
BRANCH  11  16
ATOM     16  C   UNL     1     -10.411  11.389  34.266  0.00  0.00    +0.164 C 
BRANCH  16   5
ATOM      5  N   UNL     1      -8.959  11.253  34.628  0.00  0.00    -0.250 N 
ATOM      6  N   UNL     1      -8.040  12.076  34.096  0.00  0.00    -0.065 NA
ATOM      7  N   UNL     1      -6.859  11.724  34.594  0.00  0.00    -0.130 NA
ATOM     23  C   UNL     1      -8.394  10.354  35.479  0.00  0.00    +0.138 A 
ATOM     25  C   UNL     1      -7.059  10.671  35.443  0.00  0.00    +0.113 A 
BRANCH  25  26
ATOM     26  C   UNL     1      -6.027  10.009  36.174  0.00  0.00    +0.004 A 
ATOM     27  C   UNL     1      -4.710  10.052  35.718  0.00  0.00    +0.011 A 
ATOM     28  C   UNL     1      -6.337   9.318  37.346  0.00  0.00    +0.011 A 
ATOM     29  C   UNL     1      -3.702   9.405  36.433  0.00  0.00    +0.009 A 
ATOM     30  C   UNL     1      -5.329   8.671  38.061  0.00  0.00    +0.009 A 
ATOM     31  C   UNL     1      -4.012   8.715  37.605  0.00  0.00    -0.018 A 
BRANCH  31  32
ATOM     32  C   UNL     1      -2.968   8.042  38.347  0.00  0.00    -0.018 A 
ATOM     33  C   UNL     1      -3.189   7.658  39.669  0.00  0.00    +0.008 A 
ATOM     34  C   UNL     1      -1.739   7.779  37.740  0.00  0.00    +0.008 A 
ATOM     35  C   UNL     1      -2.182   7.010  40.385  0.00  0.00    +0.001 A 
ATOM     36  C   UNL     1      -0.733   7.132  38.456  0.00  0.00    +0.001 A 
ATOM     37  C   UNL     1      -0.954   6.747  39.778  0.00  0.00    +0.000 A 
ENDBRANCH  31  32
ENDBRANCH  25  26
ENDBRANCH  16   5
ENDBRANCH  11  16
TORSDOF 6
ENDMDL
MODEL 6
REMARK VINA RESULT:      -7.7     19.802     24.087
REMARK  Name = 44716227
REMARK  6 active torsions:
REMARK  status: ('A' for Active; 'I' for Inactive)
REMARK    1  A    between atoms: N_5  and  C_16
REMARK    2  A    between atoms: C_10  and  C_17
REMARK    3  A    between atoms: C_11  and  C_16
REMARK    4  A    between atoms: C_22  and  C_24
REMARK    5  A    between atoms: C_25  and  C_26
REMARK    6  A    between atoms: C_31  and  C_32
REMARK                            x       y       z     vdW  Elec       q    Type
REMARK                         _______ _______ _______ _____ _____    ______ ____
ROOT
ATOM      3  N   UNL     1      -2.622 -13.271  14.631  0.00  0.00    -0.297 NA
ATOM      9  C   UNL     1      -4.062 -12.709  12.538  0.00  0.00    +0.005 C 
ATOM     10  C   UNL     1      -2.600 -12.261  12.347  0.00  0.00    +0.092 C 
ATOM     11  C   UNL     1      -3.837 -12.517  15.039  0.00  0.00    +0.078 C 
ATOM     12  C   UNL     1      -4.631 -12.037  13.804  0.00  0.00    +0.025 C 
ATOM     13  C   UNL     1      -4.031 -14.226  12.798  0.00  0.00    +0.020 C 
ATOM     14  C   UNL     1      -1.828 -12.481  13.659  0.00  0.00    +0.097 C 
ATOM     15  C   UNL     1      -3.064 -14.519  13.960  0.00  0.00    +0.085 C 
ENDROOT
BRANCH  10  17
ATOM      1  O   UNL     1      -1.951  -9.998  12.610  0.00  0.00    -0.275 OA
ATOM      4  N   UNL     1      -3.085 -10.528  10.653  0.00  0.00    -0.301 N 
ATOM     17  C   UNL     1      -2.511 -10.826  11.889  0.00  0.00    +0.220 C 
ATOM     18  C   UNL     1      -3.003  -9.167  10.121  0.00  0.00    +0.108 C 
ATOM     19  C   UNL     1      -3.759 -11.492   9.774  0.00  0.00    +0.108 C 
ATOM     20  C   UNL     1      -4.390  -8.634   9.769  0.00  0.00    +0.032 C 
ATOM     21  C   UNL     1      -5.162 -11.008   9.415  0.00  0.00    +0.032 C 
ATOM     22  C   UNL     1      -5.126  -9.594   8.830  0.00  0.00    +0.078 C 
BRANCH  22  24
ATOM      2  O   UNL     1      -7.455  -9.857   8.361  0.00  0.00    -0.276 OA
ATOM      8  N   UNL     1      -6.639  -7.728   8.673  0.00  0.00    -0.329 N 
ATOM     24  C   UNL     1      -6.520  -9.096   8.603  0.00  0.00    +0.214 C 
ATOM     38  H   UNL     1      -7.536  -7.275   8.530  0.00  0.00    +0.145 HD
ATOM     39  H   UNL     1      -5.848  -7.121   8.861  0.00  0.00    +0.145 HD
ENDBRANCH  22  24
ENDBRANCH  10  17
BRANCH  11  16
ATOM     16  C   UNL     1      -3.515 -11.363  15.991  0.00  0.00    +0.164 C 
BRANCH  16   5
ATOM      5  N   UNL     1      -4.610 -11.159  17.000  0.00  0.00    -0.250 N 
ATOM      6  N   UNL     1      -4.341 -11.174  18.316  0.00  0.00    -0.065 NA
ATOM      7  N   UNL     1      -5.487 -10.969  18.955  0.00  0.00    -0.130 NA
ATOM     23  C   UNL     1      -5.933 -10.944  16.761  0.00  0.00    +0.138 A 
ATOM     25  C   UNL     1      -6.472 -10.826  18.018  0.00  0.00    +0.113 A 
BRANCH  25  26
ATOM     26  C   UNL     1      -7.848 -10.590  18.313  0.00  0.00    +0.004 A 
ATOM     27  C   UNL     1      -8.453 -11.241  19.388  0.00  0.00    +0.011 A 
ATOM     28  C   UNL     1      -8.589  -9.710  17.525  0.00  0.00    +0.011 A 
ATOM     29  C   UNL     1      -9.798 -11.011  19.676  0.00  0.00    +0.009 A 
ATOM     30  C   UNL     1      -9.935  -9.479  17.813  0.00  0.00    +0.009 A 
ATOM     31  C   UNL     1     -10.539 -10.129  18.888  0.00  0.00    -0.018 A 
BRANCH  31  32
ATOM     32  C   UNL     1     -11.934  -9.891  19.185  0.00  0.00    -0.018 A 
ATOM     33  C   UNL     1     -12.364  -9.824  20.510  0.00  0.00    +0.008 A 
ATOM     34  C   UNL     1     -12.851  -9.728  18.146  0.00  0.00    +0.008 A 
ATOM     35  C   UNL     1     -13.709  -9.594  20.798  0.00  0.00    +0.001 A 
ATOM     36  C   UNL     1     -14.197  -9.498  18.433  0.00  0.00    +0.001 A 
ATOM     37  C   UNL     1     -14.626  -9.431  19.758  0.00  0.00    +0.000 A 
ENDBRANCH  31  32
ENDBRANCH  25  26
ENDBRANCH  16   5
ENDBRANCH  11  16
TORSDOF 6
ENDMDL
MODEL 7
REMARK VINA RESULT:      -7.6     18.403     22.872
REMARK  Name = 44716227
REMARK  6 active torsions:
REMARK  status: ('A' for Active; 'I' for Inactive)
REMARK    1  A    between atoms: N_5  and  C_16
REMARK    2  A    between atoms: C_10  and  C_17
REMARK    3  A    between atoms: C_11  and  C_16
REMARK    4  A    between atoms: C_22  and  C_24
REMARK    5  A    between atoms: C_25  and  C_26
REMARK    6  A    between atoms: C_31  and  C_32
REMARK                            x       y       z     vdW  Elec       q    Type
REMARK                         _______ _______ _______ _____ _____    ______ ____
ROOT
ATOM      3  N   UNL     1      -8.950  -8.440   6.929  0.00  0.00    -0.297 NA
ATOM      9  C   UNL     1     -10.764  -7.829   8.691  0.00  0.00    +0.005 C 
ATOM     10  C   UNL     1     -10.515  -6.660   7.717  0.00  0.00    +0.092 C 
ATOM     11  C   UNL     1      -8.436  -8.706   8.300  0.00  0.00    +0.078 C 
ATOM     12  C   UNL     1      -9.433  -8.208   9.369  0.00  0.00    +0.025 C 
ATOM     13  C   UNL     1     -11.204  -9.032   7.837  0.00  0.00    +0.020 C 
ATOM     14  C   UNL     1      -9.338  -7.015   6.792  0.00  0.00    +0.097 C 
ATOM     15  C   UNL     1     -10.162  -9.271   6.728  0.00  0.00    +0.085 C 
ENDROOT
BRANCH  10  17
ATOM      1  O   UNL     1      -9.111  -4.968   8.598  0.00  0.00    -0.275 OA
ATOM      4  N   UNL     1     -11.395  -4.692   8.923  0.00  0.00    -0.301 N 
ATOM     17  C   UNL     1     -10.269  -5.365   8.450  0.00  0.00    +0.220 C 
ATOM     18  C   UNL     1     -11.241  -3.407   9.608  0.00  0.00    +0.108 C 
ATOM     19  C   UNL     1     -12.784  -5.140   8.763  0.00  0.00    +0.108 C 
ATOM     20  C   UNL     1     -11.916  -3.435  10.978  0.00  0.00    +0.032 C 
ATOM     21  C   UNL     1     -13.491  -5.204  10.115  0.00  0.00    +0.032 C 
ATOM     22  C   UNL     1     -13.379  -3.873  10.862  0.00  0.00    +0.078 C 
BRANCH  22  24
ATOM      2  O   UNL     1     -14.390  -3.027  12.855  0.00  0.00    -0.276 OA
ATOM      8  N   UNL     1     -13.975  -5.287  12.717  0.00  0.00    -0.329 N 
ATOM     24  C   UNL     1     -13.970  -4.000  12.232  0.00  0.00    +0.214 C 
ATOM     38  H   UNL     1     -14.347  -5.494  13.638  0.00  0.00    +0.145 HD
ATOM     39  H   UNL     1     -13.610  -6.070  12.187  0.00  0.00    +0.145 HD
ENDBRANCH  22  24
ENDBRANCH  10  17
BRANCH  11  16
ATOM     16  C   UNL     1      -7.035  -8.133   8.519  0.00  0.00    +0.164 C 
BRANCH  16   5
ATOM      5  N   UNL     1      -6.318  -8.840   9.634  0.00  0.00    -0.250 N 
ATOM      6  N   UNL     1      -5.225  -9.581   9.385  0.00  0.00    -0.065 NA
ATOM      7  N   UNL     1      -4.812 -10.077  10.547  0.00  0.00    -0.130 NA
ATOM     23  C   UNL     1      -6.634  -8.842  10.958  0.00  0.00    +0.138 A 
ATOM     25  C   UNL     1      -5.664  -9.633  11.519  0.00  0.00    +0.113 A 
BRANCH  25  26
ATOM     26  C   UNL     1      -5.552  -9.954  12.906  0.00  0.00    +0.004 A 
ATOM     27  C   UNL     1      -4.390 -10.552  13.393  0.00  0.00    +0.011 A 
ATOM     28  C   UNL     1      -6.607  -9.669  13.774  0.00  0.00    +0.011 A 
ATOM     29  C   UNL     1      -4.281 -10.864  14.748  0.00  0.00    +0.009 A 
ATOM     30  C   UNL     1      -6.498  -9.982  15.129  0.00  0.00    +0.009 A 
ATOM     31  C   UNL     1      -5.336 -10.579  15.616  0.00  0.00    -0.018 A 
BRANCH  31  32
ATOM     32  C   UNL     1      -5.225 -10.904  17.022  0.00  0.00    -0.018 A 
ATOM     33  C   UNL     1      -4.079 -11.536  17.503  0.00  0.00    +0.008 A 
ATOM     34  C   UNL     1      -6.265 -10.586  17.896  0.00  0.00    +0.008 A 
ATOM     35  C   UNL     1      -3.971 -11.849  18.858  0.00  0.00    +0.001 A 
ATOM     36  C   UNL     1      -6.157 -10.899  19.251  0.00  0.00    +0.001 A 
ATOM     37  C   UNL     1      -5.011 -11.531  19.732  0.00  0.00    +0.000 A 
ENDBRANCH  31  32
ENDBRANCH  25  26
ENDBRANCH  16   5
ENDBRANCH  11  16
TORSDOF 6
ENDMDL
MODEL 8
REMARK VINA RESULT:      -7.6     28.948     33.055
REMARK  Name = 44716227
REMARK  6 active torsions:
REMARK  status: ('A' for Active; 'I' for Inactive)
REMARK    1  A    between atoms: N_5  and  C_16
REMARK    2  A    between atoms: C_10  and  C_17
REMARK    3  A    between atoms: C_11  and  C_16
REMARK    4  A    between atoms: C_22  and  C_24
REMARK    5  A    between atoms: C_25  and  C_26
REMARK    6  A    between atoms: C_31  and  C_32
REMARK                            x       y       z     vdW  Elec       q    Type
REMARK                         _______ _______ _______ _____ _____    ______ ____
ROOT
ATOM      3  N   UNL     1      14.747   9.268  18.943  0.00  0.00    -0.297 NA
ATOM      9  C   UNL     1      12.875   7.471  18.760  0.00  0.00    +0.005 C 
ATOM     10  C   UNL     1      12.319   8.804  19.298  0.00  0.00    +0.092 C 
ATOM     11  C   UNL     1      15.169   8.025  19.641  0.00  0.00    +0.078 C 
ATOM     12  C   UNL     1      14.017   6.996  19.681  0.00  0.00    +0.025 C 
ATOM     13  C   UNL     1      13.491   7.771  17.382  0.00  0.00    +0.020 C 
ATOM     14  C   UNL     1      13.484   9.783  19.525  0.00  0.00    +0.097 C 
ATOM     15  C   UNL     1      14.496   8.930  17.520  0.00  0.00    +0.085 C 
ENDROOT
BRANCH  10  17
ATOM      1  O   UNL     1      10.627   7.747  20.574  0.00  0.00    -0.275 OA
ATOM      4  N   UNL     1      11.831   9.424  21.639  0.00  0.00    -0.301 N 
ATOM     17  C   UNL     1      11.513   8.605  20.557  0.00  0.00    +0.220 C 
ATOM     18  C   UNL     1      11.121   9.261  22.910  0.00  0.00    +0.108 C 
ATOM     19  C   UNL     1      12.879  10.452  21.648  0.00  0.00    +0.108 C 
ATOM     20  C   UNL     1      10.515  10.585  23.369  0.00  0.00    +0.032 C 
ATOM     21  C   UNL     1      12.308  11.802  22.081  0.00  0.00    +0.032 C 
ATOM     22  C   UNL     1      11.576  11.689  23.420  0.00  0.00    +0.078 C 
BRANCH  22  24
ATOM      2  O   UNL     1       9.884  13.051  24.416  0.00  0.00    -0.276 OA
ATOM      8  N   UNL     1      11.578  14.091  23.256  0.00  0.00    -0.329 N 
ATOM     24  C   UNL     1      10.922  12.992  23.760  0.00  0.00    +0.214 C 
ATOM     38  H   UNL     1      11.224  15.028  23.417  0.00  0.00    +0.145 HD
ATOM     39  H   UNL     1      12.427  14.013  22.706  0.00  0.00    +0.145 HD
ENDBRANCH  22  24
ENDBRANCH  10  17
BRANCH  11  16
ATOM     16  C   UNL     1      15.733   8.301  21.036  0.00  0.00    +0.164 C 
BRANCH  16   5
ATOM      5  N   UNL     1      17.182   7.918  21.130  0.00  0.00    -0.250 N 
ATOM      6  N   UNL     1      18.145   8.850  21.028  0.00  0.00    -0.065 NA
ATOM      7  N   UNL     1      19.312   8.226  21.149  0.00  0.00    -0.130 NA
ATOM     23  C   UNL     1      17.705   6.676  21.319  0.00  0.00    +0.138 A 
ATOM     25  C   UNL     1      19.060   6.894  21.328  0.00  0.00    +0.113 A 
BRANCH  25  26
ATOM     26  C   UNL     1      20.062   5.892  21.496  0.00  0.00    +0.004 A 
ATOM     27  C   UNL     1      20.194   4.871  20.555  0.00  0.00    +0.011 A 
ATOM     28  C   UNL     1      20.910   5.933  22.604  0.00  0.00    +0.011 A 
ATOM     29  C   UNL     1      21.174   3.892  20.720  0.00  0.00    +0.009 A 
ATOM     30  C   UNL     1      21.890   4.954  22.769  0.00  0.00    +0.009 A 
ATOM     31  C   UNL     1      22.022   3.934  21.827  0.00  0.00    -0.018 A 
BRANCH  31  32
ATOM     32  C   UNL     1      23.038   2.919  22.000  0.00  0.00    -0.018 A 
ATOM     33  C   UNL     1      23.501   2.202  20.897  0.00  0.00    +0.008 A 
ATOM     34  C   UNL     1      23.553   2.656  23.269  0.00  0.00    +0.008 A 
ATOM     35  C   UNL     1      24.481   1.222  21.063  0.00  0.00    +0.001 A 
ATOM     36  C   UNL     1      24.532   1.677  23.435  0.00  0.00    +0.001 A 
ATOM     37  C   UNL     1      24.996   0.960  22.333  0.00  0.00    +0.000 A 
ENDBRANCH  31  32
ENDBRANCH  25  26
ENDBRANCH  16   5
ENDBRANCH  11  16
TORSDOF 6
ENDMDL
MODEL 9
REMARK VINA RESULT:      -7.4     17.071     19.648
REMARK  Name = 44716227
REMARK  6 active torsions:
REMARK  status: ('A' for Active; 'I' for Inactive)
REMARK    1  A    between atoms: N_5  and  C_16
REMARK    2  A    between atoms: C_10  and  C_17
REMARK    3  A    between atoms: C_11  and  C_16
REMARK    4  A    between atoms: C_22  and  C_24
REMARK    5  A    between atoms: C_25  and  C_26
REMARK    6  A    between atoms: C_31  and  C_32
REMARK                            x       y       z     vdW  Elec       q    Type
REMARK                         _______ _______ _______ _____ _____    ______ ____
ROOT
ATOM      3  N   UNL     1     -11.177 -11.644  16.842  0.00  0.00    -0.297 NA
ATOM      9  C   UNL     1      -9.016 -11.389  15.416  0.00  0.00    +0.005 C 
ATOM     10  C   UNL     1      -8.685 -11.802  16.864  0.00  0.00    +0.092 C 
ATOM     11  C   UNL     1     -11.167 -10.317  16.171  0.00  0.00    +0.078 C 
ATOM     12  C   UNL     1      -9.826 -10.077  15.442  0.00  0.00    +0.025 C 
ATOM     13  C   UNL     1      -9.933 -12.484  14.841  0.00  0.00    +0.020 C 
ATOM     14  C   UNL     1      -9.976 -11.797  17.699  0.00  0.00    +0.097 C 
ATOM     15  C   UNL     1     -11.130 -12.688  15.789  0.00  0.00    +0.085 C 
ENDROOT
BRANCH  10  17
ATOM      1  O   UNL     1      -7.975  -9.855  18.012  0.00  0.00    -0.275 OA
ATOM      4  N   UNL     1      -6.311 -11.346  17.375  0.00  0.00    -0.301 N 
ATOM     17  C   UNL     1      -7.631 -10.909  17.471  0.00  0.00    +0.220 C 
ATOM     18  C   UNL     1      -5.236 -10.555  17.978  0.00  0.00    +0.108 C 
ATOM     19  C   UNL     1      -5.872 -12.594  16.738  0.00  0.00    +0.108 C 
ATOM     20  C   UNL     1      -4.153 -10.235  16.950  0.00  0.00    +0.032 C 
ATOM     21  C   UNL     1      -4.802 -12.316  15.684  0.00  0.00    +0.032 C 
ATOM     22  C   UNL     1      -3.642 -11.511  16.273  0.00  0.00    +0.078 C 
BRANCH  22  24
ATOM      2  O   UNL     1      -1.495 -11.508  15.223  0.00  0.00    -0.276 OA
ATOM      8  N   UNL     1      -3.210 -10.363  14.201  0.00  0.00    -0.329 N 
ATOM     24  C   UNL     1      -2.669 -11.146  15.194  0.00  0.00    +0.214 C 
ATOM     38  H   UNL     1      -2.644 -10.049  13.420  0.00  0.00    +0.145 HD
ATOM     39  H   UNL     1      -4.180 -10.066  14.208  0.00  0.00    +0.145 HD
ENDBRANCH  22  24
ENDBRANCH  10  17
BRANCH  11  16
ATOM     16  C   UNL     1     -11.505  -9.174  17.131  0.00  0.00    +0.164 C 
BRANCH  16   5
ATOM      5  N   UNL     1     -11.632  -7.865  16.405  0.00  0.00    -0.250 N 
ATOM      6  N   UNL     1     -10.892  -6.805  16.771  0.00  0.00    -0.065 NA
ATOM      7  N   UNL     1     -11.214  -5.801  15.961  0.00  0.00    -0.130 NA
ATOM     23  C   UNL     1     -12.444  -7.571  15.353  0.00  0.00    +0.138 A 
ATOM     25  C   UNL     1     -12.162  -6.255  15.087  0.00  0.00    +0.113 A 
BRANCH  25  26
ATOM     26  C   UNL     1     -12.762  -5.468  14.058  0.00  0.00    +0.004 A 
ATOM     27  C   UNL     1     -11.989  -4.560  13.333  0.00  0.00    +0.011 A 
ATOM     28  C   UNL     1     -14.121  -5.607  13.778  0.00  0.00    +0.011 A 
ATOM     29  C   UNL     1     -12.576  -3.791  12.327  0.00  0.00    +0.009 A 
ATOM     30  C   UNL     1     -14.708  -4.838  12.772  0.00  0.00    +0.009 A 
ATOM     31  C   UNL     1     -13.936  -3.931  12.047  0.00  0.00    -0.018 A 
BRANCH  31  32
ATOM     32  C   UNL     1     -14.546  -3.134  11.005  0.00  0.00    -0.018 A 
ATOM     33  C   UNL     1     -15.581  -2.253  11.317  0.00  0.00    +0.008 A 
ATOM     34  C   UNL     1     -14.099  -3.246   9.689  0.00  0.00    +0.008 A 
ATOM     35  C   UNL     1     -16.170  -1.485  10.313  0.00  0.00    +0.001 A 
ATOM     36  C   UNL     1     -14.687  -2.477   8.684  0.00  0.00    +0.001 A 
ATOM     37  C   UNL     1     -15.723  -1.597   8.996  0.00  0.00    +0.000 A 
ENDBRANCH  31  32
ENDBRANCH  25  26
ENDBRANCH  16   5
ENDBRANCH  11  16
TORSDOF 6
ENDMDL
MODEL 10
REMARK VINA RESULT:      -7.4      9.988     15.275
REMARK  Name = 44716227
REMARK  6 active torsions:
REMARK  status: ('A' for Active; 'I' for Inactive)
REMARK    1  A    between atoms: N_5  and  C_16
REMARK    2  A    between atoms: C_10  and  C_17
REMARK    3  A    between atoms: C_11  and  C_16
REMARK    4  A    between atoms: C_22  and  C_24
REMARK    5  A    between atoms: C_25  and  C_26
REMARK    6  A    between atoms: C_31  and  C_32
REMARK                            x       y       z     vdW  Elec       q    Type
REMARK                         _______ _______ _______ _____ _____    ______ ____
ROOT
ATOM      3  N   UNL     1      -6.136  11.527  38.111  0.00  0.00    -0.297 NA
ATOM      9  C   UNL     1      -5.449   9.046  38.491  0.00  0.00    +0.005 C 
ATOM     10  C   UNL     1      -4.223   9.979  38.540  0.00  0.00    +0.092 C 
ATOM     11  C   UNL     1      -6.684  10.676  37.021  0.00  0.00    +0.078 C 
ATOM     12  C   UNL     1      -6.163   9.226  37.137  0.00  0.00    +0.025 C 
ATOM     13  C   UNL     1      -6.416   9.528  39.588  0.00  0.00    +0.020 C 
ATOM     14  C   UNL     1      -4.659  11.407  38.166  0.00  0.00    +0.097 C 
ATOM     15  C   UNL     1      -6.689  11.031  39.396  0.00  0.00    +0.085 C 
ENDROOT
BRANCH  10  17
ATOM      1  O   UNL     1      -3.233   9.603  36.421  0.00  0.00    -0.275 OA
ATOM      4  N   UNL     1      -2.005   8.926  38.273  0.00  0.00    -0.301 N 
ATOM     17  C   UNL     1      -3.113   9.489  37.643  0.00  0.00    +0.220 C 
ATOM     18  C   UNL     1      -0.868   8.465  37.473  0.00  0.00    +0.108 C 
ATOM     19  C   UNL     1      -1.835   8.777  39.724  0.00  0.00    +0.108 C 
ATOM     20  C   UNL     1      -0.534   7.009  37.788  0.00  0.00    +0.032 C 
ATOM     21  C   UNL     1      -1.521   7.327  40.086  0.00  0.00    +0.032 C 
ATOM     22  C   UNL     1      -0.322   6.805  39.291  0.00  0.00    +0.078 C 
BRANCH  22  24
ATOM      2  O   UNL     1      -1.034   4.611  39.911  0.00  0.00    -0.276 OA
ATOM      8  N   UNL     1       1.192   4.939  39.431  0.00  0.00    -0.329 N 
ATOM     24  C   UNL     1      -0.112   5.349  39.571  0.00  0.00    +0.214 C 
ATOM     38  H   UNL     1       1.456   3.974  39.600  0.00  0.00    +0.145 HD
ATOM     39  H   UNL     1       1.937   5.573  39.162  0.00  0.00    +0.145 HD
ENDBRANCH  22  24
ENDBRANCH  10  17
BRANCH  11  16
ATOM     16  C   UNL     1      -6.420  11.265  35.633  0.00  0.00    +0.164 C 
BRANCH  16   5
ATOM      5  N   UNL     1      -7.592  11.059  34.716  0.00  0.00    -0.250 N 
ATOM      6  N   UNL     1      -7.778  11.859  33.653  0.00  0.00    -0.065 NA
ATOM      7  N   UNL     1      -8.879  11.443  33.035  0.00  0.00    -0.130 NA
ATOM     23  C   UNL     1      -8.565  10.111  34.807  0.00  0.00    +0.138 A 
ATOM     25  C   UNL     1      -9.372  10.374  33.729  0.00  0.00    +0.113 A 
BRANCH  25  26
ATOM     26  C   UNL     1     -10.550   9.648  33.376  0.00  0.00    +0.004 A 
ATOM     27  C   UNL     1     -11.486   9.319  34.356  0.00  0.00    +0.011 A 
ATOM     28  C   UNL     1     -10.763   9.268  32.051  0.00  0.00    +0.011 A 
ATOM     29  C   UNL     1     -12.637   8.610  34.010  0.00  0.00    +0.009 A 
ATOM     30  C   UNL     1     -11.914   8.559  31.705  0.00  0.00    +0.009 A 
ATOM     31  C   UNL     1     -12.851   8.231  32.685  0.00  0.00    -0.018 A 
BRANCH  31  32
ATOM     32  C   UNL     1     -14.043   7.495  32.325  0.00  0.00    -0.018 A 
ATOM     33  C   UNL     1     -15.091   8.141  31.670  0.00  0.00    +0.008 A 
ATOM     34  C   UNL     1     -14.146   6.138  32.635  0.00  0.00    +0.008 A 
ATOM     35  C   UNL     1     -16.241   7.432  31.324  0.00  0.00    +0.001 A 
ATOM     36  C   UNL     1     -15.296   5.429  32.289  0.00  0.00    +0.001 A 
ATOM     37  C   UNL     1     -16.344   6.076  31.634  0.00  0.00    +0.000 A 
ENDBRANCH  31  32
ENDBRANCH  25  26
ENDBRANCH  16   5
ENDBRANCH  11  16
TORSDOF 6
ENDMDL
