MODEL 1
REMARK VINA RESULT:      -5.8      0.000      0.000
REMARK  Name = 11885067
REMARK  15 active torsions:
REMARK  status: ('A' for Active; 'I' for Inactive)
REMARK    1  A    between atoms: O_2  and  C_16
REMARK    2  A    between atoms: O_3  and  C_21
REMARK    3  A    between atoms: O_5  and  C_28
REMARK    4  A    between atoms: O_5  and  C_32
REMARK    5  A    between atoms: N_8  and  C_27
REMARK    6  A    between atoms: N_10  and  C_29
REMARK    7  A    between atoms: N_10  and  C_30
REMARK    8  A    between atoms: N_10  and  C_31
REMARK    9  A    between atoms: C_11  and  C_19
REMARK   10  A    between atoms: C_13  and  C_21
REMARK   11  A    between atoms: C_13  and  C_22
REMARK   12  A    between atoms: C_14  and  C_24
REMARK   13  A    between atoms: C_24  and  C_25
REMARK   14  A    between atoms: C_27  and  C_29
REMARK   15  A    between atoms: C_32  and  C_33
REMARK                            x       y       z     vdW  Elec       q    Type
REMARK                         _______ _______ _______ _____ _____    ______ ____
ROOT
ATOM      1  S   UNL     1      13.804   8.123   6.839  0.00  0.00    -0.057 S 
ATOM      6  O   UNL     1      11.030   5.522   4.146  0.00  0.00    -0.226 OA
ATOM      7  N   UNL     1      13.607   6.955   4.539  0.00  0.00    -0.229 NA
ATOM      9  N   UNL     1      11.727   6.741   6.031  0.00  0.00    -0.230 N 
ATOM     11  C   UNL     1      16.952   8.605   3.562  0.00  0.00    -0.019 C 
ATOM     12  C   UNL     1      17.488   8.590   5.061  0.00  0.00    +0.011 C 
ATOM     13  C   UNL     1      18.873   9.295   5.335  0.00  0.00    +0.021 C 
ATOM     14  C   UNL     1      15.811   7.495   3.435  0.00  0.00    +0.054 C 
ATOM     15  C   UNL     1      18.108   8.229   2.598  0.00  0.00    +0.010 C 
ATOM     16  C   UNL     1      19.898   8.846   4.255  0.00  0.00    +0.123 C 
ATOM     17  C   UNL     1      16.370   8.991   6.068  0.00  0.00    +0.049 C 
ATOM     18  C   UNL     1      19.386   9.022   2.830  0.00  0.00    +0.032 C 
ATOM     19  C   UNL     1      16.381   9.981   3.141  0.00  0.00    +0.012 C 
ATOM     20  C   UNL     1      14.837   7.585   4.583  0.00  0.00    +0.058 A 
ATOM     22  C   UNL     1      19.417   8.827   6.713  0.00  0.00    +0.016 C 
ATOM     23  C   UNL     1      15.117   8.245   5.762  0.00  0.00    +0.015 A 
ATOM     26  C   UNL     1      12.973   7.177   5.671  0.00  0.00    +0.167 A 
ATOM     28  C   UNL     1      10.849   5.962   5.274  0.00  0.00    +0.406 C 
ATOM     38  H   UNL     1      11.414   7.021   6.956  0.00  0.00    +0.160 HD
ENDROOT
BRANCH  16   2
ATOM      2  O   UNL     1      21.123   9.564   4.396  0.00  0.00    -0.391 OA
ATOM     35  H   UNL     1      21.817   8.921   4.622  0.00  0.00    +0.210 HD
ENDBRANCH  16   2
BRANCH  28   5
ATOM      5  O   UNL     1       9.703   5.741   5.992  0.00  0.00    -0.446 OA
BRANCH   5  32
ATOM     32  C   UNL     1       9.808   5.899   7.411  0.00  0.00    +0.261 C 
BRANCH  32  33
ATOM     33  C   UNL     1       9.796   4.550   8.047  0.00  0.00    +0.006 C 
ATOM     34  C   UNL     1       9.386   4.318   9.300  0.00  0.00    +0.007 C 
ENDBRANCH  32  33
ENDBRANCH   5  32
ENDBRANCH  28   5
BRANCH  13  21
ATOM     21  C   UNL     1      18.801  10.836   5.418  0.00  0.00    +0.165 C 
BRANCH  21   3
ATOM      3  O   UNL     1      19.753  11.261   6.367  0.00  0.00    -0.394 OA
ATOM     36  H   UNL     1      19.346  11.175   7.246  0.00  0.00    +0.209 HD
ENDBRANCH  21   3
ENDBRANCH  13  21
BRANCH  14  24
ATOM     24  C   UNL     1      15.084   7.477   2.083  0.00  0.00    +0.106 C 
BRANCH  24  25
ATOM      4  O   UNL     1      15.734   6.040   0.248  0.00  0.00    -0.276 OA
ATOM      8  N   UNL     1      14.770   5.110   2.148  0.00  0.00    -0.314 N 
ATOM     25  C   UNL     1      15.247   6.155   1.370  0.00  0.00    +0.214 C 
ATOM     37  H   UNL     1      14.391   5.309   3.069  0.00  0.00    +0.149 HD
BRANCH   8  27
ATOM     27  C   UNL     1      14.795   3.731   1.718  0.00  0.00    +0.119 C 
BRANCH  27  29
ATOM     29  C   UNL     1      13.388   3.193   1.509  0.00  0.00    +0.102 C 
BRANCH  29  10
ATOM     10  N   UNL     1      12.721   3.920   0.436  0.00  0.00    -0.307 NA
ATOM     30  C   UNL     1      11.340   4.235   0.806  0.00  0.00    +0.104 C 
ATOM     31  C   UNL     1      12.748   3.146  -0.807  0.00  0.00    +0.104 C 
ENDBRANCH  29  10
ENDBRANCH  27  29
ENDBRANCH   8  27
ENDBRANCH  24  25
ENDBRANCH  14  24
TORSDOF 11
ENDMDL
MODEL 2
REMARK VINA RESULT:      -5.7     26.241     29.761
REMARK  Name = 11885067
REMARK  15 active torsions:
REMARK  status: ('A' for Active; 'I' for Inactive)
REMARK    1  A    between atoms: O_2  and  C_16
REMARK    2  A    between atoms: O_3  and  C_21
REMARK    3  A    between atoms: O_5  and  C_28
REMARK    4  A    between atoms: O_5  and  C_32
REMARK    5  A    between atoms: N_8  and  C_27
REMARK    6  A    between atoms: N_10  and  C_29
REMARK    7  A    between atoms: N_10  and  C_30
REMARK    8  A    between atoms: N_10  and  C_31
REMARK    9  A    between atoms: C_11  and  C_19
REMARK   10  A    between atoms: C_13  and  C_21
REMARK   11  A    between atoms: C_13  and  C_22
REMARK   12  A    between atoms: C_14  and  C_24
REMARK   13  A    between atoms: C_24  and  C_25
REMARK   14  A    between atoms: C_27  and  C_29
REMARK   15  A    between atoms: C_32  and  C_33
REMARK                            x       y       z     vdW  Elec       q    Type
REMARK                         _______ _______ _______ _____ _____    ______ ____
ROOT
ATOM      1  S   UNL     1      -6.993  -9.727  12.702  0.00  0.00    -0.057 S 
ATOM      6  O   UNL     1      -2.822  -9.760  10.626  0.00  0.00    -0.226 OA
ATOM      7  N   UNL     1      -4.493 -10.310  13.024  0.00  0.00    -0.229 NA
ATOM      9  N   UNL     1      -5.133  -9.417  10.880  0.00  0.00    -0.230 N 
ATOM     11  C   UNL     1      -5.279 -11.063  16.723  0.00  0.00    -0.019 C 
ATOM     12  C   UNL     1      -6.763 -11.539  16.393  0.00  0.00    +0.011 C 
ATOM     13  C   UNL     1      -7.693 -11.889  17.618  0.00  0.00    +0.021 C 
ATOM     14  C   UNL     1      -4.412 -11.190  15.388  0.00  0.00    +0.054 C 
ATOM     15  C   UNL     1      -4.665 -12.000  17.795  0.00  0.00    +0.010 C 
ATOM     16  C   UNL     1      -6.909 -12.792  18.614  0.00  0.00    +0.123 C 
ATOM     17  C   UNL     1      -7.437 -10.609  15.341  0.00  0.00    +0.049 C 
ATOM     18  C   UNL     1      -5.555 -12.213  19.012  0.00  0.00    +0.032 C 
ATOM     19  C   UNL     1      -5.217  -9.605  17.242  0.00  0.00    +0.012 C 
ATOM     20  C   UNL     1      -5.145 -10.604  14.208  0.00  0.00    +0.058 A 
ATOM     22  C   UNL     1      -8.912 -12.710  17.112  0.00  0.00    +0.016 C 
ATOM     23  C   UNL     1      -6.505 -10.369  14.202  0.00  0.00    +0.015 A 
ATOM     26  C   UNL     1      -5.366  -9.835  12.162  0.00  0.00    +0.167 A 
ATOM     28  C   UNL     1      -3.912  -9.401  10.201  0.00  0.00    +0.406 C 
ATOM     38  H   UNL     1      -5.947  -9.082  10.373  0.00  0.00    +0.160 HD
ENDROOT
BRANCH  16   2
ATOM      2  O   UNL     1      -7.675 -13.021  19.795  0.00  0.00    -0.391 OA
ATOM     35  H   UNL     1      -8.452 -13.550  19.544  0.00  0.00    +0.210 HD
ENDBRANCH  16   2
BRANCH  28   5
ATOM      5  O   UNL     1      -4.102  -8.910   8.937  0.00  0.00    -0.446 OA
BRANCH   5  32
ATOM     32  C   UNL     1      -5.180  -9.488   8.191  0.00  0.00    +0.261 C 
BRANCH  32  33
ATOM     33  C   UNL     1      -4.781 -10.857   7.751  0.00  0.00    +0.006 C 
ATOM     34  C   UNL     1      -4.865 -11.291   6.488  0.00  0.00    +0.007 C 
ENDBRANCH  32  33
ENDBRANCH   5  32
ENDBRANCH  28   5
BRANCH  13  21
ATOM     21  C   UNL     1      -8.290 -10.662  18.341  0.00  0.00    +0.165 C 
BRANCH  21   3
ATOM      3  O   UNL     1      -9.509 -11.058  18.928  0.00  0.00    -0.394 OA
ATOM     36  H   UNL     1      -9.616 -12.010  18.760  0.00  0.00    +0.209 HD
ENDBRANCH  21   3
ENDBRANCH  13  21
BRANCH  14  24
ATOM     24  C   UNL     1      -2.986 -10.632  15.497  0.00  0.00    +0.106 C 
BRANCH  24  25
ATOM      4  O   UNL     1      -0.739 -11.447  15.122  0.00  0.00    -0.276 OA
ATOM      8  N   UNL     1      -2.554 -12.760  14.499  0.00  0.00    -0.314 N 
ATOM     25  C   UNL     1      -1.951 -11.630  15.033  0.00  0.00    +0.214 C 
ATOM     37  H   UNL     1      -3.568 -12.818  14.478  0.00  0.00    +0.149 HD
BRANCH   8  27
ATOM     27  C   UNL     1      -1.807 -13.879  13.974  0.00  0.00    +0.119 C 
BRANCH  27  29
ATOM     29  C   UNL     1      -2.505 -14.491  12.769  0.00  0.00    +0.102 C 
BRANCH  29  10
ATOM     10  N   UNL     1      -3.679 -13.706  12.410  0.00  0.00    -0.307 NA
ATOM     30  C   UNL     1      -4.896 -14.510  12.531  0.00  0.00    +0.104 C 
ATOM     31  C   UNL     1      -3.552 -13.181  11.048  0.00  0.00    +0.104 C 
ENDBRANCH  29  10
ENDBRANCH  27  29
ENDBRANCH   8  27
ENDBRANCH  24  25
ENDBRANCH  14  24
TORSDOF 11
ENDMDL
MODEL 3
REMARK VINA RESULT:      -5.6     29.854     33.232
REMARK  Name = 11885067
REMARK  15 active torsions:
REMARK  status: ('A' for Active; 'I' for Inactive)
REMARK    1  A    between atoms: O_2  and  C_16
REMARK    2  A    between atoms: O_3  and  C_21
REMARK    3  A    between atoms: O_5  and  C_28
REMARK    4  A    between atoms: O_5  and  C_32
REMARK    5  A    between atoms: N_8  and  C_27
REMARK    6  A    between atoms: N_10  and  C_29
REMARK    7  A    between atoms: N_10  and  C_30
REMARK    8  A    between atoms: N_10  and  C_31
REMARK    9  A    between atoms: C_11  and  C_19
REMARK   10  A    between atoms: C_13  and  C_21
REMARK   11  A    between atoms: C_13  and  C_22
REMARK   12  A    between atoms: C_14  and  C_24
REMARK   13  A    between atoms: C_24  and  C_25
REMARK   14  A    between atoms: C_27  and  C_29
REMARK   15  A    between atoms: C_32  and  C_33
REMARK                            x       y       z     vdW  Elec       q    Type
REMARK                         _______ _______ _______ _____ _____    ______ ____
ROOT
ATOM      1  S   UNL     1     -10.474 -12.880  19.435  0.00  0.00    -0.057 S 
ATOM      6  O   UNL     1     -13.622  -9.535  18.650  0.00  0.00    -0.226 OA
ATOM      7  N   UNL     1     -10.861 -10.586  18.303  0.00  0.00    -0.229 NA
ATOM      9  N   UNL     1     -12.736 -11.554  19.466  0.00  0.00    -0.230 N 
ATOM     11  C   UNL     1      -7.096 -10.507  17.473  0.00  0.00    -0.019 C 
ATOM     12  C   UNL     1      -7.008 -12.093  17.355  0.00  0.00    +0.011 C 
ATOM     13  C   UNL     1      -5.578 -12.716  17.126  0.00  0.00    +0.021 C 
ATOM     14  C   UNL     1      -8.620 -10.080  17.258  0.00  0.00    +0.054 C 
ATOM     15  C   UNL     1      -6.245  -9.860  16.350  0.00  0.00    +0.010 C 
ATOM     16  C   UNL     1      -4.846 -11.922  16.006  0.00  0.00    +0.123 C 
ATOM     17  C   UNL     1      -7.824 -12.792  18.482  0.00  0.00    +0.049 C 
ATOM     18  C   UNL     1      -4.832 -10.417  16.248  0.00  0.00    +0.032 C 
ATOM     19  C   UNL     1      -6.601  -9.978  18.841  0.00  0.00    +0.012 C 
ATOM     20  C   UNL     1      -9.546 -10.948  18.073  0.00  0.00    +0.058 A 
ATOM     22  C   UNL     1      -5.736 -14.180  16.628  0.00  0.00    +0.016 C 
ATOM     23  C   UNL     1      -9.174 -12.169  18.596  0.00  0.00    +0.015 A 
ATOM     26  C   UNL     1     -11.444 -11.525  19.016  0.00  0.00    +0.167 A 
ATOM     28  C   UNL     1     -13.726 -10.588  19.266  0.00  0.00    +0.406 C 
ATOM     38  H   UNL     1     -12.995 -12.375  20.005  0.00  0.00    +0.160 HD
ENDROOT
BRANCH  16   2
ATOM      2  O   UNL     1      -3.502 -12.378  15.863  0.00  0.00    -0.391 OA
ATOM     35  H   UNL     1      -3.532 -13.328  15.660  0.00  0.00    +0.210 HD
ENDBRANCH  16   2
BRANCH  28   5
ATOM      5  O   UNL     1     -14.883 -10.991  19.877  0.00  0.00    -0.446 OA
BRANCH   5  32
ATOM     32  C   UNL     1     -15.949 -10.035  19.902  0.00  0.00    +0.261 C 
BRANCH  32  33
ATOM     33  C   UNL     1     -15.914  -9.312  21.207  0.00  0.00    +0.006 C 
ATOM     34  C   UNL     1     -15.927  -7.979  21.323  0.00  0.00    +0.007 C 
ENDBRANCH  32  33
ENDBRANCH   5  32
ENDBRANCH  28   5
BRANCH  13  21
ATOM     21  C   UNL     1      -4.706 -12.803  18.398  0.00  0.00    +0.165 C 
BRANCH  21   3
ATOM      3  O   UNL     1      -4.079 -14.066  18.406  0.00  0.00    -0.394 OA
ATOM     36  H   UNL     1      -3.496 -14.096  19.184  0.00  0.00    +0.209 HD
ENDBRANCH  21   3
ENDBRANCH  13  21
BRANCH  14  24
ATOM     24  C   UNL     1      -8.904  -8.589  17.485  0.00  0.00    +0.106 C 
BRANCH  24  25
ATOM      4  O   UNL     1      -9.642  -8.432  15.186  0.00  0.00    -0.276 OA
ATOM      8  N   UNL     1     -10.323  -6.825  16.721  0.00  0.00    -0.314 N 
ATOM     25  C   UNL     1      -9.648  -7.971  16.324  0.00  0.00    +0.214 C 
ATOM     37  H   UNL     1     -10.270  -6.529  17.691  0.00  0.00    +0.149 HD
BRANCH   8  27
ATOM     27  C   UNL     1     -11.117  -6.024  15.818  0.00  0.00    +0.119 C 
BRANCH  27  29
ATOM     29  C   UNL     1     -12.572  -6.465  15.825  0.00  0.00    +0.102 C 
BRANCH  29  10
ATOM     10  N   UNL     1     -13.268  -5.936  14.659  0.00  0.00    -0.307 NA
ATOM     30  C   UNL     1     -13.844  -7.023  13.864  0.00  0.00    +0.104 C 
ATOM     31  C   UNL     1     -12.361  -5.133  13.837  0.00  0.00    +0.104 C 
ENDBRANCH  29  10
ENDBRANCH  27  29
ENDBRANCH   8  27
ENDBRANCH  24  25
ENDBRANCH  14  24
TORSDOF 11
ENDMDL
MODEL 4
REMARK VINA RESULT:      -5.6      2.673      7.406
REMARK  Name = 11885067
REMARK  15 active torsions:
REMARK  status: ('A' for Active; 'I' for Inactive)
REMARK    1  A    between atoms: O_2  and  C_16
REMARK    2  A    between atoms: O_3  and  C_21
REMARK    3  A    between atoms: O_5  and  C_28
REMARK    4  A    between atoms: O_5  and  C_32
REMARK    5  A    between atoms: N_8  and  C_27
REMARK    6  A    between atoms: N_10  and  C_29
REMARK    7  A    between atoms: N_10  and  C_30
REMARK    8  A    between atoms: N_10  and  C_31
REMARK    9  A    between atoms: C_11  and  C_19
REMARK   10  A    between atoms: C_13  and  C_21
REMARK   11  A    between atoms: C_13  and  C_22
REMARK   12  A    between atoms: C_14  and  C_24
REMARK   13  A    between atoms: C_24  and  C_25
REMARK   14  A    between atoms: C_27  and  C_29
REMARK   15  A    between atoms: C_32  and  C_33
REMARK                            x       y       z     vdW  Elec       q    Type
REMARK                         _______ _______ _______ _____ _____    ______ ____
ROOT
ATOM      1  S   UNL     1       9.974   4.855   3.723  0.00  0.00    -0.057 S 
ATOM      6  O   UNL     1      12.662   7.041   6.839  0.00  0.00    -0.226 OA
ATOM      7  N   UNL     1      12.209   6.119   4.048  0.00  0.00    -0.229 NA
ATOM      9  N   UNL     1      10.816   5.855   5.997  0.00  0.00    -0.230 N 
ATOM     11  C   UNL     1      13.090   5.232   0.400  0.00  0.00    -0.019 C 
ATOM     12  C   UNL     1      11.564   5.247  -0.055  0.00  0.00    +0.011 C 
ATOM     13  C   UNL     1      11.254   4.810  -1.539  0.00  0.00    +0.021 C 
ATOM     14  C   UNL     1      13.215   6.101   1.734  0.00  0.00    +0.054 C 
ATOM     15  C   UNL     1      13.961   5.893  -0.698  0.00  0.00    +0.010 C 
ATOM     16  C   UNL     1      12.245   5.526  -2.501  0.00  0.00    +0.123 C 
ATOM     17  C   UNL     1      10.648   4.564   1.003  0.00  0.00    +0.049 C 
ATOM     18  C   UNL     1      13.705   5.353  -2.098  0.00  0.00    +0.032 C 
ATOM     19  C   UNL     1      13.623   3.802   0.665  0.00  0.00    +0.012 C 
ATOM     20  C   UNL     1      12.132   5.742   2.720  0.00  0.00    +0.058 A 
ATOM     22  C   UNL     1       9.822   5.279  -1.918  0.00  0.00    +0.016 C 
ATOM     23  C   UNL     1      10.981   5.069   2.366  0.00  0.00    +0.015 A 
ATOM     26  C   UNL     1      11.130   5.699   4.674  0.00  0.00    +0.167 A 
ATOM     28  C   UNL     1      11.574   6.497   6.979  0.00  0.00    +0.406 C 
ATOM     38  H   UNL     1       9.929   5.454   6.287  0.00  0.00    +0.160 HD
ENDROOT
BRANCH  16   2
ATOM      2  O   UNL     1      12.077   5.056  -3.837  0.00  0.00    -0.391 OA
ATOM     35  H   UNL     1      11.127   5.079  -4.041  0.00  0.00    +0.210 HD
ENDBRANCH  16   2
BRANCH  28   5
ATOM      5  O   UNL     1      10.911   6.437   8.175  0.00  0.00    -0.446 OA
BRANCH   5  32
ATOM     32  C   UNL     1       9.604   5.852   8.144  0.00  0.00    +0.261 C 
BRANCH  32  33
ATOM     33  C   UNL     1       9.601   4.636   9.007  0.00  0.00    +0.006 C 
ATOM     34  C   UNL     1       9.032   4.579  10.217  0.00  0.00    +0.007 C 
ENDBRANCH  32  33
ENDBRANCH   5  32
ENDBRANCH  28   5
BRANCH  13  21
ATOM     21  C   UNL     1      11.267   3.283  -1.773  0.00  0.00    +0.165 C 
BRANCH  21   3
ATOM      3  O   UNL     1      10.185   2.968  -2.620  0.00  0.00    -0.394 OA
ATOM     36  H   UNL     1       9.384   3.352  -2.224  0.00  0.00    +0.209 HD
ENDBRANCH  21   3
ENDBRANCH  13  21
BRANCH  14  24
ATOM     24  C   UNL     1      14.603   6.070   2.389  0.00  0.00    +0.106 C 
BRANCH  24  25
ATOM      4  O   UNL     1      15.507   8.303   2.164  0.00  0.00    -0.276 OA
ATOM      8  N   UNL     1      14.802   7.556   4.249  0.00  0.00    -0.314 N 
ATOM     25  C   UNL     1      15.026   7.433   2.885  0.00  0.00    +0.214 C 
ATOM     37  H   UNL     1      14.391   6.778   4.756  0.00  0.00    +0.149 HD
BRANCH   8  27
ATOM     27  C   UNL     1      15.114   8.753   4.995  0.00  0.00    +0.119 C 
BRANCH  27  29
ATOM     29  C   UNL     1      16.271   8.519   5.954  0.00  0.00    +0.102 C 
BRANCH  29  10
ATOM     10  N   UNL     1      17.542   8.763   5.285  0.00  0.00    -0.307 NA
ATOM     30  C   UNL     1      18.644   8.758   6.249  0.00  0.00    +0.104 C 
ATOM     31  C   UNL     1      17.509  10.036   4.561  0.00  0.00    +0.104 C 
ENDBRANCH  29  10
ENDBRANCH  27  29
ENDBRANCH   8  27
ENDBRANCH  24  25
ENDBRANCH  14  24
TORSDOF 11
ENDMDL
MODEL 5
REMARK VINA RESULT:      -5.6     27.015     30.833
REMARK  Name = 11885067
REMARK  15 active torsions:
REMARK  status: ('A' for Active; 'I' for Inactive)
REMARK    1  A    between atoms: O_2  and  C_16
REMARK    2  A    between atoms: O_3  and  C_21
REMARK    3  A    between atoms: O_5  and  C_28
REMARK    4  A    between atoms: O_5  and  C_32
REMARK    5  A    between atoms: N_8  and  C_27
REMARK    6  A    between atoms: N_10  and  C_29
REMARK    7  A    between atoms: N_10  and  C_30
REMARK    8  A    between atoms: N_10  and  C_31
REMARK    9  A    between atoms: C_11  and  C_19
REMARK   10  A    between atoms: C_13  and  C_21
REMARK   11  A    between atoms: C_13  and  C_22
REMARK   12  A    between atoms: C_14  and  C_24
REMARK   13  A    between atoms: C_24  and  C_25
REMARK   14  A    between atoms: C_27  and  C_29
REMARK   15  A    between atoms: C_32  and  C_33
REMARK                            x       y       z     vdW  Elec       q    Type
REMARK                         _______ _______ _______ _____ _____    ______ ____
ROOT
ATOM      1  S   UNL     1      -4.832 -10.599  12.725  0.00  0.00    -0.057 S 
ATOM      6  O   UNL     1      -8.018  -8.463  10.080  0.00  0.00    -0.226 OA
ATOM      7  N   UNL     1      -7.231  -9.629  12.700  0.00  0.00    -0.229 NA
ATOM      9  N   UNL     1      -5.973  -9.471  10.651  0.00  0.00    -0.230 N 
ATOM     11  C   UNL     1      -7.700 -11.045  16.256  0.00  0.00    -0.019 C 
ATOM     12  C   UNL     1      -6.158 -10.870  16.614  0.00  0.00    +0.011 C 
ATOM     13  C   UNL     1      -5.679 -11.428  18.010  0.00  0.00    +0.021 C 
ATOM     14  C   UNL     1      -8.042 -10.053  15.052  0.00  0.00    +0.054 C 
ATOM     15  C   UNL     1      -8.561 -10.642  17.481  0.00  0.00    +0.010 C 
ATOM     16  C   UNL     1      -6.676 -10.972  19.113  0.00  0.00    +0.123 C 
ATOM     17  C   UNL     1      -5.247 -11.292  15.424  0.00  0.00    +0.049 C 
ATOM     18  C   UNL     1      -8.128 -11.299  18.783  0.00  0.00    +0.032 C 
ATOM     19  C   UNL     1      -8.062 -12.494  15.848  0.00  0.00    +0.012 C 
ATOM     20  C   UNL     1      -7.001 -10.142  13.964  0.00  0.00    +0.058 A 
ATOM     22  C   UNL     1      -4.294 -10.811  18.354  0.00  0.00    +0.016 C 
ATOM     23  C   UNL     1      -5.748 -10.685  14.158  0.00  0.00    +0.015 A 
ATOM     26  C   UNL     1      -6.159  -9.820  11.961  0.00  0.00    +0.167 A 
ATOM     28  C   UNL     1      -6.883  -8.832   9.806  0.00  0.00    +0.406 C 
ATOM     38  H   UNL     1      -5.066  -9.708  10.258  0.00  0.00    +0.160 HD
ENDROOT
BRANCH  16   2
ATOM      2  O   UNL     1      -6.344 -11.566  20.367  0.00  0.00    -0.391 OA
ATOM     35  H   UNL     1      -5.929 -12.426  20.186  0.00  0.00    +0.210 HD
ENDBRANCH  16   2
BRANCH  28   5
ATOM      5  O   UNL     1      -6.314  -8.660   8.572  0.00  0.00    -0.446 OA
BRANCH   5  32
ATOM     32  C   UNL     1      -5.246  -9.555   8.240  0.00  0.00    +0.261 C 
BRANCH  32  33
ATOM     33  C   UNL     1      -5.460 -10.065   6.855  0.00  0.00    +0.006 C 
ATOM     34  C   UNL     1      -4.987 -11.235   6.408  0.00  0.00    +0.007 C 
ENDBRANCH  32  33
ENDBRANCH   5  32
ENDBRANCH  28   5
BRANCH  13  21
ATOM     21  C   UNL     1      -5.474 -12.958  18.052  0.00  0.00    +0.165 C 
BRANCH  21   3
ATOM      3  O   UNL     1      -4.281 -13.214  18.760  0.00  0.00    -0.394 OA
ATOM     36  H   UNL     1      -3.580 -12.680  18.350  0.00  0.00    +0.209 HD
ENDBRANCH  21   3
ENDBRANCH  13  21
BRANCH  14  24
ATOM     24  C   UNL     1      -9.460 -10.201  14.485  0.00  0.00    +0.106 C 
BRANCH  24  25
ATOM      4  O   UNL     1     -11.076  -8.630  13.605  0.00  0.00    -0.276 OA
ATOM      8  N   UNL     1      -9.695  -7.991  15.362  0.00  0.00    -0.314 N 
ATOM     25  C   UNL     1     -10.182  -8.875  14.411  0.00  0.00    +0.214 C 
ATOM     37  H   UNL     1      -8.956  -8.294  15.989  0.00  0.00    +0.149 HD
BRANCH   8  27
ATOM     27  C   UNL     1     -10.197  -6.646  15.520  0.00  0.00    +0.119 C 
BRANCH  27  29
ATOM     29  C   UNL     1     -11.336  -6.597  16.527  0.00  0.00    +0.102 C 
BRANCH  29  10
ATOM     10  N   UNL     1     -12.557  -6.120  15.890  0.00  0.00    -0.307 NA
ATOM     30  C   UNL     1     -13.521  -7.211  15.738  0.00  0.00    +0.104 C 
ATOM     31  C   UNL     1     -12.259  -5.521  14.587  0.00  0.00    +0.104 C 
ENDBRANCH  29  10
ENDBRANCH  27  29
ENDBRANCH   8  27
ENDBRANCH  24  25
ENDBRANCH  14  24
TORSDOF 11
ENDMDL
MODEL 6
REMARK VINA RESULT:      -5.3     26.661     30.821
REMARK  Name = 11885067
REMARK  15 active torsions:
REMARK  status: ('A' for Active; 'I' for Inactive)
REMARK    1  A    between atoms: O_2  and  C_16
REMARK    2  A    between atoms: O_3  and  C_21
REMARK    3  A    between atoms: O_5  and  C_28
REMARK    4  A    between atoms: O_5  and  C_32
REMARK    5  A    between atoms: N_8  and  C_27
REMARK    6  A    between atoms: N_10  and  C_29
REMARK    7  A    between atoms: N_10  and  C_30
REMARK    8  A    between atoms: N_10  and  C_31
REMARK    9  A    between atoms: C_11  and  C_19
REMARK   10  A    between atoms: C_13  and  C_21
REMARK   11  A    between atoms: C_13  and  C_22
REMARK   12  A    between atoms: C_14  and  C_24
REMARK   13  A    between atoms: C_24  and  C_25
REMARK   14  A    between atoms: C_27  and  C_29
REMARK   15  A    between atoms: C_32  and  C_33
REMARK                            x       y       z     vdW  Elec       q    Type
REMARK                         _______ _______ _______ _____ _____    ______ ____
ROOT
ATOM      1  S   UNL     1      -8.595 -10.628  13.167  0.00  0.00    -0.057 S 
ATOM      6  O   UNL     1      -4.428  -9.341  11.527  0.00  0.00    -0.226 OA
ATOM      7  N   UNL     1      -6.105 -10.302  13.788  0.00  0.00    -0.229 NA
ATOM      9  N   UNL     1      -6.734  -9.797  11.517  0.00  0.00    -0.230 N 
ATOM     11  C   UNL     1      -7.049 -11.080  17.444  0.00  0.00    -0.019 C 
ATOM     12  C   UNL     1      -8.235 -12.052  17.014  0.00  0.00    +0.011 C 
ATOM     13  C   UNL     1      -9.139 -12.635  18.169  0.00  0.00    +0.021 C 
ATOM     14  C   UNL     1      -6.030 -10.973  16.219  0.00  0.00    +0.054 C 
ATOM     15  C   UNL     1      -6.296 -11.692  18.654  0.00  0.00    +0.010 C 
ATOM     16  C   UNL     1      -8.229 -13.159  19.316  0.00  0.00    +0.123 C 
ATOM     17  C   UNL     1      -9.044 -11.467  15.819  0.00  0.00    +0.049 C 
ATOM     18  C   UNL     1      -7.208 -12.132  19.791  0.00  0.00    +0.032 C 
ATOM     19  C   UNL     1      -7.542  -9.664  17.830  0.00  0.00    +0.012 C 
ATOM     20  C   UNL     1      -6.764 -10.737  14.923  0.00  0.00    +0.058 A 
ATOM     22  C   UNL     1      -9.941 -13.849  17.622  0.00  0.00    +0.016 C 
ATOM     23  C   UNL     1      -8.111 -10.983  14.761  0.00  0.00    +0.015 A 
ATOM     26  C   UNL     1      -6.972 -10.201  12.803  0.00  0.00    +0.167 A 
ATOM     28  C   UNL     1      -5.514  -9.400  10.965  0.00  0.00    +0.406 C 
ATOM     38  H   UNL     1      -7.544  -9.788  10.904  0.00  0.00    +0.160 HD
ENDROOT
BRANCH  16   2
ATOM      2  O   UNL     1      -9.016 -13.575  20.431  0.00  0.00    -0.391 OA
ATOM     35  H   UNL     1      -8.429 -13.621  21.205  0.00  0.00    +0.210 HD
ENDBRANCH  16   2
BRANCH  28   5
ATOM      5  O   UNL     1      -5.698  -9.072   9.648  0.00  0.00    -0.446 OA
BRANCH   5  32
ATOM     32  C   UNL     1      -4.586  -9.309   8.777  0.00  0.00    +0.261 C 
BRANCH  32  33
ATOM     33  C   UNL     1      -4.875 -10.511   7.944  0.00  0.00    +0.006 C 
ATOM     34  C   UNL     1      -4.563 -11.762   8.302  0.00  0.00    +0.007 C 
ENDBRANCH  32  33
ENDBRANCH   5  32
ENDBRANCH  28   5
BRANCH  13  21
ATOM     21  C   UNL     1     -10.197 -11.649  18.712  0.00  0.00    +0.165 C 
BRANCH  21   3
ATOM      3  O   UNL     1     -11.330 -12.399  19.092  0.00  0.00    -0.394 OA
ATOM     36  H   UNL     1     -11.012 -13.176  19.582  0.00  0.00    +0.209 HD
ENDBRANCH  21   3
ENDBRANCH  13  21
BRANCH  14  24
ATOM     24  C   UNL     1      -4.898  -9.956  16.417  0.00  0.00    +0.106 C 
BRANCH  24  25
ATOM      4  O   UNL     1      -2.895 -11.150  17.061  0.00  0.00    -0.276 OA
ATOM      8  N   UNL     1      -3.122 -10.387  14.878  0.00  0.00    -0.314 N 
ATOM     25  C   UNL     1      -3.537 -10.571  16.189  0.00  0.00    +0.214 C 
ATOM     37  H   UNL     1      -3.732  -9.899  14.228  0.00  0.00    +0.149 HD
BRANCH   8  27
ATOM     27  C   UNL     1      -1.857 -10.869  14.375  0.00  0.00    +0.119 C 
BRANCH  27  29
ATOM     29  C   UNL     1      -1.989 -12.273  13.805  0.00  0.00    +0.102 C 
BRANCH  29  10
ATOM     10  N   UNL     1      -3.285 -12.438  13.159  0.00  0.00    -0.307 NA
ATOM     30  C   UNL     1      -3.987 -13.603  13.700  0.00  0.00    +0.104 C 
ATOM     31  C   UNL     1      -3.126 -12.571  11.709  0.00  0.00    +0.104 C 
ENDBRANCH  29  10
ENDBRANCH  27  29
ENDBRANCH   8  27
ENDBRANCH  24  25
ENDBRANCH  14  24
TORSDOF 11
ENDMDL
MODEL 7
REMARK VINA RESULT:      -5.3     27.003     30.026
REMARK  Name = 11885067
REMARK  15 active torsions:
REMARK  status: ('A' for Active; 'I' for Inactive)
REMARK    1  A    between atoms: O_2  and  C_16
REMARK    2  A    between atoms: O_3  and  C_21
REMARK    3  A    between atoms: O_5  and  C_28
REMARK    4  A    between atoms: O_5  and  C_32
REMARK    5  A    between atoms: N_8  and  C_27
REMARK    6  A    between atoms: N_10  and  C_29
REMARK    7  A    between atoms: N_10  and  C_30
REMARK    8  A    between atoms: N_10  and  C_31
REMARK    9  A    between atoms: C_11  and  C_19
REMARK   10  A    between atoms: C_13  and  C_21
REMARK   11  A    between atoms: C_13  and  C_22
REMARK   12  A    between atoms: C_14  and  C_24
REMARK   13  A    between atoms: C_24  and  C_25
REMARK   14  A    between atoms: C_27  and  C_29
REMARK   15  A    between atoms: C_32  and  C_33
REMARK                            x       y       z     vdW  Elec       q    Type
REMARK                         _______ _______ _______ _____ _____    ______ ____
ROOT
ATOM      1  S   UNL     1      -6.509 -10.389  10.730  0.00  0.00    -0.057 S 
ATOM      6  O   UNL     1     -10.778  -8.734  11.594  0.00  0.00    -0.226 OA
ATOM      7  N   UNL     1      -8.141  -9.670  12.604  0.00  0.00    -0.229 NA
ATOM      9  N   UNL     1      -8.943  -9.496  10.338  0.00  0.00    -0.230 N 
ATOM     11  C   UNL     1      -5.550 -10.930  15.166  0.00  0.00    -0.019 C 
ATOM     12  C   UNL     1      -4.322 -10.581  14.214  0.00  0.00    +0.011 C 
ATOM     13  C   UNL     1      -2.887 -11.010  14.708  0.00  0.00    +0.021 C 
ATOM     14  C   UNL     1      -6.797 -10.045  14.706  0.00  0.00    +0.054 C 
ATOM     15  C   UNL     1      -5.192 -10.550  16.626  0.00  0.00    +0.010 C 
ATOM     16  C   UNL     1      -2.714 -10.598  16.198  0.00  0.00    +0.123 C 
ATOM     17  C   UNL     1      -4.619 -10.972  12.736  0.00  0.00    +0.049 C 
ATOM     18  C   UNL     1      -3.847 -11.088  17.092  0.00  0.00    +0.032 C 
ATOM     19  C   UNL     1      -5.937 -12.428  15.122  0.00  0.00    +0.012 C 
ATOM     20  C   UNL     1      -6.970 -10.087  13.208  0.00  0.00    +0.058 A 
ATOM     22  C   UNL     1      -1.815 -10.239  13.888  0.00  0.00    +0.016 C 
ATOM     23  C   UNL     1      -5.973 -10.489  12.343  0.00  0.00    +0.015 A 
ATOM     26  C   UNL     1      -8.015  -9.792  11.299  0.00  0.00    +0.167 A 
ATOM     28  C   UNL     1     -10.234  -9.000  10.529  0.00  0.00    +0.406 C 
ATOM     38  H   UNL     1      -8.649  -9.662   9.379  0.00  0.00    +0.160 HD
ENDROOT
BRANCH  16   2
ATOM      2  O   UNL     1      -1.477 -11.086  16.715  0.00  0.00    -0.391 OA
ATOM     35  H   UNL     1      -0.768 -10.771  16.128  0.00  0.00    +0.210 HD
ENDBRANCH  16   2
BRANCH  28   5
ATOM      5  O   UNL     1     -10.844  -8.839   9.313  0.00  0.00    -0.446 OA
BRANCH   5  32
ATOM     32  C   UNL     1      -9.988  -8.896   8.166  0.00  0.00    +0.261 C 
BRANCH  32  33
ATOM     33  C   UNL     1     -10.634  -8.152   7.046  0.00  0.00    +0.006 C 
ATOM     34  C   UNL     1     -10.323  -6.896   6.706  0.00  0.00    +0.007 C 
ENDBRANCH  32  33
ENDBRANCH   5  32
ENDBRANCH  28   5
BRANCH  13  21
ATOM     21  C   UNL     1      -2.562 -12.507  14.510  0.00  0.00    +0.165 C 
BRANCH  21   3
ATOM      3  O   UNL     1      -1.220 -12.606  14.090  0.00  0.00    -0.394 OA
ATOM     36  H   UNL     1      -0.698 -12.906  14.854  0.00  0.00    +0.209 HD
ENDBRANCH  21   3
ENDBRANCH  13  21
BRANCH  14  24
ATOM     24  C   UNL     1      -8.111 -10.366  15.432  0.00  0.00    +0.106 C 
BRANCH  24  25
ATOM      4  O   UNL     1      -8.374  -8.993  17.407  0.00  0.00    -0.276 OA
ATOM      8  N   UNL     1      -9.416  -8.365  15.426  0.00  0.00    -0.314 N 
ATOM     25  C   UNL     1      -8.626  -9.185  16.220  0.00  0.00    +0.214 C 
ATOM     37  H   UNL     1      -9.558  -8.607  14.451  0.00  0.00    +0.149 HD
BRANCH   8  27
ATOM     27  C   UNL     1     -10.045  -7.160  15.917  0.00  0.00    +0.119 C 
BRANCH  27  29
ATOM     29  C   UNL     1     -11.560  -7.289  15.911  0.00  0.00    +0.102 C 
BRANCH  29  10
ATOM     10  N   UNL     1     -12.033  -7.660  14.583  0.00  0.00    -0.307 NA
ATOM     30  C   UNL     1     -12.574  -6.495  13.882  0.00  0.00    +0.104 C 
ATOM     31  C   UNL     1     -13.046  -8.714  14.672  0.00  0.00    +0.104 C 
ENDBRANCH  29  10
ENDBRANCH  27  29
ENDBRANCH   8  27
ENDBRANCH  24  25
ENDBRANCH  14  24
TORSDOF 11
ENDMDL
MODEL 8
REMARK VINA RESULT:      -5.2     27.260     29.872
REMARK  Name = 11885067
REMARK  15 active torsions:
REMARK  status: ('A' for Active; 'I' for Inactive)
REMARK    1  A    between atoms: O_2  and  C_16
REMARK    2  A    between atoms: O_3  and  C_21
REMARK    3  A    between atoms: O_5  and  C_28
REMARK    4  A    between atoms: O_5  and  C_32
REMARK    5  A    between atoms: N_8  and  C_27
REMARK    6  A    between atoms: N_10  and  C_29
REMARK    7  A    between atoms: N_10  and  C_30
REMARK    8  A    between atoms: N_10  and  C_31
REMARK    9  A    between atoms: C_11  and  C_19
REMARK   10  A    between atoms: C_13  and  C_21
REMARK   11  A    between atoms: C_13  and  C_22
REMARK   12  A    between atoms: C_14  and  C_24
REMARK   13  A    between atoms: C_24  and  C_25
REMARK   14  A    between atoms: C_27  and  C_29
REMARK   15  A    between atoms: C_32  and  C_33
REMARK                            x       y       z     vdW  Elec       q    Type
REMARK                         _______ _______ _______ _____ _____    ______ ____
ROOT
ATOM      1  S   UNL     1      -4.753  -9.178  10.425  0.00  0.00    -0.057 S 
ATOM      6  O   UNL     1      -8.985  -7.622   9.251  0.00  0.00    -0.226 OA
ATOM      7  N   UNL     1      -7.218  -9.018  11.194  0.00  0.00    -0.229 NA
ATOM      9  N   UNL     1      -6.681  -8.043   9.057  0.00  0.00    -0.230 N 
ATOM     11  C   UNL     1      -6.286 -11.235  14.207  0.00  0.00    -0.019 C 
ATOM     12  C   UNL     1      -4.797 -10.672  14.262  0.00  0.00    +0.011 C 
ATOM     13  C   UNL     1      -3.816 -11.339  15.302  0.00  0.00    +0.021 C 
ATOM     14  C   UNL     1      -7.190 -10.165  13.441  0.00  0.00    +0.054 C 
ATOM     15  C   UNL     1      -6.830 -11.391  15.651  0.00  0.00    +0.010 C 
ATOM     16  C   UNL     1      -4.534 -11.461  16.676  0.00  0.00    +0.123 C 
ATOM     17  C   UNL     1      -4.192 -10.526  12.834  0.00  0.00    +0.049 C 
ATOM     18  C   UNL     1      -5.894 -12.144  16.586  0.00  0.00    +0.032 C 
ATOM     19  C   UNL     1      -6.385 -12.603  13.488  0.00  0.00    +0.012 C 
ATOM     20  C   UNL     1      -6.518  -9.693  12.177  0.00  0.00    +0.058 A 
ATOM     22  C   UNL     1      -2.585 -10.412  15.504  0.00  0.00    +0.016 C 
ATOM     23  C   UNL     1      -5.169  -9.849  11.934  0.00  0.00    +0.015 A 
ATOM     26  C   UNL     1      -6.392  -8.705  10.219  0.00  0.00    +0.167 A 
ATOM     28  C   UNL     1      -7.923  -7.552   8.646  0.00  0.00    +0.406 C 
ATOM     38  H   UNL     1      -5.896  -7.897   8.428  0.00  0.00    +0.160 HD
ENDROOT
BRANCH  16   2
ATOM      2  O   UNL     1      -3.722 -12.177  17.606  0.00  0.00    -0.391 OA
ATOM     35  H   UNL     1      -3.296 -12.907  17.124  0.00  0.00    +0.210 HD
ENDBRANCH  16   2
BRANCH  28   5
ATOM      5  O   UNL     1      -7.792  -6.953   7.422  0.00  0.00    -0.446 OA
BRANCH   5  32
ATOM     32  C   UNL     1      -8.024  -7.789   6.282  0.00  0.00    +0.261 C 
BRANCH  32  33
ATOM     33  C   UNL     1      -9.235  -7.297   5.564  0.00  0.00    +0.006 C 
ATOM     34  C   UNL     1      -9.390  -7.353   4.236  0.00  0.00    +0.007 C 
ENDBRANCH  32  33
ENDBRANCH   5  32
ENDBRANCH  28   5
BRANCH  13  21
ATOM     21  C   UNL     1      -3.241 -12.702  14.858  0.00  0.00    +0.165 C 
BRANCH  21   3
ATOM      3  O   UNL     1      -1.848 -12.551  14.699  0.00  0.00    -0.394 OA
ATOM     36  H   UNL     1      -1.477 -12.345  15.574  0.00  0.00    +0.209 HD
ENDBRANCH  21   3
ENDBRANCH  13  21
BRANCH  14  24
ATOM     24  C   UNL     1      -8.631 -10.621  13.174  0.00  0.00    +0.106 C 
BRANCH  24  25
ATOM      4  O   UNL     1     -10.812 -10.213  14.139  0.00  0.00    -0.276 OA
ATOM      8  N   UNL     1      -9.018  -8.867  14.749  0.00  0.00    -0.314 N 
ATOM     25  C   UNL     1      -9.626  -9.905  14.058  0.00  0.00    +0.214 C 
ATOM     37  H   UNL     1      -8.025  -8.698  14.618  0.00  0.00    +0.149 HD
BRANCH   8  27
ATOM     27  C   UNL     1      -9.728  -8.008  15.668  0.00  0.00    +0.119 C 
BRANCH  27  29
ATOM     29  C   UNL     1      -9.333  -8.294  17.109  0.00  0.00    +0.102 C 
BRANCH  29  10
ATOM     10  N   UNL     1     -10.425  -8.953  17.813  0.00  0.00    -0.307 NA
ATOM     30  C   UNL     1     -10.234 -10.405  17.821  0.00  0.00    +0.104 C 
ATOM     31  C   UNL     1     -11.712  -8.615  17.201  0.00  0.00    +0.104 C 
ENDBRANCH  29  10
ENDBRANCH  27  29
ENDBRANCH   8  27
ENDBRANCH  24  25
ENDBRANCH  14  24
TORSDOF 11
ENDMDL
MODEL 9
REMARK VINA RESULT:      -5.2     25.065     27.175
REMARK  Name = 11885067
REMARK  15 active torsions:
REMARK  status: ('A' for Active; 'I' for Inactive)
REMARK    1  A    between atoms: O_2  and  C_16
REMARK    2  A    between atoms: O_3  and  C_21
REMARK    3  A    between atoms: O_5  and  C_28
REMARK    4  A    between atoms: O_5  and  C_32
REMARK    5  A    between atoms: N_8  and  C_27
REMARK    6  A    between atoms: N_10  and  C_29
REMARK    7  A    between atoms: N_10  and  C_30
REMARK    8  A    between atoms: N_10  and  C_31
REMARK    9  A    between atoms: C_11  and  C_19
REMARK   10  A    between atoms: C_13  and  C_21
REMARK   11  A    between atoms: C_13  and  C_22
REMARK   12  A    between atoms: C_14  and  C_24
REMARK   13  A    between atoms: C_24  and  C_25
REMARK   14  A    between atoms: C_27  and  C_29
REMARK   15  A    between atoms: C_32  and  C_33
REMARK                            x       y       z     vdW  Elec       q    Type
REMARK                         _______ _______ _______ _____ _____    ______ ____
ROOT
ATOM      1  S   UNL     1      -0.764 -13.790  -1.923  0.00  0.00    -0.057 S 
ATOM      6  O   UNL     1      -4.322 -12.882   0.944  0.00  0.00    -0.226 OA
ATOM      7  N   UNL     1      -1.552 -13.886   0.539  0.00  0.00    -0.229 NA
ATOM      9  N   UNL     1      -3.121 -13.020  -1.072  0.00  0.00    -0.230 N 
ATOM     11  C   UNL     1       1.731 -15.724   1.382  0.00  0.00    -0.019 C 
ATOM     12  C   UNL     1       2.539 -14.974   0.232  0.00  0.00    +0.011 C 
ATOM     13  C   UNL     1       4.031 -15.427  -0.008  0.00  0.00    +0.021 C 
ATOM     14  C   UNL     1       0.450 -14.841   1.742  0.00  0.00    +0.054 C 
ATOM     15  C   UNL     1       2.620 -15.835   2.647  0.00  0.00    +0.010 C 
ATOM     16  C   UNL     1       4.761 -15.532   1.361  0.00  0.00    +0.123 C 
ATOM     17  C   UNL     1       1.698 -14.864  -1.074  0.00  0.00    +0.049 C 
ATOM     18  C   UNL     1       4.012 -16.388   2.377  0.00  0.00    +0.032 C 
ATOM     19  C   UNL     1       1.277 -17.146   0.967  0.00  0.00    +0.012 C 
ATOM     20  C   UNL     1      -0.264 -14.387   0.493  0.00  0.00    +0.058 A 
ATOM     22  C   UNL     1       4.763 -14.338  -0.841  0.00  0.00    +0.016 C 
ATOM     23  C   UNL     1       0.322 -14.388  -0.756  0.00  0.00    +0.015 A 
ATOM     26  C   UNL     1      -1.921 -13.547  -0.678  0.00  0.00    +0.167 A 
ATOM     28  C   UNL     1      -4.224 -12.725  -0.267  0.00  0.00    +0.406 C 
ATOM     38  H   UNL     1      -3.210 -12.825  -2.065  0.00  0.00    +0.160 HD
ENDROOT
BRANCH  16   2
ATOM      2  O   UNL     1       6.074 -16.064   1.191  0.00  0.00    -0.391 OA
ATOM     35  H   UNL     1       6.329 -16.492   2.026  0.00  0.00    +0.210 HD
ENDBRANCH  16   2
BRANCH  28   5
ATOM      5  O   UNL     1      -5.228 -12.211  -1.042  0.00  0.00    -0.446 OA
BRANCH   5  32
ATOM     32  C   UNL     1      -5.592 -12.981  -2.195  0.00  0.00    +0.261 C 
BRANCH  32  33
ATOM     33  C   UNL     1      -6.658 -12.253  -2.942  0.00  0.00    +0.006 C 
ATOM     34  C   UNL     1      -6.506 -11.027  -3.458  0.00  0.00    +0.007 C 
ENDBRANCH  32  33
ENDBRANCH   5  32
ENDBRANCH  28   5
BRANCH  13  21
ATOM     21  C   UNL     1       4.180 -16.736  -0.814  0.00  0.00    +0.165 C 
BRANCH  21   3
ATOM      3  O   UNL     1       5.474 -16.751  -1.376  0.00  0.00    -0.394 OA
ATOM     36  H   UNL     1       5.975 -17.455  -0.930  0.00  0.00    +0.209 HD
ENDBRANCH  21   3
ENDBRANCH  13  21
BRANCH  14  24
ATOM     24  C   UNL     1      -0.519 -15.496   2.735  0.00  0.00    +0.106 C 
BRANCH  24  25
ATOM      4  O   UNL     1       0.029 -14.451   4.848  0.00  0.00    -0.276 OA
ATOM      8  N   UNL     1      -2.038 -14.040   3.867  0.00  0.00    -0.314 N 
ATOM     25  C   UNL     1      -0.778 -14.617   3.937  0.00  0.00    +0.214 C 
ATOM     37  H   UNL     1      -2.629 -14.235   3.064  0.00  0.00    +0.149 HD
BRANCH   8  27
ATOM     27  C   UNL     1      -2.557 -13.153   4.882  0.00  0.00    +0.119 C 
BRANCH  27  29
ATOM     29  C   UNL     1      -3.526 -12.142   4.288  0.00  0.00    +0.102 C 
BRANCH  29  10
ATOM     10  N   UNL     1      -4.625 -11.890   5.211  0.00  0.00    -0.307 NA
ATOM     30  C   UNL     1      -4.254 -12.277   6.574  0.00  0.00    +0.104 C 
ATOM     31  C   UNL     1      -5.829 -12.609   4.790  0.00  0.00    +0.104 C 
ENDBRANCH  29  10
ENDBRANCH  27  29
ENDBRANCH   8  27
ENDBRANCH  24  25
ENDBRANCH  14  24
TORSDOF 11
ENDMDL
MODEL 10
REMARK VINA RESULT:      -5.1     28.127     31.299
REMARK  Name = 11885067
REMARK  15 active torsions:
REMARK  status: ('A' for Active; 'I' for Inactive)
REMARK    1  A    between atoms: O_2  and  C_16
REMARK    2  A    between atoms: O_3  and  C_21
REMARK    3  A    between atoms: O_5  and  C_28
REMARK    4  A    between atoms: O_5  and  C_32
REMARK    5  A    between atoms: N_8  and  C_27
REMARK    6  A    between atoms: N_10  and  C_29
REMARK    7  A    between atoms: N_10  and  C_30
REMARK    8  A    between atoms: N_10  and  C_31
REMARK    9  A    between atoms: C_11  and  C_19
REMARK   10  A    between atoms: C_13  and  C_21
REMARK   11  A    between atoms: C_13  and  C_22
REMARK   12  A    between atoms: C_14  and  C_24
REMARK   13  A    between atoms: C_24  and  C_25
REMARK   14  A    between atoms: C_27  and  C_29
REMARK   15  A    between atoms: C_32  and  C_33
REMARK                            x       y       z     vdW  Elec       q    Type
REMARK                         _______ _______ _______ _____ _____    ______ ____
ROOT
ATOM      1  S   UNL     1      -6.261 -10.585  12.622  0.00  0.00    -0.057 S 
ATOM      6  O   UNL     1      -9.935  -8.545  10.610  0.00  0.00    -0.226 OA
ATOM      7  N   UNL     1      -8.633  -9.646  13.048  0.00  0.00    -0.229 NA
ATOM      9  N   UNL     1      -7.802  -9.515  10.790  0.00  0.00    -0.230 N 
ATOM     11  C   UNL     1      -8.377 -10.990  16.652  0.00  0.00    -0.019 C 
ATOM     12  C   UNL     1      -6.798 -10.790  16.700  0.00  0.00    +0.011 C 
ATOM     13  C   UNL     1      -6.047 -11.312  17.985  0.00  0.00    +0.021 C 
ATOM     14  C   UNL     1      -8.963 -10.029  15.520  0.00  0.00    +0.054 C 
ATOM     15  C   UNL     1      -8.990 -10.572  18.014  0.00  0.00    +0.010 C 
ATOM     16  C   UNL     1      -6.818 -10.844  19.253  0.00  0.00    +0.123 C 
ATOM     17  C   UNL     1      -6.130 -11.226  15.363  0.00  0.00    +0.049 C 
ATOM     18  C   UNL     1      -8.301 -11.196  19.219  0.00  0.00    +0.032 C 
ATOM     19  C   UNL     1      -8.788 -12.453  16.350  0.00  0.00    +0.012 C 
ATOM     20  C   UNL     1      -8.154 -10.129  14.252  0.00  0.00    +0.058 A 
ATOM     22  C   UNL     1      -4.632 -10.671  18.041  0.00  0.00    +0.016 C 
ATOM     23  C   UNL     1      -6.878 -10.652  14.208  0.00  0.00    +0.015 A 
ATOM     26  C   UNL     1      -7.723  -9.839  12.117  0.00  0.00    +0.167 A 
ATOM     28  C   UNL     1      -8.869  -8.905  10.127  0.00  0.00    +0.406 C 
ATOM     38  H   UNL     1      -6.985  -9.749  10.232  0.00  0.00    +0.160 HD
ENDROOT
BRANCH  16   2
ATOM      2  O   UNL     1      -6.238 -11.407  20.429  0.00  0.00    -0.391 OA
ATOM     35  H   UNL     1      -5.936 -10.672  20.990  0.00  0.00    +0.210 HD
ENDBRANCH  16   2
BRANCH  28   5
ATOM      5  O   UNL     1      -8.554  -8.753   8.803  0.00  0.00    -0.446 OA
BRANCH   5  32
ATOM     32  C   UNL     1      -7.751  -7.614   8.473  0.00  0.00    +0.261 C 
BRANCH  32  33
ATOM     33  C   UNL     1      -8.614  -6.594   7.810  0.00  0.00    +0.006 C 
ATOM     34  C   UNL     1      -9.254  -5.617   8.463  0.00  0.00    +0.007 C 
ENDBRANCH  32  33
ENDBRANCH   5  32
ENDBRANCH  28   5
BRANCH  13  21
ATOM     21  C   UNL     1      -5.814 -12.838  18.015  0.00  0.00    +0.165 C 
BRANCH  21   3
ATOM      3  O   UNL     1      -4.546 -13.069  18.588  0.00  0.00    -0.394 OA
ATOM     36  H   UNL     1      -4.470 -12.492  19.366  0.00  0.00    +0.209 HD
ENDBRANCH  21   3
ENDBRANCH  13  21
BRANCH  14  24
ATOM     24  C   UNL     1     -10.463 -10.206  15.244  0.00  0.00    +0.106 C 
BRANCH  24  25
ATOM      4  O   UNL     1     -11.749  -8.610  16.530  0.00  0.00    -0.276 OA
ATOM      8  N   UNL     1     -11.281  -8.171  14.296  0.00  0.00    -0.314 N 
ATOM     25  C   UNL     1     -11.234  -8.925  15.460  0.00  0.00    +0.214 C 
ATOM     37  H   UNL     1     -10.815  -8.517  13.462  0.00  0.00    +0.149 HD
BRANCH   8  27
ATOM     27  C   UNL     1     -11.955  -6.897  14.207  0.00  0.00    +0.119 C 
BRANCH  27  29
ATOM     29  C   UNL     1     -13.020  -6.911  13.121  0.00  0.00    +0.102 C 
BRANCH  29  10
ATOM     10  N   UNL     1     -12.999  -5.660  12.374  0.00  0.00    -0.307 NA
ATOM     30  C   UNL     1     -12.333  -5.840  11.083  0.00  0.00    +0.104 C 
ATOM     31  C   UNL     1     -12.332  -4.609  13.146  0.00  0.00    +0.104 C 
ENDBRANCH  29  10
ENDBRANCH  27  29
ENDBRANCH   8  27
ENDBRANCH  24  25
ENDBRANCH  14  24
TORSDOF 11
ENDMDL
