MODEL 1
REMARK VINA RESULT:      -6.9      0.000      0.000
REMARK  Name = 24094071
REMARK  12 active torsions:
REMARK  status: ('A' for Active; 'I' for Inactive)
REMARK    1  A    between atoms: O_1  and  C_14
REMARK    2  A    between atoms: O_1  and  C_23
REMARK    3  A    between atoms: O_2  and  C_15
REMARK    4  A    between atoms: O_3  and  C_19
REMARK    5  A    between atoms: N_6  and  C_25
REMARK    6  A    between atoms: N_7  and  C_24
REMARK    7  A    between atoms: C_8  and  C_18
REMARK    8  A    between atoms: C_10  and  C_19
REMARK    9  A    between atoms: C_10  and  C_20
REMARK   10  A    between atoms: C_11  and  C_21
REMARK   11  A    between atoms: C_21  and  C_22
REMARK   12  A    between atoms: C_25  and  C_31
REMARK                            x       y       z     vdW  Elec       q    Type
REMARK                         _______ _______ _______ _____ _____    ______ ____
ROOT
ATOM      8  C   UNL     1      13.540   9.539  20.920  0.00  0.00    -0.023 C 
ATOM      9  C   UNL     1      12.227  10.419  20.959  0.00  0.00    +0.007 C 
ATOM     10  C   UNL     1      12.373  11.790  21.755  0.00  0.00    +0.031 C 
ATOM     11  C   UNL     1      13.259   8.117  20.278  0.00  0.00    +0.032 C 
ATOM     12  C   UNL     1      14.069   9.361  22.372  0.00  0.00    +0.011 C 
ATOM     13  C   UNL     1      11.017   9.602  21.509  0.00  0.00    +0.007 C 
ATOM     14  C   UNL     1      12.987  11.528  23.160  0.00  0.00    +0.186 C 
ATOM     15  C   UNL     1      12.074   7.399  20.947  0.00  0.00    +0.119 C 
ATOM     16  C   UNL     1      14.255  10.675  23.130  0.00  0.00    +0.046 C 
ATOM     17  C   UNL     1      10.814   8.238  20.868  0.00  0.00    +0.032 C 
ATOM     18  C   UNL     1      14.670  10.188  20.077  0.00  0.00    +0.012 C 
ATOM     20  C   UNL     1      10.987  12.472  21.936  0.00  0.00    +0.017 C 
ENDROOT
BRANCH  15   2
ATOM      2  O   UNL     1      11.818   6.139  20.333  0.00  0.00    -0.391 OA
ATOM     37  H   UNL     1      12.524   5.527  20.603  0.00  0.00    +0.210 HD
ENDBRANCH  15   2
BRANCH  14   1
ATOM      1  O   UNL     1      13.311  12.749  23.826  0.00  0.00    -0.446 OA
BRANCH   1  23
ATOM      5  O   UNL     1      12.207  12.106  25.734  0.00  0.00    -0.226 OA
ATOM      7  N   UNL     1      13.899  13.694  25.780  0.00  0.00    -0.278 N 
ATOM     23  C   UNL     1      13.058  12.786  25.170  0.00  0.00    +0.401 C 
ATOM     40  H   UNL     1      14.527  14.223  25.182  0.00  0.00    +0.152 HD
BRANCH   7  24
ATOM     24  C   UNL     1      13.886  13.971  27.199  0.00  0.00    +0.076 C 
ATOM     26  C   UNL     1      14.682  12.914  27.973  0.00  0.00    +0.022 C 
ATOM     27  C   UNL     1      14.408  15.382  27.490  0.00  0.00    +0.022 C 
ATOM     28  C   UNL     1      16.189  13.040  27.754  0.00  0.00    +0.002 C 
ATOM     29  C   UNL     1      15.917  15.503  27.272  0.00  0.00    +0.002 C 
ATOM     30  C   UNL     1      16.687  14.449  28.061  0.00  0.00    +0.000 C 
ENDBRANCH   7  24
ENDBRANCH   1  23
ENDBRANCH  14   1
BRANCH  10  19
ATOM     19  C   UNL     1      13.210  12.828  20.966  0.00  0.00    +0.166 C 
BRANCH  19   3
ATOM      3  O   UNL     1      12.862  14.108  21.443  0.00  0.00    -0.394 OA
ATOM     38  H   UNL     1      12.731  14.033  22.404  0.00  0.00    +0.209 HD
ENDBRANCH  19   3
ENDBRANCH  10  19
BRANCH  11  21
ATOM     21  C   UNL     1      13.068   8.168  18.744  0.00  0.00    +0.102 C 
BRANCH  21  22
ATOM      4  O   UNL     1      14.267   7.364  16.801  0.00  0.00    -0.276 OA
ATOM      6  N   UNL     1      15.102   6.947  18.931  0.00  0.00    -0.311 N 
ATOM     22  C   UNL     1      14.187   7.464  18.023  0.00  0.00    +0.214 C 
ATOM     39  H   UNL     1      14.954   7.086  19.926  0.00  0.00    +0.149 HD
BRANCH   6  25
ATOM     25  C   UNL     1      16.282   6.216  18.532  0.00  0.00    +0.139 C 
BRANCH  25  31
ATOM     31  C   UNL     1      17.391   6.347  19.541  0.00  0.00    -0.030 A 
ATOM     32  C   UNL     1      18.479   5.476  19.500  0.00  0.00    +0.005 A 
ATOM     33  C   UNL     1      17.331   7.341  20.519  0.00  0.00    +0.005 A 
ATOM     34  C   UNL     1      19.507   5.597  20.435  0.00  0.00    +0.000 A 
ATOM     35  C   UNL     1      18.358   7.462  21.454  0.00  0.00    +0.000 A 
ATOM     36  C   UNL     1      19.446   6.590  21.413  0.00  0.00    +0.000 A 
ENDBRANCH  25  31
ENDBRANCH   6  25
ENDBRANCH  21  22
ENDBRANCH  11  21
TORSDOF 10
ENDMDL
MODEL 2
REMARK VINA RESULT:      -6.8     27.799     31.527
REMARK  Name = 24094071
REMARK  12 active torsions:
REMARK  status: ('A' for Active; 'I' for Inactive)
REMARK    1  A    between atoms: O_1  and  C_14
REMARK    2  A    between atoms: O_1  and  C_23
REMARK    3  A    between atoms: O_2  and  C_15
REMARK    4  A    between atoms: O_3  and  C_19
REMARK    5  A    between atoms: N_6  and  C_25
REMARK    6  A    between atoms: N_7  and  C_24
REMARK    7  A    between atoms: C_8  and  C_18
REMARK    8  A    between atoms: C_10  and  C_19
REMARK    9  A    between atoms: C_10  and  C_20
REMARK   10  A    between atoms: C_11  and  C_21
REMARK   11  A    between atoms: C_21  and  C_22
REMARK   12  A    between atoms: C_25  and  C_31
REMARK                            x       y       z     vdW  Elec       q    Type
REMARK                         _______ _______ _______ _____ _____    ______ ____
ROOT
ATOM      8  C   UNL     1      -7.108 -10.895  17.579  0.00  0.00    -0.023 C 
ATOM      9  C   UNL     1      -6.418 -12.315  17.655  0.00  0.00    +0.007 C 
ATOM     10  C   UNL     1      -4.840 -12.273  17.869  0.00  0.00    +0.031 C 
ATOM     11  C   UNL     1      -8.636 -11.019  17.178  0.00  0.00    +0.032 C 
ATOM     12  C   UNL     1      -6.360 -10.028  16.524  0.00  0.00    +0.011 C 
ATOM     13  C   UNL     1      -6.770 -13.181  16.406  0.00  0.00    +0.007 C 
ATOM     14  C   UNL     1      -4.186 -11.321  16.827  0.00  0.00    +0.186 C 
ATOM     15  C   UNL     1      -8.838 -11.855  15.901  0.00  0.00    +0.119 C 
ATOM     16  C   UNL     1      -4.850  -9.947  16.746  0.00  0.00    +0.046 C 
ATOM     17  C   UNL     1      -8.250 -13.243  16.060  0.00  0.00    +0.032 C 
ATOM     18  C   UNL     1      -7.067 -10.137  18.932  0.00  0.00    +0.012 C 
ATOM     20  C   UNL     1      -4.224 -13.691  17.702  0.00  0.00    +0.017 C 
ENDROOT
BRANCH  15   2
ATOM      2  O   UNL     1     -10.220 -11.983  15.578  0.00  0.00    -0.391 OA
ATOM     37  H   UNL     1     -10.395 -11.431  14.797  0.00  0.00    +0.210 HD
ENDBRANCH  15   2
BRANCH  14   1
ATOM      1  O   UNL     1      -2.802 -11.108  17.109  0.00  0.00    -0.446 OA
BRANCH   1  23
ATOM      5  O   UNL     1      -1.119 -10.170  15.860  0.00  0.00    -0.226 OA
ATOM      7  N   UNL     1      -2.244 -12.074  15.157  0.00  0.00    -0.278 N 
ATOM     23  C   UNL     1      -1.972 -11.036  16.023  0.00  0.00    +0.401 C 
ATOM     40  H   UNL     1      -3.011 -12.694  15.397  0.00  0.00    +0.152 HD
BRANCH   7  24
ATOM     24  C   UNL     1      -1.540 -12.283  13.910  0.00  0.00    +0.076 C 
ATOM     26  C   UNL     1      -1.534 -13.767  13.525  0.00  0.00    +0.022 C 
ATOM     27  C   UNL     1      -2.134 -11.422  12.792  0.00  0.00    +0.022 C 
ATOM     28  C   UNL     1      -2.907 -14.259  13.070  0.00  0.00    +0.002 C 
ATOM     29  C   UNL     1      -3.507 -11.918  12.337  0.00  0.00    +0.002 C 
ATOM     30  C   UNL     1      -3.472 -13.393  11.948  0.00  0.00    +0.000 C 
ENDBRANCH   7  24
ENDBRANCH   1  23
ENDBRANCH  14   1
BRANCH  10  19
ATOM     19  C   UNL     1      -4.465 -11.861  19.314  0.00  0.00    +0.166 C 
BRANCH  19   3
ATOM      3  O   UNL     1      -3.137 -12.275  19.544  0.00  0.00    -0.394 OA
ATOM     38  H   UNL     1      -2.645 -11.501  19.867  0.00  0.00    +0.209 HD
ENDBRANCH  19   3
ENDBRANCH  10  19
BRANCH  11  21
ATOM     21  C   UNL     1      -9.524 -11.556  18.324  0.00  0.00    +0.102 C 
BRANCH  21  22
ATOM      4  O   UNL     1     -10.834 -10.236  19.873  0.00  0.00    -0.276 OA
ATOM      6  N   UNL     1     -11.232 -10.071  17.589  0.00  0.00    -0.311 N 
ATOM     22  C   UNL     1     -10.585 -10.559  18.715  0.00  0.00    +0.214 C 
ATOM     39  H   UNL     1     -10.951 -10.394  16.668  0.00  0.00    +0.149 HD
BRANCH   6  25
ATOM     25  C   UNL     1     -12.300  -9.099  17.652  0.00  0.00    +0.139 C 
BRANCH  25  31
ATOM     31  C   UNL     1     -12.061  -7.942  16.719  0.00  0.00    -0.030 A 
ATOM     32  C   UNL     1     -10.777  -7.417  16.574  0.00  0.00    +0.005 A 
ATOM     33  C   UNL     1     -13.124  -7.395  15.999  0.00  0.00    +0.005 A 
ATOM     34  C   UNL     1     -10.556  -6.345  15.709  0.00  0.00    +0.000 A 
ATOM     35  C   UNL     1     -12.902  -6.323  15.136  0.00  0.00    +0.000 A 
ATOM     36  C   UNL     1     -11.619  -5.798  14.990  0.00  0.00    +0.000 A 
ENDBRANCH  25  31
ENDBRANCH   6  25
ENDBRANCH  21  22
ENDBRANCH  11  21
TORSDOF 10
ENDMDL
MODEL 3
REMARK VINA RESULT:      -6.7     28.009     31.734
REMARK  Name = 24094071
REMARK  12 active torsions:
REMARK  status: ('A' for Active; 'I' for Inactive)
REMARK    1  A    between atoms: O_1  and  C_14
REMARK    2  A    between atoms: O_1  and  C_23
REMARK    3  A    between atoms: O_2  and  C_15
REMARK    4  A    between atoms: O_3  and  C_19
REMARK    5  A    between atoms: N_6  and  C_25
REMARK    6  A    between atoms: N_7  and  C_24
REMARK    7  A    between atoms: C_8  and  C_18
REMARK    8  A    between atoms: C_10  and  C_19
REMARK    9  A    between atoms: C_10  and  C_20
REMARK   10  A    between atoms: C_11  and  C_21
REMARK   11  A    between atoms: C_21  and  C_22
REMARK   12  A    between atoms: C_25  and  C_31
REMARK                            x       y       z     vdW  Elec       q    Type
REMARK                         _______ _______ _______ _____ _____    ______ ____
ROOT
ATOM      8  C   UNL     1      -9.483  -9.393  16.878  0.00  0.00    -0.023 C 
ATOM      9  C   UNL     1     -10.725 -10.218  16.351  0.00  0.00    +0.007 C 
ATOM     10  C   UNL     1     -11.395  -9.633  15.031  0.00  0.00    +0.031 C 
ATOM     11  C   UNL     1      -8.996  -9.927  18.289  0.00  0.00    +0.032 C 
ATOM     12  C   UNL     1      -9.887  -7.896  16.997  0.00  0.00    +0.011 C 
ATOM     13  C   UNL     1     -11.799 -10.394  17.469  0.00  0.00    +0.007 C 
ATOM     14  C   UNL     1     -11.687  -8.116  15.208  0.00  0.00    +0.186 C 
ATOM     15  C   UNL     1     -10.144 -10.003  19.312  0.00  0.00    +0.119 C 
ATOM     16  C   UNL     1     -10.491  -7.313  15.720  0.00  0.00    +0.046 C 
ATOM     17  C   UNL     1     -11.266 -10.887  18.805  0.00  0.00    +0.032 C 
ATOM     18  C   UNL     1      -8.259  -9.482  15.927  0.00  0.00    +0.012 C 
ATOM     20  C   UNL     1     -12.732 -10.365  14.721  0.00  0.00    +0.017 C 
ENDROOT
BRANCH  15   2
ATOM      2  O   UNL     1      -9.691 -10.516  20.561  0.00  0.00    -0.391 OA
ATOM     37  H   UNL     1     -10.412 -10.409  21.205  0.00  0.00    +0.210 HD
ENDBRANCH  15   2
BRANCH  14   1
ATOM      1  O   UNL     1     -12.108  -7.517  13.982  0.00  0.00    -0.446 OA
BRANCH   1  23
ATOM      5  O   UNL     1     -13.645  -6.136  14.985  0.00  0.00    -0.226 OA
ATOM      7  N   UNL     1     -12.503  -5.502  13.067  0.00  0.00    -0.278 N 
ATOM     23  C   UNL     1     -12.831  -6.360  14.095  0.00  0.00    +0.401 C 
ATOM     40  H   UNL     1     -11.844  -5.836  12.371  0.00  0.00    +0.152 HD
BRANCH   7  24
ATOM     24  C   UNL     1     -13.092  -4.191  12.897  0.00  0.00    +0.076 C 
ATOM     26  C   UNL     1     -12.142  -3.255  12.143  0.00  0.00    +0.022 C 
ATOM     27  C   UNL     1     -14.452  -4.284  12.198  0.00  0.00    +0.022 C 
ATOM     28  C   UNL     1     -12.018  -3.615  10.663  0.00  0.00    +0.002 C 
ATOM     29  C   UNL     1     -14.324  -4.642  10.717  0.00  0.00    +0.002 C 
ATOM     30  C   UNL     1     -13.383  -3.690   9.986  0.00  0.00    +0.000 C 
ENDBRANCH   7  24
ENDBRANCH   1  23
ENDBRANCH  14   1
BRANCH  10  19
ATOM     19  C   UNL     1     -10.520  -9.889  13.778  0.00  0.00    +0.166 C 
BRANCH  19   3
ATOM      3  O   UNL     1     -11.385 -10.204  12.711  0.00  0.00    -0.394 OA
ATOM     38  H   UNL     1     -11.242 -11.140  12.490  0.00  0.00    +0.209 HD
ENDBRANCH  19   3
ENDBRANCH  10  19
BRANCH  11  21
ATOM     21  C   UNL     1      -8.252 -11.280  18.205  0.00  0.00    +0.102 C 
BRANCH  21  22
ATOM      4  O   UNL     1      -6.607 -11.036  19.964  0.00  0.00    -0.276 OA
ATOM      6  N   UNL     1      -5.915 -11.277  17.758  0.00  0.00    -0.311 N 
ATOM     22  C   UNL     1      -6.859 -11.182  18.771  0.00  0.00    +0.214 C 
ATOM     39  H   UNL     1      -6.220 -11.404  16.798  0.00  0.00    +0.149 HD
BRANCH   6  25
ATOM     25  C   UNL     1      -4.492 -11.214  17.997  0.00  0.00    +0.139 C 
BRANCH  25  31
ATOM     31  C   UNL     1      -3.719 -10.978  16.727  0.00  0.00    -0.030 A 
ATOM     32  C   UNL     1      -2.332 -10.847  16.769  0.00  0.00    +0.005 A 
ATOM     33  C   UNL     1      -4.392 -10.892  15.507  0.00  0.00    +0.005 A 
ATOM     34  C   UNL     1      -1.615 -10.628  15.591  0.00  0.00    +0.000 A 
ATOM     35  C   UNL     1      -3.675 -10.674  14.330  0.00  0.00    +0.000 A 
ATOM     36  C   UNL     1      -2.288 -10.542  14.372  0.00  0.00    +0.000 A 
ENDBRANCH  25  31
ENDBRANCH   6  25
ENDBRANCH  21  22
ENDBRANCH  11  21
TORSDOF 10
ENDMDL
MODEL 4
REMARK VINA RESULT:      -6.7     24.240     27.933
REMARK  Name = 24094071
REMARK  12 active torsions:
REMARK  status: ('A' for Active; 'I' for Inactive)
REMARK    1  A    between atoms: O_1  and  C_14
REMARK    2  A    between atoms: O_1  and  C_23
REMARK    3  A    between atoms: O_2  and  C_15
REMARK    4  A    between atoms: O_3  and  C_19
REMARK    5  A    between atoms: N_6  and  C_25
REMARK    6  A    between atoms: N_7  and  C_24
REMARK    7  A    between atoms: C_8  and  C_18
REMARK    8  A    between atoms: C_10  and  C_19
REMARK    9  A    between atoms: C_10  and  C_20
REMARK   10  A    between atoms: C_11  and  C_21
REMARK   11  A    between atoms: C_21  and  C_22
REMARK   12  A    between atoms: C_25  and  C_31
REMARK                            x       y       z     vdW  Elec       q    Type
REMARK                         _______ _______ _______ _____ _____    ______ ____
ROOT
ATOM      8  C   UNL     1     -12.471   8.637  19.890  0.00  0.00    -0.023 C 
ATOM      9  C   UNL     1     -12.827   8.478  18.358  0.00  0.00    +0.007 C 
ATOM     10  C   UNL     1     -11.634   8.831  17.363  0.00  0.00    +0.031 C 
ATOM     11  C   UNL     1     -13.756   8.452  20.800  0.00  0.00    +0.032 C 
ATOM     12  C   UNL     1     -11.865  10.051  20.122  0.00  0.00    +0.011 C 
ATOM     13  C   UNL     1     -14.100   9.299  17.987  0.00  0.00    +0.007 C 
ATOM     14  C   UNL     1     -11.035  10.222  17.721  0.00  0.00    +0.186 C 
ATOM     15  C   UNL     1     -14.920   9.357  20.356  0.00  0.00    +0.119 C 
ATOM     16  C   UNL     1     -10.692  10.382  19.202  0.00  0.00    +0.046 C 
ATOM     17  C   UNL     1     -15.291   9.096  18.909  0.00  0.00    +0.032 C 
ATOM     18  C   UNL     1     -11.434   7.589  20.375  0.00  0.00    +0.012 C 
ATOM     20  C   UNL     1     -12.138   8.870  15.892  0.00  0.00    +0.017 C 
ENDROOT
BRANCH  15   2
ATOM      2  O   UNL     1     -16.075   9.151  21.164  0.00  0.00    -0.391 OA
ATOM     37  H   UNL     1     -15.896   8.394  21.749  0.00  0.00    +0.210 HD
ENDBRANCH  15   2
BRANCH  14   1
ATOM      1  O   UNL     1      -9.844  10.485  16.978  0.00  0.00    -0.446 OA
BRANCH   1  23
ATOM      5  O   UNL     1     -10.640  11.927  15.377  0.00  0.00    -0.226 OA
ATOM      7  N   UNL     1      -8.782  12.443  16.668  0.00  0.00    -0.278 N 
ATOM     23  C   UNL     1      -9.831  11.648  16.256  0.00  0.00    +0.401 C 
ATOM     40  H   UNL     1      -8.161  12.065  17.377  0.00  0.00    +0.152 HD
BRANCH   7  24
ATOM     24  C   UNL     1      -8.490  13.741  16.103  0.00  0.00    +0.076 C 
ATOM     26  C   UNL     1      -8.154  14.756  17.202  0.00  0.00    +0.022 C 
ATOM     27  C   UNL     1      -7.364  13.651  15.068  0.00  0.00    +0.022 C 
ATOM     28  C   UNL     1      -6.789  14.499  17.839  0.00  0.00    +0.002 C 
ATOM     29  C   UNL     1      -5.999  13.396  15.709  0.00  0.00    +0.002 C 
ATOM     30  C   UNL     1      -5.684  14.425  16.790  0.00  0.00    +0.000 C 
ENDBRANCH   7  24
ENDBRANCH   1  23
ENDBRANCH  14   1
BRANCH  10  19
ATOM     19  C   UNL     1     -10.539   7.736  17.363  0.00  0.00    +0.166 C 
BRANCH  19   3
ATOM      3  O   UNL     1     -10.165   7.506  16.024  0.00  0.00    -0.394 OA
ATOM     38  H   UNL     1      -9.257   7.159  16.033  0.00  0.00    +0.209 HD
ENDBRANCH  19   3
ENDBRANCH  10  19
BRANCH  11  21
ATOM     21  C   UNL     1     -14.222   6.982  20.905  0.00  0.00    +0.102 C 
BRANCH  21  22
ATOM      4  O   UNL     1     -14.780   7.362  23.229  0.00  0.00    -0.276 OA
ATOM      6  N   UNL     1     -14.283   5.213  22.496  0.00  0.00    -0.311 N 
ATOM     22  C   UNL     1     -14.466   6.579  22.336  0.00  0.00    +0.214 C 
ATOM     39  H   UNL     1     -14.029   4.644  21.694  0.00  0.00    +0.149 HD
BRANCH   6  25
ATOM     25  C   UNL     1     -14.445   4.537  23.762  0.00  0.00    +0.139 C 
BRANCH  25  31
ATOM     31  C   UNL     1     -15.727   3.751  23.818  0.00  0.00    -0.030 A 
ATOM     32  C   UNL     1     -16.686   3.909  22.818  0.00  0.00    +0.005 A 
ATOM     33  C   UNL     1     -15.957   2.863  24.870  0.00  0.00    +0.005 A 
ATOM     34  C   UNL     1     -17.875   3.179  22.869  0.00  0.00    +0.000 A 
ATOM     35  C   UNL     1     -17.145   2.135  24.921  0.00  0.00    +0.000 A 
ATOM     36  C   UNL     1     -18.104   2.293  23.921  0.00  0.00    +0.000 A 
ENDBRANCH  25  31
ENDBRANCH   6  25
ENDBRANCH  21  22
ENDBRANCH  11  21
TORSDOF 10
ENDMDL
MODEL 5
REMARK VINA RESULT:      -6.6     27.730     31.472
REMARK  Name = 24094071
REMARK  12 active torsions:
REMARK  status: ('A' for Active; 'I' for Inactive)
REMARK    1  A    between atoms: O_1  and  C_14
REMARK    2  A    between atoms: O_1  and  C_23
REMARK    3  A    between atoms: O_2  and  C_15
REMARK    4  A    between atoms: O_3  and  C_19
REMARK    5  A    between atoms: N_6  and  C_25
REMARK    6  A    between atoms: N_7  and  C_24
REMARK    7  A    between atoms: C_8  and  C_18
REMARK    8  A    between atoms: C_10  and  C_19
REMARK    9  A    between atoms: C_10  and  C_20
REMARK   10  A    between atoms: C_11  and  C_21
REMARK   11  A    between atoms: C_21  and  C_22
REMARK   12  A    between atoms: C_25  and  C_31
REMARK                            x       y       z     vdW  Elec       q    Type
REMARK                         _______ _______ _______ _____ _____    ______ ____
ROOT
ATOM      8  C   UNL     1      -4.857 -11.426  15.889  0.00  0.00    -0.023 C 
ATOM      9  C   UNL     1      -3.595 -12.323  15.570  0.00  0.00    +0.007 C 
ATOM     10  C   UNL     1      -2.569 -11.676  14.537  0.00  0.00    +0.031 C 
ATOM     11  C   UNL     1      -5.913 -12.214  16.770  0.00  0.00    +0.032 C 
ATOM     12  C   UNL     1      -5.516 -10.990  14.549  0.00  0.00    +0.011 C 
ATOM     13  C   UNL     1      -4.020 -13.744  15.090  0.00  0.00    +0.007 C 
ATOM     14  C   UNL     1      -3.325 -11.193  13.266  0.00  0.00    +0.186 C 
ATOM     15  C   UNL     1      -6.284 -13.577  16.156  0.00  0.00    +0.119 C 
ATOM     16  C   UNL     1      -4.549 -10.329  13.568  0.00  0.00    +0.046 C 
ATOM     17  C   UNL     1      -5.052 -14.440  15.964  0.00  0.00    +0.032 C 
ATOM     18  C   UNL     1      -4.494 -10.142  16.681  0.00  0.00    +0.012 C 
ATOM     20  C   UNL     1      -1.491 -12.712  14.111  0.00  0.00    +0.017 C 
ENDROOT
BRANCH  15   2
ATOM      2  O   UNL     1      -7.207 -14.283  16.980  0.00  0.00    -0.391 OA
ATOM     37  H   UNL     1      -6.988 -15.228  16.929  0.00  0.00    +0.210 HD
ENDBRANCH  15   2
BRANCH  14   1
ATOM      1  O   UNL     1      -2.472 -10.438  12.405  0.00  0.00    -0.446 OA
BRANCH   1  23
ATOM      5  O   UNL     1      -2.698  -9.347  10.397  0.00  0.00    -0.226 OA
ATOM      7  N   UNL     1      -3.495 -11.504  10.710  0.00  0.00    -0.278 N 
ATOM     23  C   UNL     1      -2.873 -10.336  11.101  0.00  0.00    +0.401 C 
ATOM     40  H   UNL     1      -3.613 -12.228  11.412  0.00  0.00    +0.152 HD
BRANCH   7  24
ATOM     24  C   UNL     1      -4.037 -11.720   9.387  0.00  0.00    +0.076 C 
ATOM     26  C   UNL     1      -4.287 -13.210   9.132  0.00  0.00    +0.022 C 
ATOM     27  C   UNL     1      -5.311 -10.898   9.171  0.00  0.00    +0.022 C 
ATOM     28  C   UNL     1      -5.476 -13.748   9.929  0.00  0.00    +0.002 C 
ATOM     29  C   UNL     1      -6.498 -11.440   9.968  0.00  0.00    +0.002 C 
ATOM     30  C   UNL     1      -6.735 -12.921   9.689  0.00  0.00    +0.000 C 
ENDBRANCH   7  24
ENDBRANCH   1  23
ENDBRANCH  14   1
BRANCH  10  19
ATOM     19  C   UNL     1      -1.759 -10.521  15.176  0.00  0.00    +0.166 C 
BRANCH  19   3
ATOM      3  O   UNL     1      -1.120 -11.032  16.324  0.00  0.00    -0.394 OA
ATOM     38  H   UNL     1      -1.418 -10.499  17.081  0.00  0.00    +0.209 HD
ENDBRANCH  19   3
ENDBRANCH  10  19
BRANCH  11  21
ATOM     21  C   UNL     1      -5.474 -12.384  18.242  0.00  0.00    +0.102 C 
BRANCH  21  22
ATOM      4  O   UNL     1      -6.153 -11.335  20.315  0.00  0.00    -0.276 OA
ATOM      6  N   UNL     1      -7.704 -11.640  18.610  0.00  0.00    -0.311 N 
ATOM     22  C   UNL     1      -6.445 -11.728  19.189  0.00  0.00    +0.214 C 
ATOM     39  H   UNL     1      -7.848 -11.989  17.667  0.00  0.00    +0.149 HD
BRANCH   6  25
ATOM     25  C   UNL     1      -8.843 -11.059  19.283  0.00  0.00    +0.139 C 
BRANCH  25  31
ATOM     31  C   UNL     1      -9.526 -10.020  18.434  0.00  0.00    -0.030 A 
ATOM     32  C   UNL     1      -8.789  -9.282  17.508  0.00  0.00    +0.005 A 
ATOM     33  C   UNL     1     -10.896  -9.796  18.573  0.00  0.00    +0.005 A 
ATOM     34  C   UNL     1      -9.422  -8.320  16.720  0.00  0.00    +0.000 A 
ATOM     35  C   UNL     1     -11.528  -8.833  17.786  0.00  0.00    +0.000 A 
ATOM     36  C   UNL     1     -10.791  -8.095  16.860  0.00  0.00    +0.000 A 
ENDBRANCH  25  31
ENDBRANCH   6  25
ENDBRANCH  21  22
ENDBRANCH  11  21
TORSDOF 10
ENDMDL
MODEL 6
REMARK VINA RESULT:      -6.4     28.881     31.250
REMARK  Name = 24094071
REMARK  12 active torsions:
REMARK  status: ('A' for Active; 'I' for Inactive)
REMARK    1  A    between atoms: O_1  and  C_14
REMARK    2  A    between atoms: O_1  and  C_23
REMARK    3  A    between atoms: O_2  and  C_15
REMARK    4  A    between atoms: O_3  and  C_19
REMARK    5  A    between atoms: N_6  and  C_25
REMARK    6  A    between atoms: N_7  and  C_24
REMARK    7  A    between atoms: C_8  and  C_18
REMARK    8  A    between atoms: C_10  and  C_19
REMARK    9  A    between atoms: C_10  and  C_20
REMARK   10  A    between atoms: C_11  and  C_21
REMARK   11  A    between atoms: C_21  and  C_22
REMARK   12  A    between atoms: C_25  and  C_31
REMARK                            x       y       z     vdW  Elec       q    Type
REMARK                         _______ _______ _______ _____ _____    ______ ____
ROOT
ATOM      8  C   UNL     1      -4.856 -11.480  11.095  0.00  0.00    -0.023 C 
ATOM      9  C   UNL     1      -3.389 -11.567  11.677  0.00  0.00    +0.007 C 
ATOM     10  C   UNL     1      -3.288 -12.235  13.119  0.00  0.00    +0.031 C 
ATOM     11  C   UNL     1      -4.892 -10.638   9.753  0.00  0.00    +0.032 C 
ATOM     12  C   UNL     1      -5.779 -10.813  12.155  0.00  0.00    +0.011 C 
ATOM     13  C   UNL     1      -2.701 -10.167  11.682  0.00  0.00    +0.007 C 
ATOM     14  C   UNL     1      -4.303 -11.565  14.090  0.00  0.00    +0.186 C 
ATOM     15  C   UNL     1      -4.226  -9.259   9.911  0.00  0.00    +0.119 C 
ATOM     16  C   UNL     1      -5.723 -11.475  13.531  0.00  0.00    +0.046 C 
ATOM     17  C   UNL     1      -2.789  -9.399  10.373  0.00  0.00    +0.032 C 
ATOM     18  C   UNL     1      -5.449 -12.874  10.757  0.00  0.00    +0.012 C 
ATOM     20  C   UNL     1      -1.857 -12.070  13.704  0.00  0.00    +0.017 C 
ENDROOT
BRANCH  15   2
ATOM      2  O   UNL     1      -4.239  -8.533   8.685  0.00  0.00    -0.391 OA
ATOM     37  H   UNL     1      -3.440  -8.776   8.187  0.00  0.00    +0.210 HD
ENDBRANCH  15   2
BRANCH  14   1
ATOM      1  O   UNL     1      -4.378 -12.264  15.333  0.00  0.00    -0.446 OA
BRANCH   1  23
ATOM      5  O   UNL     1      -3.257 -11.004  16.891  0.00  0.00    -0.226 OA
ATOM      7  N   UNL     1      -5.546 -11.358  17.026  0.00  0.00    -0.278 N 
ATOM     23  C   UNL     1      -4.296 -11.493  16.461  0.00  0.00    +0.401 C 
ATOM     40  H   UNL     1      -6.314 -11.857  16.588  0.00  0.00    +0.152 HD
BRANCH   7  24
ATOM     24  C   UNL     1      -5.803 -10.602  18.233  0.00  0.00    +0.076 C 
ATOM     26  C   UNL     1      -7.096  -9.790  18.108  0.00  0.00    +0.022 C 
ATOM     27  C   UNL     1      -5.839 -11.518  19.460  0.00  0.00    +0.022 C 
ATOM     28  C   UNL     1      -8.346 -10.669  18.148  0.00  0.00    +0.002 C 
ATOM     29  C   UNL     1      -7.091 -12.395  19.499  0.00  0.00    +0.002 C 
ATOM     30  C   UNL     1      -8.365 -11.563  19.385  0.00  0.00    +0.000 C 
ENDBRANCH   7  24
ENDBRANCH   1  23
ENDBRANCH  14   1
BRANCH  10  19
ATOM     19  C   UNL     1      -3.503 -13.768  13.060  0.00  0.00    +0.166 C 
BRANCH  19   3
ATOM      3  O   UNL     1      -2.810 -14.338  14.147  0.00  0.00    -0.394 OA
ATOM     38  H   UNL     1      -3.376 -14.247  14.931  0.00  0.00    +0.209 HD
ENDBRANCH  19   3
ENDBRANCH  10  19
BRANCH  11  21
ATOM     21  C   UNL     1      -4.296 -11.393   8.543  0.00  0.00    +0.102 C 
BRANCH  21  22
ATOM      4  O   UNL     1      -5.902 -12.551   7.151  0.00  0.00    -0.276 OA
ATOM      6  N   UNL     1      -5.421 -10.313   6.746  0.00  0.00    -0.311 N 
ATOM     22  C   UNL     1      -5.294 -11.519   7.421  0.00  0.00    +0.214 C 
ATOM     39  H   UNL     1      -4.879  -9.509   7.048  0.00  0.00    +0.149 HD
BRANCH   6  25
ATOM     25  C   UNL     1      -6.306 -10.129   5.619  0.00  0.00    +0.139 C 
BRANCH  25  31
ATOM     31  C   UNL     1      -7.303  -9.027   5.863  0.00  0.00    -0.030 A 
ATOM     32  C   UNL     1      -8.024  -8.492   4.796  0.00  0.00    +0.005 A 
ATOM     33  C   UNL     1      -7.505  -8.543   7.156  0.00  0.00    +0.005 A 
ATOM     34  C   UNL     1      -8.949  -7.471   5.022  0.00  0.00    +0.000 A 
ATOM     35  C   UNL     1      -8.429  -7.522   7.380  0.00  0.00    +0.000 A 
ATOM     36  C   UNL     1      -9.150  -6.986   6.314  0.00  0.00    +0.000 A 
ENDBRANCH  25  31
ENDBRANCH   6  25
ENDBRANCH  21  22
ENDBRANCH  11  21
TORSDOF 10
ENDMDL
MODEL 7
REMARK VINA RESULT:      -6.4     29.017     31.957
REMARK  Name = 24094071
REMARK  12 active torsions:
REMARK  status: ('A' for Active; 'I' for Inactive)
REMARK    1  A    between atoms: O_1  and  C_14
REMARK    2  A    between atoms: O_1  and  C_23
REMARK    3  A    between atoms: O_2  and  C_15
REMARK    4  A    between atoms: O_3  and  C_19
REMARK    5  A    between atoms: N_6  and  C_25
REMARK    6  A    between atoms: N_7  and  C_24
REMARK    7  A    between atoms: C_8  and  C_18
REMARK    8  A    between atoms: C_10  and  C_19
REMARK    9  A    between atoms: C_10  and  C_20
REMARK   10  A    between atoms: C_11  and  C_21
REMARK   11  A    between atoms: C_21  and  C_22
REMARK   12  A    between atoms: C_25  and  C_31
REMARK                            x       y       z     vdW  Elec       q    Type
REMARK                         _______ _______ _______ _____ _____    ______ ____
ROOT
ATOM      8  C   UNL     1      -4.934 -11.144  12.682  0.00  0.00    -0.023 C 
ATOM      9  C   UNL     1      -3.893 -10.290  11.852  0.00  0.00    +0.007 C 
ATOM     10  C   UNL     1      -4.472  -9.669  10.505  0.00  0.00    +0.031 C 
ATOM     11  C   UNL     1      -4.233 -11.878  13.899  0.00  0.00    +0.032 C 
ATOM     12  C   UNL     1      -5.584 -12.198  11.740  0.00  0.00    +0.011 C 
ATOM     13  C   UNL     1      -2.600 -11.111  11.555  0.00  0.00    +0.007 C 
ATOM     14  C   UNL     1      -5.176 -10.775   9.667  0.00  0.00    +0.186 C 
ATOM     15  C   UNL     1      -3.003 -12.692  13.460  0.00  0.00    +0.119 C 
ATOM     16  C   UNL     1      -6.182 -11.606  10.464  0.00  0.00    +0.046 C 
ATOM     17  C   UNL     1      -1.988 -11.810  12.759  0.00  0.00    +0.032 C 
ATOM     18  C   UNL     1      -6.072 -10.278  13.285  0.00  0.00    +0.012 C 
ATOM     20  C   UNL     1      -3.331  -9.048   9.650  0.00  0.00    +0.017 C 
ENDROOT
BRANCH  15   2
ATOM      2  O   UNL     1      -2.369 -13.316  14.573  0.00  0.00    -0.391 OA
ATOM     37  H   UNL     1      -2.118 -12.617  15.201  0.00  0.00    +0.210 HD
ENDBRANCH  15   2
BRANCH  14   1
ATOM      1  O   UNL     1      -5.873 -10.221   8.550  0.00  0.00    -0.446 OA
BRANCH   1  23
ATOM      5  O   UNL     1      -7.495 -11.304   7.338  0.00  0.00    -0.226 OA
ATOM      7  N   UNL     1      -5.239 -11.762   7.041  0.00  0.00    -0.278 N 
ATOM     23  C   UNL     1      -6.314 -11.116   7.614  0.00  0.00    +0.401 C 
ATOM     40  H   UNL     1      -4.316 -11.541   7.400  0.00  0.00    +0.152 HD
BRANCH   7  24
ATOM     24  C   UNL     1      -5.365 -12.772   6.013  0.00  0.00    +0.076 C 
ATOM     26  C   UNL     1      -4.717 -12.308   4.704  0.00  0.00    +0.022 C 
ATOM     27  C   UNL     1      -4.779 -14.109   6.480  0.00  0.00    +0.022 C 
ATOM     28  C   UNL     1      -3.191 -12.286   4.783  0.00  0.00    +0.002 C 
ATOM     29  C   UNL     1      -3.252 -14.084   6.554  0.00  0.00    +0.002 C 
ATOM     30  C   UNL     1      -2.631 -13.631   5.237  0.00  0.00    +0.000 C 
ENDBRANCH   7  24
ENDBRANCH   1  23
ENDBRANCH  14   1
BRANCH  10  19
ATOM     19  C   UNL     1      -5.431  -8.484  10.782  0.00  0.00    +0.166 C 
BRANCH  19   3
ATOM      3  O   UNL     1      -5.500  -7.708   9.608  0.00  0.00    -0.394 OA
ATOM     38  H   UNL     1      -6.005  -8.219   8.953  0.00  0.00    +0.209 HD
ENDBRANCH  19   3
ENDBRANCH  10  19
BRANCH  11  21
ATOM     21  C   UNL     1      -3.866 -10.922  15.058  0.00  0.00    +0.102 C 
BRANCH  21  22
ATOM      4  O   UNL     1      -4.513 -12.588  16.690  0.00  0.00    -0.276 OA
ATOM      6  N   UNL     1      -4.816 -10.331  17.158  0.00  0.00    -0.311 N 
ATOM     22  C   UNL     1      -4.422 -11.406  16.372  0.00  0.00    +0.214 C 
ATOM     39  H   UNL     1      -4.695  -9.385  16.811  0.00  0.00    +0.149 HD
BRANCH   6  25
ATOM     25  C   UNL     1      -5.390 -10.486  18.475  0.00  0.00    +0.139 C 
BRANCH  25  31
ATOM     31  C   UNL     1      -6.891 -10.376  18.448  0.00  0.00    -0.030 A 
ATOM     32  C   UNL     1      -7.660 -11.097  19.361  0.00  0.00    +0.005 A 
ATOM     33  C   UNL     1      -7.514  -9.552  17.509  0.00  0.00    +0.005 A 
ATOM     34  C   UNL     1      -9.051 -10.995  19.337  0.00  0.00    +0.000 A 
ATOM     35  C   UNL     1      -8.905  -9.451  17.485  0.00  0.00    +0.000 A 
ATOM     36  C   UNL     1      -9.673 -10.172  18.398  0.00  0.00    +0.000 A 
ENDBRANCH  25  31
ENDBRANCH   6  25
ENDBRANCH  21  22
ENDBRANCH  11  21
TORSDOF 10
ENDMDL
MODEL 8
REMARK VINA RESULT:      -6.2     25.887     29.934
REMARK  Name = 24094071
REMARK  12 active torsions:
REMARK  status: ('A' for Active; 'I' for Inactive)
REMARK    1  A    between atoms: O_1  and  C_14
REMARK    2  A    between atoms: O_1  and  C_23
REMARK    3  A    between atoms: O_2  and  C_15
REMARK    4  A    between atoms: O_3  and  C_19
REMARK    5  A    between atoms: N_6  and  C_25
REMARK    6  A    between atoms: N_7  and  C_24
REMARK    7  A    between atoms: C_8  and  C_18
REMARK    8  A    between atoms: C_10  and  C_19
REMARK    9  A    between atoms: C_10  and  C_20
REMARK   10  A    between atoms: C_11  and  C_21
REMARK   11  A    between atoms: C_21  and  C_22
REMARK   12  A    between atoms: C_25  and  C_31
REMARK                            x       y       z     vdW  Elec       q    Type
REMARK                         _______ _______ _______ _____ _____    ______ ____
ROOT
ATOM      8  C   UNL     1     -14.436   7.697  20.707  0.00  0.00    -0.023 C 
ATOM      9  C   UNL     1     -12.877   7.919  20.852  0.00  0.00    +0.007 C 
ATOM     10  C   UNL     1     -12.241   8.880  19.753  0.00  0.00    +0.031 C 
ATOM     11  C   UNL     1     -14.954   6.588  21.713  0.00  0.00    +0.032 C 
ATOM     12  C   UNL     1     -14.748   7.264  19.245  0.00  0.00    +0.011 C 
ATOM     13  C   UNL     1     -12.115   6.558  20.885  0.00  0.00    +0.007 C 
ATOM     14  C   UNL     1     -12.673   8.423  18.330  0.00  0.00    +0.186 C 
ATOM     15  C   UNL     1     -14.149   5.280  21.605  0.00  0.00    +0.119 C 
ATOM     16  C   UNL     1     -14.179   8.204  18.184  0.00  0.00    +0.046 C 
ATOM     17  C   UNL     1     -12.674   5.528  21.853  0.00  0.00    +0.032 C 
ATOM     18  C   UNL     1     -15.253   8.982  21.007  0.00  0.00    +0.012 C 
ATOM     20  C   UNL     1     -10.688   8.856  19.833  0.00  0.00    +0.017 C 
ENDROOT
BRANCH  15   2
ATOM      2  O   UNL     1     -14.609   4.310  22.541  0.00  0.00    -0.391 OA
ATOM     37  H   UNL     1     -15.558   4.464  22.686  0.00  0.00    +0.210 HD
ENDBRANCH  15   2
BRANCH  14   1
ATOM      1  O   UNL     1     -12.282   9.371  17.336  0.00  0.00    -0.446 OA
BRANCH   1  23
ATOM      5  O   UNL     1     -10.380   8.667  16.259  0.00  0.00    -0.226 OA
ATOM      7  N   UNL     1     -12.454   8.631  15.219  0.00  0.00    -0.278 N 
ATOM     23  C   UNL     1     -11.590   8.869  16.267  0.00  0.00    +0.401 C 
ATOM     40  H   UNL     1     -13.428   8.889  15.349  0.00  0.00    +0.152 HD
BRANCH   7  24
ATOM     24  C   UNL     1     -12.037   8.099  13.940  0.00  0.00    +0.076 C 
ATOM     26  C   UNL     1     -13.115   7.185  13.347  0.00  0.00    +0.022 C 
ATOM     27  C   UNL     1     -11.667   9.225  12.970  0.00  0.00    +0.022 C 
ATOM     28  C   UNL     1     -14.336   7.963  12.856  0.00  0.00    +0.002 C 
ATOM     29  C   UNL     1     -12.890   9.999  12.478  0.00  0.00    +0.002 C 
ATOM     30  C   UNL     1     -13.943   9.070  11.882  0.00  0.00    +0.000 C 
ENDBRANCH   7  24
ENDBRANCH   1  23
ENDBRANCH  14   1
BRANCH  10  19
ATOM     19  C   UNL     1     -12.613  10.363  20.000  0.00  0.00    +0.166 C 
BRANCH  19   3
ATOM      3  O   UNL     1     -11.568  11.157  19.485  0.00  0.00    -0.394 OA
ATOM     38  H   UNL     1     -11.939  11.687  18.760  0.00  0.00    +0.209 HD
ENDBRANCH  19   3
ENDBRANCH  10  19
BRANCH  11  21
ATOM     21  C   UNL     1     -15.008   7.073  23.180  0.00  0.00    +0.102 C 
BRANCH  21  22
ATOM      4  O   UNL     1     -17.357   7.386  23.671  0.00  0.00    -0.276 OA
ATOM      6  N   UNL     1     -16.206   5.602  24.616  0.00  0.00    -0.311 N 
ATOM     22  C   UNL     1     -16.327   6.737  23.826  0.00  0.00    +0.214 C 
ATOM     39  H   UNL     1     -15.311   5.126  24.678  0.00  0.00    +0.149 HD
BRANCH   6  25
ATOM     25  C   UNL     1     -17.307   5.039  25.364  0.00  0.00    +0.139 C 
BRANCH  25  31
ATOM     31  C   UNL     1     -16.881   4.587  26.735  0.00  0.00    -0.030 A 
ATOM     32  C   UNL     1     -16.166   3.400  26.887  0.00  0.00    +0.005 A 
ATOM     33  C   UNL     1     -17.201   5.357  27.854  0.00  0.00    +0.005 A 
ATOM     34  C   UNL     1     -15.771   2.981  28.158  0.00  0.00    +0.000 A 
ATOM     35  C   UNL     1     -16.807   4.937  29.124  0.00  0.00    +0.000 A 
ATOM     36  C   UNL     1     -16.092   3.749  29.276  0.00  0.00    +0.000 A 
ENDBRANCH  25  31
ENDBRANCH   6  25
ENDBRANCH  21  22
ENDBRANCH  11  21
TORSDOF 10
ENDMDL
MODEL 9
REMARK VINA RESULT:      -6.2     28.610     31.659
REMARK  Name = 24094071
REMARK  12 active torsions:
REMARK  status: ('A' for Active; 'I' for Inactive)
REMARK    1  A    between atoms: O_1  and  C_14
REMARK    2  A    between atoms: O_1  and  C_23
REMARK    3  A    between atoms: O_2  and  C_15
REMARK    4  A    between atoms: O_3  and  C_19
REMARK    5  A    between atoms: N_6  and  C_25
REMARK    6  A    between atoms: N_7  and  C_24
REMARK    7  A    between atoms: C_8  and  C_18
REMARK    8  A    between atoms: C_10  and  C_19
REMARK    9  A    between atoms: C_10  and  C_20
REMARK   10  A    between atoms: C_11  and  C_21
REMARK   11  A    between atoms: C_21  and  C_22
REMARK   12  A    between atoms: C_25  and  C_31
REMARK                            x       y       z     vdW  Elec       q    Type
REMARK                         _______ _______ _______ _____ _____    ______ ____
ROOT
ATOM      8  C   UNL     1      -6.247 -11.656  16.301  0.00  0.00    -0.023 C 
ATOM      9  C   UNL     1      -6.637 -12.573  17.529  0.00  0.00    +0.007 C 
ATOM     10  C   UNL     1      -8.178 -12.523  17.928  0.00  0.00    +0.031 C 
ATOM     11  C   UNL     1      -4.677 -11.618  16.090  0.00  0.00    +0.032 C 
ATOM     12  C   UNL     1      -6.775 -10.216  16.562  0.00  0.00    +0.011 C 
ATOM     13  C   UNL     1      -5.747 -12.261  18.771  0.00  0.00    +0.007 C 
ATOM     14  C   UNL     1      -8.640 -11.045  18.086  0.00  0.00    +0.186 C 
ATOM     15  C   UNL     1      -3.923 -11.247  17.380  0.00  0.00    +0.119 C 
ATOM     16  C   UNL     1      -8.263 -10.153  16.904  0.00  0.00    +0.046 C 
ATOM     17  C   UNL     1      -4.252 -12.216  18.499  0.00  0.00    +0.032 C 
ATOM     18  C   UNL     1      -6.860 -12.153  14.965  0.00  0.00    +0.012 C 
ATOM     20  C   UNL     1      -8.423 -13.266  19.272  0.00  0.00    +0.017 C 
ENDROOT
BRANCH  15   2
ATOM      2  O   UNL     1      -2.513 -11.252  17.177  0.00  0.00    -0.391 OA
ATOM     37  H   UNL     1      -2.352 -11.241  16.218  0.00  0.00    +0.210 HD
ENDBRANCH  15   2
BRANCH  14   1
ATOM      1  O   UNL     1     -10.055 -10.955  18.253  0.00  0.00    -0.446 OA
BRANCH   1  23
ATOM      5  O   UNL     1      -9.760 -10.332  20.443  0.00  0.00    -0.226 OA
ATOM      7  N   UNL     1     -11.866 -10.769  19.572  0.00  0.00    -0.278 N 
ATOM     23  C   UNL     1     -10.493 -10.654  19.514  0.00  0.00    +0.401 C 
ATOM     40  H   UNL     1     -12.344 -11.091  18.736  0.00  0.00    +0.152 HD
BRANCH   7  24
ATOM     24  C   UNL     1     -12.642 -10.520  20.767  0.00  0.00    +0.076 C 
ATOM     26  C   UNL     1     -13.672  -9.409  20.533  0.00  0.00    +0.022 C 
ATOM     27  C   UNL     1     -13.313 -11.803  21.267  0.00  0.00    +0.022 C 
ATOM     28  C   UNL     1     -14.822  -9.860  19.633  0.00  0.00    +0.002 C 
ATOM     29  C   UNL     1     -14.465 -12.249  20.366  0.00  0.00    +0.002 C 
ATOM     30  C   UNL     1     -15.482 -11.132  20.157  0.00  0.00    +0.000 C 
ENDBRANCH   7  24
ENDBRANCH   1  23
ENDBRANCH  14   1
BRANCH  10  19
ATOM     19  C   UNL     1      -9.064 -13.278  16.906  0.00  0.00    +0.166 C 
BRANCH  19   3
ATOM      3  O   UNL     1     -10.271 -13.611  17.552  0.00  0.00    -0.394 OA
ATOM     38  H   UNL     1     -10.223 -13.256  18.456  0.00  0.00    +0.209 HD
ENDBRANCH  19   3
ENDBRANCH  10  19
BRANCH  11  21
ATOM     21  C   UNL     1      -4.111 -12.924  15.487  0.00  0.00    +0.102 C 
BRANCH  21  22
ATOM      4  O   UNL     1      -2.849 -13.530  13.512  0.00  0.00    -0.276 OA
ATOM      6  N   UNL     1      -3.132 -11.289  14.061  0.00  0.00    -0.311 N 
ATOM     22  C   UNL     1      -3.298 -12.654  14.247  0.00  0.00    +0.214 C 
ATOM     39  H   UNL     1      -3.549 -10.638  14.721  0.00  0.00    +0.149 HD
BRANCH   6  25
ATOM     25  C   UNL     1      -2.393 -10.727  12.954  0.00  0.00    +0.139 C 
BRANCH  25  31
ATOM     31  C   UNL     1      -3.305 -10.117  11.923  0.00  0.00    -0.030 A 
ATOM     32  C   UNL     1      -4.665  -9.970  12.195  0.00  0.00    +0.005 A 
ATOM     33  C   UNL     1      -2.790  -9.699  10.696  0.00  0.00    +0.005 A 
ATOM     34  C   UNL     1      -5.510  -9.404  11.239  0.00  0.00    +0.000 A 
ATOM     35  C   UNL     1      -3.635  -9.134   9.741  0.00  0.00    +0.000 A 
ATOM     36  C   UNL     1      -4.995  -8.987  10.012  0.00  0.00    +0.000 A 
ENDBRANCH  25  31
ENDBRANCH   6  25
ENDBRANCH  21  22
ENDBRANCH  11  21
TORSDOF 10
ENDMDL
MODEL 10
REMARK VINA RESULT:      -6.1     15.835     21.662
REMARK  Name = 24094071
REMARK  12 active torsions:
REMARK  status: ('A' for Active; 'I' for Inactive)
REMARK    1  A    between atoms: O_1  and  C_14
REMARK    2  A    between atoms: O_1  and  C_23
REMARK    3  A    between atoms: O_2  and  C_15
REMARK    4  A    between atoms: O_3  and  C_19
REMARK    5  A    between atoms: N_6  and  C_25
REMARK    6  A    between atoms: N_7  and  C_24
REMARK    7  A    between atoms: C_8  and  C_18
REMARK    8  A    between atoms: C_10  and  C_19
REMARK    9  A    between atoms: C_10  and  C_20
REMARK   10  A    between atoms: C_11  and  C_21
REMARK   11  A    between atoms: C_21  and  C_22
REMARK   12  A    between atoms: C_25  and  C_31
REMARK                            x       y       z     vdW  Elec       q    Type
REMARK                         _______ _______ _______ _____ _____    ______ ____
ROOT
ATOM      8  C   UNL     1      10.738   7.277   4.339  0.00  0.00    -0.023 C 
ATOM      9  C   UNL     1       9.930   6.544   3.195  0.00  0.00    +0.007 C 
ATOM     10  C   UNL     1      10.804   5.569   2.289  0.00  0.00    +0.031 C 
ATOM     11  C   UNL     1       9.844   8.363   5.069  0.00  0.00    +0.032 C 
ATOM     12  C   UNL     1      11.988   7.962   3.714  0.00  0.00    +0.011 C 
ATOM     13  C   UNL     1       9.164   7.568   2.302  0.00  0.00    +0.007 C 
ATOM     14  C   UNL     1      12.072   6.311   1.776  0.00  0.00    +0.186 C 
ATOM     15  C   UNL     1       9.189   9.340   4.076  0.00  0.00    +0.119 C 
ATOM     16  C   UNL     1      12.856   7.024   2.878  0.00  0.00    +0.046 C 
ATOM     17  C   UNL     1       8.342   8.598   3.061  0.00  0.00    +0.032 C 
ATOM     18  C   UNL     1      11.233   6.301   5.441  0.00  0.00    +0.012 C 
ATOM     20  C   UNL     1       9.986   5.077   1.061  0.00  0.00    +0.017 C 
ENDROOT
BRANCH  15   2
ATOM      2  O   UNL     1       8.363  10.287   4.749  0.00  0.00    -0.391 OA
ATOM     37  H   UNL     1       8.700  10.382   5.656  0.00  0.00    +0.210 HD
ENDBRANCH  15   2
BRANCH  14   1
ATOM      1  O   UNL     1      12.974   5.416   1.123  0.00  0.00    -0.446 OA
BRANCH   1  23
ATOM      5  O   UNL     1      13.647   6.617  -0.715  0.00  0.00    -0.226 OA
ATOM      7  N   UNL     1      12.675   4.519  -0.917  0.00  0.00    -0.278 N 
ATOM     23  C   UNL     1      13.146   5.612  -0.220  0.00  0.00    +0.401 C 
ATOM     40  H   UNL     1      12.242   3.774  -0.380  0.00  0.00    +0.152 HD
BRANCH   7  24
ATOM     24  C   UNL     1      12.710   4.411  -2.359  0.00  0.00    +0.076 C 
ATOM     26  C   UNL     1      12.787   2.945  -2.798  0.00  0.00    +0.022 C 
ATOM     27  C   UNL     1      11.509   5.119  -2.994  0.00  0.00    +0.022 C 
ATOM     28  C   UNL     1      11.474   2.196  -2.569  0.00  0.00    +0.002 C 
ATOM     29  C   UNL     1      10.198   4.366  -2.765  0.00  0.00    +0.002 C 
ATOM     30  C   UNL     1      10.296   2.913  -3.221  0.00  0.00    +0.000 C 
ENDBRANCH   7  24
ENDBRANCH   1  23
ENDBRANCH  14   1
BRANCH  10  19
ATOM     19  C   UNL     1      11.185   4.269   3.040  0.00  0.00    +0.166 C 
BRANCH  19   3
ATOM      3  O   UNL     1      11.571   3.316   2.077  0.00  0.00    -0.394 OA
ATOM     38  H   UNL     1      12.540   3.352   2.007  0.00  0.00    +0.209 HD
ENDBRANCH  19   3
ENDBRANCH  10  19
BRANCH  11  21
ATOM     21  C   UNL     1       8.781   7.747   6.007  0.00  0.00    +0.102 C 
BRANCH  21  22
ATOM      4  O   UNL     1       8.570   7.546   8.410  0.00  0.00    -0.276 OA
ATOM      6  N   UNL     1       9.737   9.337   7.496  0.00  0.00    -0.311 N 
ATOM     22  C   UNL     1       8.997   8.164   7.438  0.00  0.00    +0.214 C 
ATOM     39  H   UNL     1      10.053   9.774   6.636  0.00  0.00    +0.149 HD
BRANCH   6  25
ATOM     25  C   UNL     1      10.100   9.980   8.738  0.00  0.00    +0.139 C 
BRANCH  25  31
ATOM     31  C   UNL     1       9.294  11.228   8.980  0.00  0.00    -0.030 A 
ATOM     32  C   UNL     1       8.793  11.499  10.253  0.00  0.00    +0.005 A 
ATOM     33  C   UNL     1       9.048  12.115   7.931  0.00  0.00    +0.005 A 
ATOM     34  C   UNL     1       8.046  12.656  10.477  0.00  0.00    +0.000 A 
ATOM     35  C   UNL     1       8.301  13.271   8.155  0.00  0.00    +0.000 A 
ATOM     36  C   UNL     1       7.800  13.541   9.428  0.00  0.00    +0.000 A 
ENDBRANCH  25  31
ENDBRANCH   6  25
ENDBRANCH  21  22
ENDBRANCH  11  21
TORSDOF 10
ENDMDL
