MODEL 1
REMARK VINA RESULT:      -5.7      0.000      0.000
REMARK  Name = 7161676
REMARK  6 active torsions:
REMARK  status: ('A' for Active; 'I' for Inactive)
REMARK    1  A    between atoms: S_1  and  N_7
REMARK    2  A    between atoms: S_1  and  C_15
REMARK    3  A    between atoms: O_2  and  C_13
REMARK    4  A    between atoms: O_2  and  C_17
REMARK    5  A    between atoms: C_9  and  C_13
REMARK    6  A    between atoms: C_14  and  C_16
REMARK                            x       y       z     vdW  Elec       q    Type
REMARK                         _______ _______ _______ _____ _____    ______ ____
ROOT
ATOM      6  O   UNL     1      17.799   6.795  19.789  0.00  0.00    -0.276 OA
ATOM      7  N   UNL     1      12.997   7.971  20.625  0.00  0.00    -0.165 NA
ATOM      8  N   UNL     1      15.814   7.444  20.813  0.00  0.00    -0.298 N 
ATOM      9  C   UNL     1      13.683   7.212  19.541  0.00  0.00    +0.205 C 
ATOM     10  C   UNL     1      14.985   6.557  19.996  0.00  0.00    +0.139 C 
ATOM     11  C   UNL     1      13.649   7.880  21.957  0.00  0.00    +0.129 C 
ATOM     12  C   UNL     1      15.119   8.252  21.819  0.00  0.00    +0.125 C 
ATOM     14  C   UNL     1      17.199   7.467  20.629  0.00  0.00    +0.213 C 
ATOM     16  C   UNL     1      17.973   8.385  21.544  0.00  0.00    +0.109 C 
ENDROOT
BRANCH   7   1
ATOM      1  S   UNL     1      11.287   7.940  20.621  0.00  0.00    +0.030 S 
ATOM      3  O   UNL     1      10.844   6.668  21.149  0.00  0.00    -0.158 OA
ATOM      4  O   UNL     1      10.814   8.441  19.349  0.00  0.00    -0.158 OA
ATOM     15  C   UNL     1      10.977   9.182  21.849  0.00  0.00    +0.215 C 
ENDBRANCH   7   1
BRANCH   9  13
ATOM      5  O   UNL     1      14.054   9.429  18.689  0.00  0.00    -0.249 OA
ATOM     13  C   UNL     1      13.932   8.230  18.475  0.00  0.00    +0.327 C 
BRANCH  13   2
ATOM      2  O   UNL     1      13.998   7.613  17.262  0.00  0.00    -0.467 OA
ATOM     17  C   UNL     1      14.067   8.488  16.130  0.00  0.00    +0.280 C 
ENDBRANCH  13   2
ENDBRANCH   9  13
TORSDOF 3
ENDMDL
MODEL 2
REMARK VINA RESULT:      -4.5     30.893     31.909
REMARK  Name = 7161676
REMARK  6 active torsions:
REMARK  status: ('A' for Active; 'I' for Inactive)
REMARK    1  A    between atoms: S_1  and  N_7
REMARK    2  A    between atoms: S_1  and  C_15
REMARK    3  A    between atoms: O_2  and  C_13
REMARK    4  A    between atoms: O_2  and  C_17
REMARK    5  A    between atoms: C_9  and  C_13
REMARK    6  A    between atoms: C_14  and  C_16
REMARK                            x       y       z     vdW  Elec       q    Type
REMARK                         _______ _______ _______ _____ _____    ______ ____
ROOT
ATOM      6  O   UNL     1     -14.227   4.440  35.468  0.00  0.00    -0.276 OA
ATOM      7  N   UNL     1     -15.649   4.114  30.669  0.00  0.00    -0.165 NA
ATOM      8  N   UNL     1     -14.986   4.965  33.332  0.00  0.00    -0.298 N 
ATOM      9  C   UNL     1     -15.489   3.103  31.752  0.00  0.00    +0.205 C 
ATOM     10  C   UNL     1     -15.672   3.685  33.152  0.00  0.00    +0.139 C 
ATOM     11  C   UNL     1     -16.042   5.469  31.137  0.00  0.00    +0.129 C 
ATOM     12  C   UNL     1     -15.077   5.921  32.225  0.00  0.00    +0.125 C 
ATOM     14  C   UNL     1     -14.314   5.232  34.527  0.00  0.00    +0.213 C 
ATOM     16  C   UNL     1     -13.668   6.593  34.634  0.00  0.00    +0.109 C 
ENDROOT
BRANCH   7   1
ATOM      1  S   UNL     1     -16.379   3.578  29.220  0.00  0.00    +0.030 S 
ATOM      3  O   UNL     1     -17.574   2.831  29.548  0.00  0.00    -0.158 OA
ATOM      4  O   UNL     1     -15.356   3.032  28.355  0.00  0.00    -0.158 OA
ATOM     15  C   UNL     1     -16.879   5.146  28.556  0.00  0.00    +0.215 C 
ENDBRANCH   7   1
BRANCH   9  13
ATOM      5  O   UNL     1     -13.154   3.254  31.198  0.00  0.00    -0.249 OA
ATOM     13  C   UNL     1     -14.103   2.574  31.563  0.00  0.00    +0.327 C 
BRANCH  13   2
ATOM      2  O   UNL     1     -14.079   1.243  31.858  0.00  0.00    -0.467 OA
ATOM     17  C   UNL     1     -14.974   0.428  31.094  0.00  0.00    +0.280 C 
ENDBRANCH  13   2
ENDBRANCH   9  13
TORSDOF 3
ENDMDL
MODEL 3
REMARK VINA RESULT:      -4.5     30.645     32.190
REMARK  Name = 7161676
REMARK  6 active torsions:
REMARK  status: ('A' for Active; 'I' for Inactive)
REMARK    1  A    between atoms: S_1  and  N_7
REMARK    2  A    between atoms: S_1  and  C_15
REMARK    3  A    between atoms: O_2  and  C_13
REMARK    4  A    between atoms: O_2  and  C_17
REMARK    5  A    between atoms: C_9  and  C_13
REMARK    6  A    between atoms: C_14  and  C_16
REMARK                            x       y       z     vdW  Elec       q    Type
REMARK                         _______ _______ _______ _____ _____    ______ ____
ROOT
ATOM      6  O   UNL     1     -17.060   1.592  26.382  0.00  0.00    -0.276 OA
ATOM      7  N   UNL     1     -15.474   2.747  30.997  0.00  0.00    -0.165 NA
ATOM      8  N   UNL     1     -16.913   2.485  28.525  0.00  0.00    -0.298 N 
ATOM      9  C   UNL     1     -14.784   2.209  29.791  0.00  0.00    +0.205 C 
ATOM     10  C   UNL     1     -15.456   2.613  28.481  0.00  0.00    +0.139 C 
ATOM     11  C   UNL     1     -16.624   3.643  30.707  0.00  0.00    +0.129 C 
ATOM     12  C   UNL     1     -17.577   2.938  29.751  0.00  0.00    +0.125 C 
ATOM     14  C   UNL     1     -17.601   1.978  27.420  0.00  0.00    +0.213 C 
ATOM     16  C   UNL     1     -19.105   1.918  27.546  0.00  0.00    +0.109 C 
ENDROOT
BRANCH   7   1
ATOM      1  S   UNL     1     -14.480   3.202  32.312  0.00  0.00    +0.030 S 
ATOM      3  O   UNL     1     -15.026   4.397  32.917  0.00  0.00    -0.158 OA
ATOM      4  O   UNL     1     -13.095   3.124  31.899  0.00  0.00    -0.158 OA
ATOM     15  C   UNL     1     -14.806   1.839  33.399  0.00  0.00    +0.215 C 
ENDBRANCH   7   1
BRANCH   9  13
ATOM      5  O   UNL     1     -15.835   0.075  30.141  0.00  0.00    -0.249 OA
ATOM     13  C   UNL     1     -14.812   0.726  29.979  0.00  0.00    +0.327 C 
BRANCH  13   2
ATOM      2  O   UNL     1     -13.540   0.238  29.940  0.00  0.00    -0.467 OA
ATOM     17  C   UNL     1     -13.387  -1.030  29.293  0.00  0.00    +0.280 C 
ENDBRANCH  13   2
ENDBRANCH   9  13
TORSDOF 3
ENDMDL
MODEL 4
REMARK VINA RESULT:      -4.5     12.732     14.290
REMARK  Name = 7161676
REMARK  6 active torsions:
REMARK  status: ('A' for Active; 'I' for Inactive)
REMARK    1  A    between atoms: S_1  and  N_7
REMARK    2  A    between atoms: S_1  and  C_15
REMARK    3  A    between atoms: O_2  and  C_13
REMARK    4  A    between atoms: O_2  and  C_17
REMARK    5  A    between atoms: C_9  and  C_13
REMARK    6  A    between atoms: C_14  and  C_16
REMARK                            x       y       z     vdW  Elec       q    Type
REMARK                         _______ _______ _______ _____ _____    ______ ____
ROOT
ATOM      6  O   UNL     1      10.491   4.062   8.492  0.00  0.00    -0.276 OA
ATOM      7  N   UNL     1       9.833   8.476   6.203  0.00  0.00    -0.165 NA
ATOM      8  N   UNL     1       9.564   6.052   7.722  0.00  0.00    -0.298 N 
ATOM      9  C   UNL     1      10.816   7.371   6.016  0.00  0.00    +0.205 C 
ATOM     10  C   UNL     1      10.279   6.008   6.445  0.00  0.00    +0.139 C 
ATOM     11  C   UNL     1       8.495   8.043   6.682  0.00  0.00    +0.129 C 
ATOM     12  C   UNL     1       8.664   7.189   7.932  0.00  0.00    +0.125 C 
ATOM     14  C   UNL     1       9.739   5.026   8.653  0.00  0.00    +0.213 C 
ATOM     16  C   UNL     1       8.931   5.140   9.924  0.00  0.00    +0.109 C 
ENDROOT
BRANCH   7   1
ATOM      1  S   UNL     1       9.846   9.721   5.032  0.00  0.00    +0.030 S 
ATOM      3  O   UNL     1      10.769   9.361   3.978  0.00  0.00    -0.158 OA
ATOM      4  O   UNL     1       9.927  10.997   5.709  0.00  0.00    -0.158 OA
ATOM     15  C   UNL     1       8.197   9.538   4.403  0.00  0.00    +0.215 C 
ENDBRANCH   7   1
BRANCH   9  13
ATOM      5  O   UNL     1      12.136   8.889   7.332  0.00  0.00    -0.249 OA
ATOM     13  C   UNL     1      11.991   7.775   6.847  0.00  0.00    +0.327 C 
BRANCH  13   2
ATOM      2  O   UNL     1      12.848   6.722   6.968  0.00  0.00    -0.467 OA
ATOM     17  C   UNL     1      14.224   7.015   6.700  0.00  0.00    +0.280 C 
ENDBRANCH  13   2
ENDBRANCH   9  13
TORSDOF 3
ENDMDL
MODEL 5
REMARK VINA RESULT:      -4.4     25.670     27.332
REMARK  Name = 7161676
REMARK  6 active torsions:
REMARK  status: ('A' for Active; 'I' for Inactive)
REMARK    1  A    between atoms: S_1  and  N_7
REMARK    2  A    between atoms: S_1  and  C_15
REMARK    3  A    between atoms: O_2  and  C_13
REMARK    4  A    between atoms: O_2  and  C_17
REMARK    5  A    between atoms: C_9  and  C_13
REMARK    6  A    between atoms: C_14  and  C_16
REMARK                            x       y       z     vdW  Elec       q    Type
REMARK                         _______ _______ _______ _____ _____    ______ ____
ROOT
ATOM      6  O   UNL     1      -7.906 -10.082  17.891  0.00  0.00    -0.276 OA
ATOM      7  N   UNL     1      -3.564 -11.199  15.643  0.00  0.00    -0.165 NA
ATOM      8  N   UNL     1      -5.682 -10.645  17.503  0.00  0.00    -0.298 N 
ATOM      9  C   UNL     1      -4.813 -10.538  15.169  0.00  0.00    +0.205 C 
ATOM     10  C   UNL     1      -5.586  -9.839  16.285  0.00  0.00    +0.139 C 
ATOM     11  C   UNL     1      -3.254 -10.984  17.081  0.00  0.00    +0.129 C 
ATOM     12  C   UNL     1      -4.471 -11.360  17.915  0.00  0.00    +0.125 C 
ATOM     14  C   UNL     1      -6.878 -10.678  18.222  0.00  0.00    +0.213 C 
ATOM     16  C   UNL     1      -6.869 -11.506  19.485  0.00  0.00    +0.109 C 
ENDROOT
BRANCH   7   1
ATOM      1  S   UNL     1      -2.229 -11.175  14.575  0.00  0.00    +0.030 S 
ATOM      3  O   UNL     1      -2.514 -10.258  13.493  0.00  0.00    -0.158 OA
ATOM      4  O   UNL     1      -1.806 -12.536  14.326  0.00  0.00    -0.158 OA
ATOM     15  C   UNL     1      -1.028 -10.414  15.637  0.00  0.00    +0.215 C 
ENDBRANCH   7   1
BRANCH   9  13
ATOM      5  O   UNL     1      -5.528 -12.819  14.913  0.00  0.00    -0.249 OA
ATOM     13  C   UNL     1      -5.614 -11.648  14.568  0.00  0.00    +0.327 C 
BRANCH  13   2
ATOM      2  O   UNL     1      -6.432 -11.147  13.600  0.00  0.00    -0.467 OA
ATOM     17  C   UNL     1      -5.868 -10.104  12.797  0.00  0.00    +0.280 C 
ENDBRANCH  13   2
ENDBRANCH   9  13
TORSDOF 3
ENDMDL
MODEL 6
REMARK VINA RESULT:      -4.4     27.206     29.210
REMARK  Name = 7161676
REMARK  6 active torsions:
REMARK  status: ('A' for Active; 'I' for Inactive)
REMARK    1  A    between atoms: S_1  and  N_7
REMARK    2  A    between atoms: S_1  and  C_15
REMARK    3  A    between atoms: O_2  and  C_13
REMARK    4  A    between atoms: O_2  and  C_17
REMARK    5  A    between atoms: C_9  and  C_13
REMARK    6  A    between atoms: C_14  and  C_16
REMARK                            x       y       z     vdW  Elec       q    Type
REMARK                         _______ _______ _______ _____ _____    ______ ____
ROOT
ATOM      6  O   UNL     1     -10.971 -10.327  17.253  0.00  0.00    -0.276 OA
ATOM      7  N   UNL     1      -6.053 -11.116  17.841  0.00  0.00    -0.165 NA
ATOM      8  N   UNL     1      -8.656 -10.112  17.157  0.00  0.00    -0.298 N 
ATOM      9  C   UNL     1      -7.247 -11.998  17.976  0.00  0.00    +0.205 C 
ATOM     10  C   UNL     1      -8.424 -11.557  17.110  0.00  0.00    +0.139 C 
ATOM     11  C   UNL     1      -6.191 -10.034  16.832  0.00  0.00    +0.129 C 
ATOM     12  C   UNL     1      -7.470  -9.254  17.110  0.00  0.00    +0.125 C 
ATOM     14  C   UNL     1      -9.962  -9.620  17.213  0.00  0.00    +0.213 C 
ATOM     16  C   UNL     1     -10.102  -8.116  17.221  0.00  0.00    +0.109 C 
ENDROOT
BRANCH   7   1
ATOM      1  S   UNL     1      -4.524 -11.876  17.924  0.00  0.00    +0.030 S 
ATOM      3  O   UNL     1      -4.119 -11.958  19.311  0.00  0.00    -0.158 OA
ATOM      4  O   UNL     1      -3.662 -11.300  16.914  0.00  0.00    -0.158 OA
ATOM     15  C   UNL     1      -4.984 -13.503  17.389  0.00  0.00    +0.215 C 
ENDBRANCH   7   1
BRANCH   9  13
ATOM      5  O   UNL     1      -7.289 -11.006  20.166  0.00  0.00    -0.249 OA
ATOM     13  C   UNL     1      -7.592 -11.935  19.430  0.00  0.00    +0.327 C 
BRANCH  13   2
ATOM      2  O   UNL     1      -8.280 -13.057  19.784  0.00  0.00    -0.467 OA
ATOM     17  C   UNL     1      -9.628 -12.842  20.215  0.00  0.00    +0.280 C 
ENDBRANCH  13   2
ENDBRANCH   9  13
TORSDOF 3
ENDMDL
MODEL 7
REMARK VINA RESULT:      -4.4     27.265     28.996
REMARK  Name = 7161676
REMARK  6 active torsions:
REMARK  status: ('A' for Active; 'I' for Inactive)
REMARK    1  A    between atoms: S_1  and  N_7
REMARK    2  A    between atoms: S_1  and  C_15
REMARK    3  A    between atoms: O_2  and  C_13
REMARK    4  A    between atoms: O_2  and  C_17
REMARK    5  A    between atoms: C_9  and  C_13
REMARK    6  A    between atoms: C_14  and  C_16
REMARK                            x       y       z     vdW  Elec       q    Type
REMARK                         _______ _______ _______ _____ _____    ______ ____
ROOT
ATOM      6  O   UNL     1      -4.046 -11.807  19.192  0.00  0.00    -0.276 OA
ATOM      7  N   UNL     1      -8.586 -10.227  17.762  0.00  0.00    -0.165 NA
ATOM      8  N   UNL     1      -5.771 -10.659  18.132  0.00  0.00    -0.298 N 
ATOM      9  C   UNL     1      -8.103 -10.991  18.946  0.00  0.00    +0.205 C 
ATOM     10  C   UNL     1      -6.648 -10.695  19.303  0.00  0.00    +0.139 C 
ATOM     11  C   UNL     1      -7.605  -9.260  17.204  0.00  0.00    +0.129 C 
ATOM     12  C   UNL     1      -6.289  -9.979  16.942  0.00  0.00    +0.125 C 
ATOM     14  C   UNL     1      -4.498 -11.231  18.200  0.00  0.00    +0.213 C 
ATOM     16  C   UNL     1      -3.652 -11.112  16.955  0.00  0.00    +0.109 C 
ENDROOT
BRANCH   7   1
ATOM      1  S   UNL     1     -10.216  -9.712  17.792  0.00  0.00    +0.030 S 
ATOM      3  O   UNL     1     -10.680  -9.717  19.162  0.00  0.00    -0.158 OA
ATOM      4  O   UNL     1     -10.941 -10.394  16.742  0.00  0.00    -0.158 OA
ATOM     15  C   UNL     1      -9.991  -8.024  17.296  0.00  0.00    +0.215 C 
ENDBRANCH   7   1
BRANCH   9  13
ATOM      5  O   UNL     1      -8.256 -12.834  17.409  0.00  0.00    -0.249 OA
ATOM     13  C   UNL     1      -8.285 -12.425  18.562  0.00  0.00    +0.327 C 
BRANCH  13   2
ATOM      2  O   UNL     1      -8.482 -13.176  19.682  0.00  0.00    -0.467 OA
ATOM     17  C   UNL     1      -9.740 -12.983  20.338  0.00  0.00    +0.280 C 
ENDBRANCH  13   2
ENDBRANCH   9  13
TORSDOF 3
ENDMDL
MODEL 8
REMARK VINA RESULT:      -4.4     27.921     30.028
REMARK  Name = 7161676
REMARK  6 active torsions:
REMARK  status: ('A' for Active; 'I' for Inactive)
REMARK    1  A    between atoms: S_1  and  N_7
REMARK    2  A    between atoms: S_1  and  C_15
REMARK    3  A    between atoms: O_2  and  C_13
REMARK    4  A    between atoms: O_2  and  C_17
REMARK    5  A    between atoms: C_9  and  C_13
REMARK    6  A    between atoms: C_14  and  C_16
REMARK                            x       y       z     vdW  Elec       q    Type
REMARK                         _______ _______ _______ _____ _____    ______ ____
ROOT
ATOM      6  O   UNL     1     -12.262  -9.735  16.604  0.00  0.00    -0.276 OA
ATOM      7  N   UNL     1      -7.765 -10.684  18.611  0.00  0.00    -0.165 NA
ATOM      8  N   UNL     1     -10.008  -9.616  17.170  0.00  0.00    -0.298 N 
ATOM      9  C   UNL     1      -8.991 -11.511  18.429  0.00  0.00    +0.205 C 
ATOM     10  C   UNL     1      -9.847 -11.069  17.245  0.00  0.00    +0.139 C 
ATOM     11  C   UNL     1      -7.553  -9.649  17.565  0.00  0.00    +0.129 C 
ATOM     12  C   UNL     1      -8.815  -8.807  17.434  0.00  0.00    +0.125 C 
ATOM     14  C   UNL     1     -11.248  -9.071  16.830  0.00  0.00    +0.213 C 
ATOM     16  C   UNL     1     -11.307  -7.564  16.741  0.00  0.00    +0.109 C 
ENDROOT
BRANCH   7   1
ATOM      1  S   UNL     1      -6.364 -11.497  19.158  0.00  0.00    +0.030 S 
ATOM      3  O   UNL     1      -6.420 -12.873  18.715  0.00  0.00    -0.158 OA
ATOM      4  O   UNL     1      -6.138 -11.155  20.546  0.00  0.00    -0.158 OA
ATOM     15  C   UNL     1      -5.146 -10.656  18.181  0.00  0.00    +0.215 C 
ENDBRANCH   7   1
BRANCH   9  13
ATOM      5  O   UNL     1      -9.728 -10.344  20.398  0.00  0.00    -0.249 OA
ATOM     13  C   UNL     1      -9.733 -11.362  19.719  0.00  0.00    +0.327 C 
BRANCH  13   2
ATOM      2  O   UNL     1     -10.394 -12.520  20.000  0.00  0.00    -0.467 OA
ATOM     17  C   UNL     1      -9.563 -13.662  20.234  0.00  0.00    +0.280 C 
ENDBRANCH  13   2
ENDBRANCH   9  13
TORSDOF 3
ENDMDL
MODEL 9
REMARK VINA RESULT:      -4.3     13.200     15.856
REMARK  Name = 7161676
REMARK  6 active torsions:
REMARK  status: ('A' for Active; 'I' for Inactive)
REMARK    1  A    between atoms: S_1  and  N_7
REMARK    2  A    between atoms: S_1  and  C_15
REMARK    3  A    between atoms: O_2  and  C_13
REMARK    4  A    between atoms: O_2  and  C_17
REMARK    5  A    between atoms: C_9  and  C_13
REMARK    6  A    between atoms: C_14  and  C_16
REMARK                            x       y       z     vdW  Elec       q    Type
REMARK                         _______ _______ _______ _____ _____    ______ ____
ROOT
ATOM      6  O   UNL     1      10.014   7.326   1.499  0.00  0.00    -0.276 OA
ATOM      7  N   UNL     1      10.425   5.607   6.192  0.00  0.00    -0.165 NA
ATOM      8  N   UNL     1      10.092   5.928   3.357  0.00  0.00    -0.298 N 
ATOM      9  C   UNL     1      10.163   6.960   5.625  0.00  0.00    +0.205 C 
ATOM     10  C   UNL     1       9.495   6.920   4.253  0.00  0.00    +0.139 C 
ATOM     11  C   UNL     1       9.913   4.479   5.371  0.00  0.00    +0.129 C 
ATOM     12  C   UNL     1      10.425   4.628   3.945  0.00  0.00    +0.125 C 
ATOM     14  C   UNL     1      10.289   6.238   2.010  0.00  0.00    +0.213 C 
ATOM     16  C   UNL     1      10.876   5.139   1.157  0.00  0.00    +0.109 C 
ENDROOT
BRANCH   7   1
ATOM      1  S   UNL     1      10.260   5.438   7.886  0.00  0.00    +0.030 S 
ATOM      3  O   UNL     1      11.502   5.832   8.515  0.00  0.00    -0.158 OA
ATOM      4  O   UNL     1       9.634   4.165   8.169  0.00  0.00    -0.158 OA
ATOM     15  C   UNL     1       9.065   6.715   8.185  0.00  0.00    +0.215 C 
ENDBRANCH   7   1
BRANCH   9  13
ATOM      5  O   UNL     1      12.564   6.974   5.503  0.00  0.00    -0.249 OA
ATOM     13  C   UNL     1      11.513   7.599   5.552  0.00  0.00    +0.327 C 
BRANCH  13   2
ATOM      2  O   UNL     1      11.376   8.955   5.549  0.00  0.00    -0.467 OA
ATOM     17  C   UNL     1      12.323   9.667   4.746  0.00  0.00    +0.280 C 
ENDBRANCH  13   2
ENDBRANCH   9  13
TORSDOF 3
ENDMDL
MODEL 10
REMARK VINA RESULT:      -4.3     26.008     27.569
REMARK  Name = 7161676
REMARK  6 active torsions:
REMARK  status: ('A' for Active; 'I' for Inactive)
REMARK    1  A    between atoms: S_1  and  N_7
REMARK    2  A    between atoms: S_1  and  C_15
REMARK    3  A    between atoms: O_2  and  C_13
REMARK    4  A    between atoms: O_2  and  C_17
REMARK    5  A    between atoms: C_9  and  C_13
REMARK    6  A    between atoms: C_14  and  C_16
REMARK                            x       y       z     vdW  Elec       q    Type
REMARK                         _______ _______ _______ _____ _____    ______ ____
ROOT
ATOM      6  O   UNL     1      -1.464 -10.856  16.251  0.00  0.00    -0.276 OA
ATOM      7  N   UNL     1      -6.472 -10.900  15.977  0.00  0.00    -0.165 NA
ATOM      8  N   UNL     1      -3.650 -10.731  15.465  0.00  0.00    -0.298 N 
ATOM      9  C   UNL     1      -5.518 -10.775  17.115  0.00  0.00    +0.205 C 
ATOM     10  C   UNL     1      -4.174 -10.173  16.712  0.00  0.00    +0.139 C 
ATOM     11  C   UNL     1      -5.981 -10.339  14.691  0.00  0.00    +0.129 C 
ATOM     12  C   UNL     1      -4.613 -10.930  14.378  0.00  0.00    +0.125 C 
ATOM     14  C   UNL     1      -2.288 -11.017  15.348  0.00  0.00    +0.213 C 
ATOM     16  C   UNL     1      -1.836 -11.554  14.011  0.00  0.00    +0.109 C 
ENDROOT
BRANCH   7   1
ATOM      1  S   UNL     1      -8.125 -10.641  16.328  0.00  0.00    +0.030 S 
ATOM      3  O   UNL     1      -8.605 -11.737  17.141  0.00  0.00    -0.158 OA
ATOM      4  O   UNL     1      -8.803 -10.241  15.114  0.00  0.00    -0.158 OA
ATOM     15  C   UNL     1      -7.975  -9.211  17.368  0.00  0.00    +0.215 C 
ENDBRANCH   7   1
BRANCH   9  13
ATOM      5  O   UNL     1      -5.463 -13.171  16.915  0.00  0.00    -0.249 OA
ATOM     13  C   UNL     1      -5.355 -12.174  17.617  0.00  0.00    +0.327 C 
BRANCH  13   2
ATOM      2  O   UNL     1      -5.075 -12.150  18.951  0.00  0.00    -0.467 OA
ATOM     17  C   UNL     1      -6.005 -11.423  19.761  0.00  0.00    +0.280 C 
ENDBRANCH  13   2
ENDBRANCH   9  13
TORSDOF 3
ENDMDL
