MODEL 1
REMARK VINA RESULT:      -7.8      0.000      0.000
REMARK  Name = 11912195
REMARK  7 active torsions:
REMARK  status: ('A' for Active; 'I' for Inactive)
REMARK    1  A    between atoms: S_1  and  N_7
REMARK    2  A    between atoms: S_1  and  C_19
REMARK    3  A    between atoms: N_7  and  C_14
REMARK    4  A    between atoms: N_8  and  C_15
REMARK    5  A    between atoms: N_11  and  C_27
REMARK    6  A    between atoms: C_22  and  C_28
REMARK    7  A    between atoms: C_31  and  C_35
REMARK                            x       y       z     vdW  Elec       q    Type
REMARK                         _______ _______ _______ _____ _____    ______ ____
ROOT
ATOM      2  O   UNL     1      13.181   8.980  15.211  0.00  0.00    -0.370 OA
ATOM      3  O   UNL     1      15.263  10.856  16.596  0.00  0.00    -0.370 OA
ATOM     12  C   UNL     1      13.908  10.488  16.903  0.00  0.00    +0.170 C 
ATOM     13  C   UNL     1      13.163  10.368  15.588  0.00  0.00    +0.171 C 
ATOM     14  C   UNL     1      13.864   9.095  17.482  0.00  0.00    +0.133 C 
ATOM     15  C   UNL     1      13.988  11.184  14.619  0.00  0.00    +0.130 C 
ATOM     16  C   UNL     1      13.825   8.219  16.244  0.00  0.00    +0.183 C 
ATOM     17  C   UNL     1      15.392  11.043  15.179  0.00  0.00    +0.185 C 
ENDROOT
BRANCH  15   8
ATOM      8  N   UNL     1      13.570  12.567  14.657  0.00  0.00    -0.306 N 
ATOM      9  N   UNL     1      12.273  12.343  12.714  0.00  0.00    -0.214 NA
ATOM     10  N   UNL     1      12.409  14.452  13.873  0.00  0.00    -0.223 NA
ATOM     18  C   UNL     1      12.725  13.138  13.720  0.00  0.00    +0.216 A 
ATOM     22  C   UNL     1      11.452  12.931  11.819  0.00  0.00    +0.076 A 
ATOM     23  C   UNL     1      11.584  14.975  12.943  0.00  0.00    +0.116 A 
ATOM     26  C   UNL     1      11.070  14.255  11.883  0.00  0.00    +0.048 A 
ATOM     37  H   UNL     1      13.858  13.154  15.432  0.00  0.00    +0.149 HD
BRANCH  22  28
ATOM     28  C   UNL     1      10.983  12.070  10.760  0.00  0.00    +0.001 A 
ATOM     29  C   UNL     1       9.630  11.732  10.680  0.00  0.00    +0.010 A 
ATOM     30  C   UNL     1      11.879  11.573   9.812  0.00  0.00    +0.010 A 
ATOM     32  C   UNL     1       9.176  10.900   9.656  0.00  0.00    +0.001 A 
ATOM     33  C   UNL     1      11.425  10.741   8.788  0.00  0.00    +0.001 A 
ATOM     34  C   UNL     1      10.073  10.404   8.710  0.00  0.00    +0.000 A 
ENDBRANCH  22  28
ENDBRANCH  15   8
BRANCH  14   7
ATOM      7  N   UNL     1      12.611   8.916  18.256  0.00  0.00    -0.182 NA
ATOM     36  H   UNL     1      11.888   9.634  18.127  0.00  0.00    +0.148 HD
BRANCH   7   1
ATOM      1  S   UNL     1      12.630   8.015  19.695  0.00  0.00    +0.059 S 
ATOM      4  O   UNL     1      13.999   7.676  20.035  0.00  0.00    -0.153 OA
ATOM      5  O   UNL     1      11.622   6.976  19.608  0.00  0.00    -0.153 OA
BRANCH   1  19
ATOM     19  C   UNL     1      12.053   9.197  20.875  0.00  0.00    +0.105 A 
ATOM     20  C   UNL     1      11.292   8.766  21.947  0.00  0.00    +0.030 A 
ATOM     21  C   UNL     1      12.374  10.533  20.704  0.00  0.00    +0.030 A 
ATOM     24  C   UNL     1      10.838   9.700  22.878  0.00  0.00    +0.025 A 
ATOM     25  C   UNL     1      11.919  11.467  21.635  0.00  0.00    +0.025 A 
ATOM     27  C   UNL     1      11.151  11.050  22.722  0.00  0.00    +0.033 A 
BRANCH  27  11
ATOM      6  O   UNL     1      12.168  11.717  25.477  0.00  0.00    -0.276 OA
ATOM     11  N   UNL     1      10.696  11.984  23.655  0.00  0.00    -0.286 N 
ATOM     31  C   UNL     1      11.209  12.252  24.931  0.00  0.00    +0.214 C 
ATOM     35  C   UNL     1      10.431  13.339  25.629  0.00  0.00    +0.109 C 
ATOM     38  H   UNL     1       9.890  12.532  23.362  0.00  0.00    +0.155 HD
ENDBRANCH  27  11
ENDBRANCH   1  19
ENDBRANCH   7   1
ENDBRANCH  14   7
TORSDOF 6
ENDMDL
MODEL 2
REMARK VINA RESULT:      -7.5     27.440     29.663
REMARK  Name = 11912195
REMARK  7 active torsions:
REMARK  status: ('A' for Active; 'I' for Inactive)
REMARK    1  A    between atoms: S_1  and  N_7
REMARK    2  A    between atoms: S_1  and  C_19
REMARK    3  A    between atoms: N_7  and  C_14
REMARK    4  A    between atoms: N_8  and  C_15
REMARK    5  A    between atoms: N_11  and  C_27
REMARK    6  A    between atoms: C_22  and  C_28
REMARK    7  A    between atoms: C_31  and  C_35
REMARK                            x       y       z     vdW  Elec       q    Type
REMARK                         _______ _______ _______ _____ _____    ______ ____
ROOT
ATOM      2  O   UNL     1      -9.157  -9.196  15.114  0.00  0.00    -0.370 OA
ATOM      3  O   UNL     1     -10.569  -7.405  17.251  0.00  0.00    -0.370 OA
ATOM     12  C   UNL     1     -10.611  -8.811  16.958  0.00  0.00    +0.170 C 
ATOM     13  C   UNL     1     -10.535  -8.961  15.451  0.00  0.00    +0.171 C 
ATOM     14  C   UNL     1      -9.358  -9.486  17.461  0.00  0.00    +0.133 C 
ATOM     15  C   UNL     1     -10.982  -7.618  14.922  0.00  0.00    +0.130 C 
ATOM     16  C   UNL     1      -8.383  -9.274  16.320  0.00  0.00    +0.183 C 
ATOM     17  C   UNL     1     -10.545  -6.666  16.020  0.00  0.00    +0.185 C 
ENDROOT
BRANCH  15   8
ATOM      8  N   UNL     1     -12.422  -7.596  14.784  0.00  0.00    -0.306 N 
ATOM      9  N   UNL     1     -12.319  -6.426  12.752  0.00  0.00    -0.214 NA
ATOM     10  N   UNL     1     -14.439  -7.061  13.708  0.00  0.00    -0.223 NA
ATOM     18  C   UNL     1     -13.080  -7.010  13.716  0.00  0.00    +0.216 A 
ATOM     22  C   UNL     1     -12.993  -5.866  11.726  0.00  0.00    +0.076 A 
ATOM     23  C   UNL     1     -15.047  -6.481  12.653  0.00  0.00    +0.116 A 
ATOM     26  C   UNL     1     -14.368  -5.862  11.622  0.00  0.00    +0.048 A 
ATOM     37  H   UNL     1     -12.995  -8.075  15.469  0.00  0.00    +0.149 HD
BRANCH  22  28
ATOM     28  C   UNL     1     -12.167  -5.252  10.713  0.00  0.00    +0.001 A 
ATOM     29  C   UNL     1     -11.420  -6.048   9.843  0.00  0.00    +0.010 A 
ATOM     30  C   UNL     1     -12.113  -3.862  10.601  0.00  0.00    +0.010 A 
ATOM     32  C   UNL     1     -10.621  -5.455   8.863  0.00  0.00    +0.001 A 
ATOM     33  C   UNL     1     -11.314  -3.269   9.622  0.00  0.00    +0.001 A 
ATOM     34  C   UNL     1     -10.569  -4.066   8.753  0.00  0.00    +0.000 A 
ENDBRANCH  22  28
ENDBRANCH  15   8
BRANCH  14   7
ATOM      7  N   UNL     1      -9.610 -10.937  17.636  0.00  0.00    -0.182 NA
ATOM     36  H   UNL     1     -10.523 -11.285  17.317  0.00  0.00    +0.148 HD
BRANCH   7   1
ATOM      1  S   UNL     1      -8.775 -11.801  18.836  0.00  0.00    +0.059 S 
ATOM      4  O   UNL     1      -9.179 -13.193  18.799  0.00  0.00    -0.153 OA
ATOM      5  O   UNL     1      -8.839 -11.055  20.078  0.00  0.00    -0.153 OA
BRANCH   1  19
ATOM     19  C   UNL     1      -7.106 -11.704  18.261  0.00  0.00    +0.105 A 
ATOM     20  C   UNL     1      -6.243 -10.790  18.842  0.00  0.00    +0.030 A 
ATOM     21  C   UNL     1      -6.693 -12.545  17.242  0.00  0.00    +0.030 A 
ATOM     24  C   UNL     1      -4.927 -10.715  18.388  0.00  0.00    +0.025 A 
ATOM     25  C   UNL     1      -5.376 -12.469  16.789  0.00  0.00    +0.025 A 
ATOM     27  C   UNL     1      -4.492 -11.554  17.362  0.00  0.00    +0.033 A 
BRANCH  27  11
ATOM      6  O   UNL     1      -3.362 -10.421  14.811  0.00  0.00    -0.276 OA
ATOM     11  N   UNL     1      -3.174 -11.478  16.909  0.00  0.00    -0.286 N 
ATOM     31  C   UNL     1      -2.702 -10.939  15.706  0.00  0.00    +0.214 C 
ATOM     35  C   UNL     1      -1.203 -11.051  15.593  0.00  0.00    +0.109 C 
ATOM     38  H   UNL     1      -2.476 -11.867  17.540  0.00  0.00    +0.155 HD
ENDBRANCH  27  11
ENDBRANCH   1  19
ENDBRANCH   7   1
ENDBRANCH  14   7
TORSDOF 6
ENDMDL
MODEL 3
REMARK VINA RESULT:      -7.4     26.943     30.696
REMARK  Name = 11912195
REMARK  7 active torsions:
REMARK  status: ('A' for Active; 'I' for Inactive)
REMARK    1  A    between atoms: S_1  and  N_7
REMARK    2  A    between atoms: S_1  and  C_19
REMARK    3  A    between atoms: N_7  and  C_14
REMARK    4  A    between atoms: N_8  and  C_15
REMARK    5  A    between atoms: N_11  and  C_27
REMARK    6  A    between atoms: C_22  and  C_28
REMARK    7  A    between atoms: C_31  and  C_35
REMARK                            x       y       z     vdW  Elec       q    Type
REMARK                         _______ _______ _______ _____ _____    ______ ____
ROOT
ATOM      2  O   UNL     1      -6.643 -11.772  10.746  0.00  0.00    -0.370 OA
ATOM      3  O   UNL     1      -5.441  -8.898  10.498  0.00  0.00    -0.370 OA
ATOM     12  C   UNL     1      -5.198 -10.133   9.804  0.00  0.00    +0.170 C 
ATOM     13  C   UNL     1      -5.305 -11.251  10.822  0.00  0.00    +0.171 C 
ATOM     14  C   UNL     1      -6.315 -10.412   8.828  0.00  0.00    +0.133 C 
ATOM     15  C   UNL     1      -5.085 -10.565  12.151  0.00  0.00    +0.130 C 
ATOM     16  C   UNL     1      -7.352 -11.099   9.696  0.00  0.00    +0.183 C 
ATOM     17  C   UNL     1      -5.621  -9.168  11.896  0.00  0.00    +0.185 C 
ENDROOT
BRANCH  15   8
ATOM      8  N   UNL     1      -3.671 -10.512  12.452  0.00  0.00    -0.306 N 
ATOM      9  N   UNL     1      -4.045 -10.670  14.763  0.00  0.00    -0.214 NA
ATOM     10  N   UNL     1      -1.808 -10.506  13.880  0.00  0.00    -0.223 NA
ATOM     18  C   UNL     1      -3.160 -10.565  13.737  0.00  0.00    +0.216 A 
ATOM     22  C   UNL     1      -3.512 -10.719  16.002  0.00  0.00    +0.076 A 
ATOM     23  C   UNL     1      -1.344 -10.560  15.145  0.00  0.00    +0.116 A 
ATOM     26  C   UNL     1      -2.157 -10.667  16.256  0.00  0.00    +0.048 A 
ATOM     37  H   UNL     1      -3.001 -10.488  11.692  0.00  0.00    +0.149 HD
BRANCH  22  28
ATOM     28  C   UNL     1      -4.469 -10.832  17.077  0.00  0.00    +0.001 A 
ATOM     29  C   UNL     1      -4.148 -11.556  18.226  0.00  0.00    +0.010 A 
ATOM     30  C   UNL     1      -5.717 -10.216  16.971  0.00  0.00    +0.010 A 
ATOM     32  C   UNL     1      -5.072 -11.665  19.266  0.00  0.00    +0.001 A 
ATOM     33  C   UNL     1      -6.642 -10.326  18.010  0.00  0.00    +0.001 A 
ATOM     34  C   UNL     1      -6.319 -11.050  19.158  0.00  0.00    +0.000 A 
ENDBRANCH  22  28
ENDBRANCH  15   8
BRANCH  14   7
ATOM      7  N   UNL     1      -5.841 -11.352   7.784  0.00  0.00    -0.182 NA
ATOM     36  H   UNL     1      -4.850 -11.622   7.827  0.00  0.00    +0.148 HD
BRANCH   7   1
ATOM      1  S   UNL     1      -6.652 -11.437   6.295  0.00  0.00    +0.059 S 
ATOM      4  O   UNL     1      -7.112 -10.114   5.918  0.00  0.00    -0.153 OA
ATOM      5  O   UNL     1      -7.583 -12.548   6.334  0.00  0.00    -0.153 OA
BRANCH   1  19
ATOM     19  C   UNL     1      -5.348 -11.895   5.193  0.00  0.00    +0.105 A 
ATOM     20  C   UNL     1      -4.055 -11.987   5.677  0.00  0.00    +0.030 A 
ATOM     21  C   UNL     1      -5.646 -12.154   3.866  0.00  0.00    +0.030 A 
ATOM     24  C   UNL     1      -3.027 -12.348   4.807  0.00  0.00    +0.025 A 
ATOM     25  C   UNL     1      -4.617 -12.516   2.996  0.00  0.00    +0.025 A 
ATOM     27  C   UNL     1      -3.307 -12.613   3.466  0.00  0.00    +0.033 A 
BRANCH  27  11
ATOM      6  O   UNL     1      -1.729 -15.169   3.263  0.00  0.00    -0.276 OA
ATOM     11  N   UNL     1      -2.278 -12.976   2.597  0.00  0.00    -0.286 N 
ATOM     31  C   UNL     1      -1.572 -14.185   2.547  0.00  0.00    +0.214 C 
ATOM     35  C   UNL     1      -0.531 -14.181   1.457  0.00  0.00    +0.109 C 
ATOM     38  H   UNL     1      -2.013 -12.264   1.918  0.00  0.00    +0.155 HD
ENDBRANCH  27  11
ENDBRANCH   1  19
ENDBRANCH   7   1
ENDBRANCH  14   7
TORSDOF 6
ENDMDL
MODEL 4
REMARK VINA RESULT:      -7.4      3.513      4.890
REMARK  Name = 11912195
REMARK  7 active torsions:
REMARK  status: ('A' for Active; 'I' for Inactive)
REMARK    1  A    between atoms: S_1  and  N_7
REMARK    2  A    between atoms: S_1  and  C_19
REMARK    3  A    between atoms: N_7  and  C_14
REMARK    4  A    between atoms: N_8  and  C_15
REMARK    5  A    between atoms: N_11  and  C_27
REMARK    6  A    between atoms: C_22  and  C_28
REMARK    7  A    between atoms: C_31  and  C_35
REMARK                            x       y       z     vdW  Elec       q    Type
REMARK                         _______ _______ _______ _____ _____    ______ ____
ROOT
ATOM      2  O   UNL     1      11.652   9.138  17.331  0.00  0.00    -0.370 OA
ATOM      3  O   UNL     1      14.702   8.648  16.856  0.00  0.00    -0.370 OA
ATOM     12  C   UNL     1      13.964   9.405  17.829  0.00  0.00    +0.170 C 
ATOM     13  C   UNL     1      12.772  10.015  17.118  0.00  0.00    +0.171 C 
ATOM     14  C   UNL     1      13.350   8.481  18.853  0.00  0.00    +0.133 C 
ATOM     15  C   UNL     1      13.169  10.011  15.660  0.00  0.00    +0.130 C 
ATOM     16  C   UNL     1      12.053   8.061  18.190  0.00  0.00    +0.183 C 
ATOM     17  C   UNL     1      14.087   8.806  15.568  0.00  0.00    +0.185 C 
ENDROOT
BRANCH  15   8
ATOM      8  N   UNL     1      13.897  11.220  15.343  0.00  0.00    -0.306 N 
ATOM      9  N   UNL     1      12.546  11.676  13.479  0.00  0.00    -0.214 NA
ATOM     10  N   UNL     1      14.355  13.149  14.086  0.00  0.00    -0.223 NA
ATOM     18  C   UNL     1      13.590  12.040  14.270  0.00  0.00    +0.216 A 
ATOM     22  C   UNL     1      12.275  12.497  12.443  0.00  0.00    +0.076 A 
ATOM     23  C   UNL     1      14.028  13.925  13.032  0.00  0.00    +0.116 A 
ATOM     26  C   UNL     1      12.989  13.646  12.168  0.00  0.00    +0.048 A 
ATOM     37  H   UNL     1      14.642  11.528  15.957  0.00  0.00    +0.149 HD
BRANCH  22  28
ATOM     28  C   UNL     1      11.163  12.094  11.616  0.00  0.00    +0.001 A 
ATOM     29  C   UNL     1      11.385  11.656  10.309  0.00  0.00    +0.010 A 
ATOM     30  C   UNL     1       9.862  12.140  12.120  0.00  0.00    +0.010 A 
ATOM     32  C   UNL     1      10.311  11.266   9.509  0.00  0.00    +0.001 A 
ATOM     33  C   UNL     1       8.787  11.749  11.320  0.00  0.00    +0.001 A 
ATOM     34  C   UNL     1       9.012  11.312  10.015  0.00  0.00    +0.000 A 
ENDBRANCH  22  28
ENDBRANCH  15   8
BRANCH  14   7
ATOM      7  N   UNL     1      13.052   9.238  20.093  0.00  0.00    -0.182 NA
ATOM     36  H   UNL     1      12.986  10.260  20.000  0.00  0.00    +0.148 HD
BRANCH   7   1
ATOM      1  S   UNL     1      13.449   8.574  21.604  0.00  0.00    +0.059 S 
ATOM      4  O   UNL     1      12.659   7.378  21.829  0.00  0.00    -0.153 OA
ATOM      5  O   UNL     1      13.462   9.635  22.592  0.00  0.00    -0.153 OA
BRANCH   1  19
ATOM     19  C   UNL     1      15.127   8.079  21.357  0.00  0.00    +0.105 A 
ATOM     20  C   UNL     1      15.401   6.766  21.015  0.00  0.00    +0.030 A 
ATOM     21  C   UNL     1      16.137   9.014  21.508  0.00  0.00    +0.030 A 
ATOM     24  C   UNL     1      16.726   6.376  20.820  0.00  0.00    +0.025 A 
ATOM     25  C   UNL     1      17.462   8.624  21.312  0.00  0.00    +0.025 A 
ATOM     27  C   UNL     1      17.756   7.304  20.968  0.00  0.00    +0.033 A 
BRANCH  27  11
ATOM      6  O   UNL     1      19.799   6.263  22.921  0.00  0.00    -0.276 OA
ATOM     11  N   UNL     1      19.082   6.913  20.772  0.00  0.00    -0.286 N 
ATOM     31  C   UNL     1      19.993   6.435  21.722  0.00  0.00    +0.214 C 
ATOM     35  C   UNL     1      21.332   6.121  21.104  0.00  0.00    +0.109 C 
ATOM     38  H   UNL     1      19.419   6.990  19.814  0.00  0.00    +0.155 HD
ENDBRANCH  27  11
ENDBRANCH   1  19
ENDBRANCH   7   1
ENDBRANCH  14   7
TORSDOF 6
ENDMDL
MODEL 5
REMARK VINA RESULT:      -7.3     27.613     30.907
REMARK  Name = 11912195
REMARK  7 active torsions:
REMARK  status: ('A' for Active; 'I' for Inactive)
REMARK    1  A    between atoms: S_1  and  N_7
REMARK    2  A    between atoms: S_1  and  C_19
REMARK    3  A    between atoms: N_7  and  C_14
REMARK    4  A    between atoms: N_8  and  C_15
REMARK    5  A    between atoms: N_11  and  C_27
REMARK    6  A    between atoms: C_22  and  C_28
REMARK    7  A    between atoms: C_31  and  C_35
REMARK                            x       y       z     vdW  Elec       q    Type
REMARK                         _______ _______ _______ _____ _____    ______ ____
ROOT
ATOM      2  O   UNL     1      -6.578 -10.512  16.530  0.00  0.00    -0.370 OA
ATOM      3  O   UNL     1      -4.967 -10.796  19.193  0.00  0.00    -0.370 OA
ATOM     12  C   UNL     1      -4.933 -11.497  17.938  0.00  0.00    +0.170 C 
ATOM     13  C   UNL     1      -6.361 -11.603  17.441  0.00  0.00    +0.171 C 
ATOM     14  C   UNL     1      -4.237 -10.660  16.892  0.00  0.00    +0.133 C 
ATOM     15  C   UNL     1      -7.201 -11.422  18.684  0.00  0.00    +0.130 C 
ATOM     16  C   UNL     1      -5.355  -9.778  16.372  0.00  0.00    +0.183 C 
ATOM     17  C   UNL     1      -6.332 -10.523  19.544  0.00  0.00    +0.185 C 
ENDROOT
BRANCH  15   8
ATOM      8  N   UNL     1      -7.400 -12.698  19.335  0.00  0.00    -0.306 N 
ATOM      9  N   UNL     1      -9.617 -12.183  19.909  0.00  0.00    -0.214 NA
ATOM     10  N   UNL     1      -8.642 -14.303  20.515  0.00  0.00    -0.223 NA
ATOM     18  C   UNL     1      -8.589 -13.073  19.938  0.00  0.00    +0.216 A 
ATOM     22  C   UNL     1     -10.760 -12.581  20.506  0.00  0.00    +0.076 A 
ATOM     23  C   UNL     1      -9.815 -14.636  21.092  0.00  0.00    +0.116 A 
ATOM     26  C   UNL     1     -10.919 -13.807  21.118  0.00  0.00    +0.048 A 
ATOM     37  H   UNL     1      -6.659 -13.389  19.315  0.00  0.00    +0.149 HD
BRANCH  22  28
ATOM     28  C   UNL     1     -11.838 -11.623  20.464  0.00  0.00    +0.001 A 
ATOM     29  C   UNL     1     -11.724 -10.474  19.679  0.00  0.00    +0.010 A 
ATOM     30  C   UNL     1     -13.000 -11.842  21.207  0.00  0.00    +0.010 A 
ATOM     32  C   UNL     1     -12.766  -9.547  19.638  0.00  0.00    +0.001 A 
ATOM     33  C   UNL     1     -14.042 -10.915  21.166  0.00  0.00    +0.001 A 
ATOM     34  C   UNL     1     -13.925  -9.767  20.381  0.00  0.00    +0.000 A 
ENDBRANCH  22  28
ENDBRANCH  15   8
BRANCH  14   7
ATOM      7  N   UNL     1      -3.746 -11.535  15.800  0.00  0.00    -0.182 NA
ATOM     36  H   UNL     1      -4.031 -12.522  15.841  0.00  0.00    +0.148 HD
BRANCH   7   1
ATOM      1  S   UNL     1      -2.330 -11.122  14.959  0.00  0.00    +0.059 S 
ATOM      4  O   UNL     1      -1.486 -12.294  14.830  0.00  0.00    -0.153 OA
ATOM      5  O   UNL     1      -1.795  -9.896  15.520  0.00  0.00    -0.153 OA
BRANCH   1  19
ATOM     19  C   UNL     1      -2.959 -10.724  13.356  0.00  0.00    +0.105 A 
ATOM     20  C   UNL     1      -2.080 -10.316  12.368  0.00  0.00    +0.030 A 
ATOM     21  C   UNL     1      -4.319 -10.830  13.119  0.00  0.00    +0.030 A 
ATOM     24  C   UNL     1      -2.578 -10.003  11.103  0.00  0.00    +0.025 A 
ATOM     25  C   UNL     1      -4.815 -10.517  11.853  0.00  0.00    +0.025 A 
ATOM     27  C   UNL     1      -3.945 -10.103  10.845  0.00  0.00    +0.033 A 
BRANCH  27  11
ATOM      6  O   UNL     1      -4.460 -11.863   8.457  0.00  0.00    -0.276 OA
ATOM     11  N   UNL     1      -4.441  -9.790   9.578  0.00  0.00    -0.286 N 
ATOM     31  C   UNL     1      -4.660 -10.654   8.497  0.00  0.00    +0.214 C 
ATOM     35  C   UNL     1      -5.207  -9.921   7.299  0.00  0.00    +0.109 C 
ATOM     38  H   UNL     1      -4.667  -8.808   9.432  0.00  0.00    +0.155 HD
ENDBRANCH  27  11
ENDBRANCH   1  19
ENDBRANCH   7   1
ENDBRANCH  14   7
TORSDOF 6
ENDMDL
MODEL 6
REMARK VINA RESULT:      -7.2      7.620     10.551
REMARK  Name = 11912195
REMARK  7 active torsions:
REMARK  status: ('A' for Active; 'I' for Inactive)
REMARK    1  A    between atoms: S_1  and  N_7
REMARK    2  A    between atoms: S_1  and  C_19
REMARK    3  A    between atoms: N_7  and  C_14
REMARK    4  A    between atoms: N_8  and  C_15
REMARK    5  A    between atoms: N_11  and  C_27
REMARK    6  A    between atoms: C_22  and  C_28
REMARK    7  A    between atoms: C_31  and  C_35
REMARK                            x       y       z     vdW  Elec       q    Type
REMARK                         _______ _______ _______ _____ _____    ______ ____
ROOT
ATOM      2  O   UNL     1      14.867  11.930  24.598  0.00  0.00    -0.370 OA
ATOM      3  O   UNL     1      12.110  13.394  24.440  0.00  0.00    -0.370 OA
ATOM     12  C   UNL     1      12.704  12.509  25.405  0.00  0.00    +0.170 C 
ATOM     13  C   UNL     1      13.503  11.475  24.637  0.00  0.00    +0.171 C 
ATOM     14  C   UNL     1      13.739  13.246  26.220  0.00  0.00    +0.133 C 
ATOM     15  C   UNL     1      12.904  11.499  23.249  0.00  0.00    +0.130 C 
ATOM     16  C   UNL     1      14.981  13.144  25.356  0.00  0.00    +0.183 C 
ATOM     17  C   UNL     1      12.428  12.934  23.118  0.00  0.00    +0.185 C 
ENDROOT
BRANCH  15   8
ATOM      8  N   UNL     1      11.781  10.590  23.180  0.00  0.00    -0.306 N 
ATOM      9  N   UNL     1      13.028   8.961  22.041  0.00  0.00    -0.214 NA
ATOM     10  N   UNL     1      10.712   8.585  22.591  0.00  0.00    -0.223 NA
ATOM     18  C   UNL     1      11.842   9.341  22.586  0.00  0.00    +0.216 A 
ATOM     22  C   UNL     1      13.052   7.738  21.470  0.00  0.00    +0.076 A 
ATOM     23  C   UNL     1      10.807   7.374  22.004  0.00  0.00    +0.116 A 
ATOM     26  C   UNL     1      11.962   6.894  21.421  0.00  0.00    +0.048 A 
ATOM     37  H   UNL     1      10.909  10.842  23.630  0.00  0.00    +0.149 HD
BRANCH  22  28
ATOM     28  C   UNL     1      14.320   7.354  20.898  0.00  0.00    +0.001 A 
ATOM     29  C   UNL     1      15.469   7.336  21.691  0.00  0.00    +0.010 A 
ATOM     30  C   UNL     1      14.402   6.999  19.550  0.00  0.00    +0.010 A 
ATOM     32  C   UNL     1      16.696   6.964  21.138  0.00  0.00    +0.001 A 
ATOM     33  C   UNL     1      15.628   6.627  18.998  0.00  0.00    +0.001 A 
ATOM     34  C   UNL     1      16.775   6.610  19.792  0.00  0.00    +0.000 A 
ENDBRANCH  22  28
ENDBRANCH  15   8
BRANCH  14   7
ATOM      7  N   UNL     1      13.965  12.532  27.500  0.00  0.00    -0.182 NA
ATOM     36  H   UNL     1      13.236  11.867  27.788  0.00  0.00    +0.148 HD
BRANCH   7   1
ATOM      1  S   UNL     1      14.962  13.224  28.687  0.00  0.00    +0.059 S 
ATOM      4  O   UNL     1      14.712  14.651  28.757  0.00  0.00    -0.153 OA
ATOM      5  O   UNL     1      16.313  12.729  28.508  0.00  0.00    -0.153 OA
BRANCH   1  19
ATOM     19  C   UNL     1      14.335  12.488  30.167  0.00  0.00    +0.105 A 
ATOM     20  C   UNL     1      13.443  13.200  30.950  0.00  0.00    +0.030 A 
ATOM     21  C   UNL     1      14.746  11.213  30.514  0.00  0.00    +0.030 A 
ATOM     24  C   UNL     1      12.948  12.619  32.117  0.00  0.00    +0.025 A 
ATOM     25  C   UNL     1      14.250  10.632  31.681  0.00  0.00    +0.025 A 
ATOM     27  C   UNL     1      13.351  11.335  32.483  0.00  0.00    +0.033 A 
BRANCH  27  11
ATOM      6  O   UNL     1      11.420   9.056  32.865  0.00  0.00    -0.276 OA
ATOM     11  N   UNL     1      12.854  10.754  33.651  0.00  0.00    -0.286 N 
ATOM     31  C   UNL     1      11.950   9.690  33.771  0.00  0.00    +0.214 C 
ATOM     35  C   UNL     1      11.665   9.359  35.214  0.00  0.00    +0.109 C 
ATOM     38  H   UNL     1      13.197  11.162  34.518  0.00  0.00    +0.155 HD
ENDBRANCH  27  11
ENDBRANCH   1  19
ENDBRANCH   7   1
ENDBRANCH  14   7
TORSDOF 6
ENDMDL
MODEL 7
REMARK VINA RESULT:      -7.2     27.164     29.342
REMARK  Name = 11912195
REMARK  7 active torsions:
REMARK  status: ('A' for Active; 'I' for Inactive)
REMARK    1  A    between atoms: S_1  and  N_7
REMARK    2  A    between atoms: S_1  and  C_19
REMARK    3  A    between atoms: N_7  and  C_14
REMARK    4  A    between atoms: N_8  and  C_15
REMARK    5  A    between atoms: N_11  and  C_27
REMARK    6  A    between atoms: C_22  and  C_28
REMARK    7  A    between atoms: C_31  and  C_35
REMARK                            x       y       z     vdW  Elec       q    Type
REMARK                         _______ _______ _______ _____ _____    ______ ____
ROOT
ATOM      2  O   UNL     1      -7.387 -12.048  16.046  0.00  0.00    -0.370 OA
ATOM      3  O   UNL     1      -5.757 -13.183  18.458  0.00  0.00    -0.370 OA
ATOM     12  C   UNL     1      -6.405 -11.924  18.209  0.00  0.00    +0.170 C 
ATOM     13  C   UNL     1      -6.211 -11.599  16.741  0.00  0.00    +0.171 C 
ATOM     14  C   UNL     1      -7.899 -12.068  18.363  0.00  0.00    +0.133 C 
ATOM     15  C   UNL     1      -5.014 -12.427  16.333  0.00  0.00    +0.130 C 
ATOM     16  C   UNL     1      -8.330 -12.564  16.997  0.00  0.00    +0.183 C 
ATOM     17  C   UNL     1      -5.110 -13.628  17.256  0.00  0.00    +0.185 C 
ENDROOT
BRANCH  15   8
ATOM      8  N   UNL     1      -3.795 -11.693  16.591  0.00  0.00    -0.306 N 
ATOM      9  N   UNL     1      -3.436 -11.273  14.310  0.00  0.00    -0.214 NA
ATOM     10  N   UNL     1      -1.895 -10.459  15.976  0.00  0.00    -0.223 NA
ATOM     18  C   UNL     1      -3.019 -11.125  15.596  0.00  0.00    +0.216 A 
ATOM     22  C   UNL     1      -2.655 -10.707  13.366  0.00  0.00    +0.076 A 
ATOM     23  C   UNL     1      -1.162  -9.918  14.981  0.00  0.00    +0.116 A 
ATOM     26  C   UNL     1      -1.497 -10.011  13.645  0.00  0.00    +0.048 A 
ATOM     37  H   UNL     1      -3.505 -11.531  17.548  0.00  0.00    +0.149 HD
BRANCH  22  28
ATOM     28  C   UNL     1      -3.116 -10.875  12.008  0.00  0.00    +0.001 A 
ATOM     29  C   UNL     1      -3.273  -9.763  11.179  0.00  0.00    +0.010 A 
ATOM     30  C   UNL     1      -3.406 -12.150  11.520  0.00  0.00    +0.010 A 
ATOM     32  C   UNL     1      -3.718  -9.925   9.867  0.00  0.00    +0.001 A 
ATOM     33  C   UNL     1      -3.851 -12.313  10.207  0.00  0.00    +0.001 A 
ATOM     34  C   UNL     1      -4.007 -11.200   9.381  0.00  0.00    +0.000 A 
ENDBRANCH  22  28
ENDBRANCH  15   8
BRANCH  14   7
ATOM      7  N   UNL     1      -8.503 -10.738  18.622  0.00  0.00    -0.182 NA
ATOM     36  H   UNL     1      -7.858  -9.989  18.901  0.00  0.00    +0.148 HD
BRANCH   7   1
ATOM      1  S   UNL     1     -10.137 -10.626  19.071  0.00  0.00    +0.059 S 
ATOM      4  O   UNL     1     -10.230 -10.167  20.444  0.00  0.00    -0.153 OA
ATOM      5  O   UNL     1     -10.818 -11.838  18.659  0.00  0.00    -0.153 OA
BRANCH   1  19
ATOM     19  C   UNL     1     -10.717  -9.327  18.022  0.00  0.00    +0.105 A 
ATOM     20  C   UNL     1      -9.816  -8.391  17.545  0.00  0.00    +0.030 A 
ATOM     21  C   UNL     1     -12.061  -9.270  17.697  0.00  0.00    +0.030 A 
ATOM     24  C   UNL     1     -10.274  -7.366  16.717  0.00  0.00    +0.025 A 
ATOM     25  C   UNL     1     -12.519  -8.245  16.869  0.00  0.00    +0.025 A 
ATOM     27  C   UNL     1     -11.625  -7.293  16.379  0.00  0.00    +0.033 A 
BRANCH  27  11
ATOM      6  O   UNL     1     -12.127  -7.255  13.410  0.00  0.00    -0.276 OA
ATOM     11  N   UNL     1     -12.083  -6.267  15.550  0.00  0.00    -0.286 N 
ATOM     31  C   UNL     1     -12.297  -6.304  14.166  0.00  0.00    +0.214 C 
ATOM     35  C   UNL     1     -12.797  -4.982  13.642  0.00  0.00    +0.109 C 
ATOM     38  H   UNL     1     -12.281  -5.386  16.020  0.00  0.00    +0.155 HD
ENDBRANCH  27  11
ENDBRANCH   1  19
ENDBRANCH   7   1
ENDBRANCH  14   7
TORSDOF 6
ENDMDL
MODEL 8
REMARK VINA RESULT:      -7.1     12.119     16.338
REMARK  Name = 11912195
REMARK  7 active torsions:
REMARK  status: ('A' for Active; 'I' for Inactive)
REMARK    1  A    between atoms: S_1  and  N_7
REMARK    2  A    between atoms: S_1  and  C_19
REMARK    3  A    between atoms: N_7  and  C_14
REMARK    4  A    between atoms: N_8  and  C_15
REMARK    5  A    between atoms: N_11  and  C_27
REMARK    6  A    between atoms: C_22  and  C_28
REMARK    7  A    between atoms: C_31  and  C_35
REMARK                            x       y       z     vdW  Elec       q    Type
REMARK                         _______ _______ _______ _____ _____    ______ ____
ROOT
ATOM      2  O   UNL     1      13.785   7.750   6.465  0.00  0.00    -0.370 OA
ATOM      3  O   UNL     1      11.989   9.302   4.432  0.00  0.00    -0.370 OA
ATOM     12  C   UNL     1      12.290   7.909   4.621  0.00  0.00    +0.170 C 
ATOM     13  C   UNL     1      13.747   7.813   5.029  0.00  0.00    +0.171 C 
ATOM     14  C   UNL     1      11.535   7.369   5.811  0.00  0.00    +0.133 C 
ATOM     15  C   UNL     1      14.353   9.110   4.546  0.00  0.00    +0.130 C 
ATOM     16  C   UNL     1      12.443   7.726   6.972  0.00  0.00    +0.183 C 
ATOM     17  C   UNL     1      13.184  10.074   4.626  0.00  0.00    +0.185 C 
ENDROOT
BRANCH  15   8
ATOM      8  N   UNL     1      14.794   8.970   3.175  0.00  0.00    -0.306 N 
ATOM      9  N   UNL     1      17.004   8.513   3.817  0.00  0.00    -0.214 NA
ATOM     10  N   UNL     1      16.378   8.569   1.490  0.00  0.00    -0.223 NA
ATOM     18  C   UNL     1      16.098   8.675   2.817  0.00  0.00    +0.216 A 
ATOM     22  C   UNL     1      18.265   8.226   3.431  0.00  0.00    +0.076 A 
ATOM     23  C   UNL     1      17.658   8.281   1.176  0.00  0.00    +0.116 A 
ATOM     26  C   UNL     1      18.654   8.097   2.114  0.00  0.00    +0.048 A 
ATOM     37  H   UNL     1      14.115   9.036   2.425  0.00  0.00    +0.149 HD
BRANCH  22  28
ATOM     28  C   UNL     1      19.212   8.057   4.508  0.00  0.00    +0.001 A 
ATOM     29  C   UNL     1      20.385   7.330   4.301  0.00  0.00    +0.010 A 
ATOM     30  C   UNL     1      18.957   8.620   5.760  0.00  0.00    +0.010 A 
ATOM     32  C   UNL     1      21.300   7.166   5.342  0.00  0.00    +0.001 A 
ATOM     33  C   UNL     1      19.872   8.456   6.801  0.00  0.00    +0.001 A 
ATOM     34  C   UNL     1      21.044   7.729   6.591  0.00  0.00    +0.000 A 
ENDBRANCH  22  28
ENDBRANCH  15   8
BRANCH  14   7
ATOM      7  N   UNL     1      11.424   5.894   5.704  0.00  0.00    -0.182 NA
ATOM     36  H   UNL     1      12.308   5.371   5.668  0.00  0.00    +0.148 HD
BRANCH   7   1
ATOM      1  S   UNL     1      10.028   5.200   5.031  0.00  0.00    +0.059 S 
ATOM      4  O   UNL     1       8.971   6.193   4.981  0.00  0.00    -0.153 OA
ATOM      5  O   UNL     1       9.793   3.917   5.665  0.00  0.00    -0.153 OA
BRANCH   1  19
ATOM     19  C   UNL     1      10.545   4.871   3.373  0.00  0.00    +0.105 A 
ATOM     20  C   UNL     1      10.220   5.770   2.373  0.00  0.00    +0.030 A 
ATOM     21  C   UNL     1      11.267   3.720   3.107  0.00  0.00    +0.030 A 
ATOM     24  C   UNL     1      10.629   5.509   1.065  0.00  0.00    +0.025 A 
ATOM     25  C   UNL     1      11.676   3.460   1.799  0.00  0.00    +0.025 A 
ATOM     27  C   UNL     1      11.356   4.355   0.778  0.00  0.00    +0.033 A 
BRANCH  27  11
ATOM      6  O   UNL     1      14.077   3.684  -0.324  0.00  0.00    -0.276 OA
ATOM     11  N   UNL     1      11.766   4.096  -0.531  0.00  0.00    -0.286 N 
ATOM     31  C   UNL     1      13.053   3.789  -0.991  0.00  0.00    +0.214 C 
ATOM     35  C   UNL     1      13.079   3.578  -2.483  0.00  0.00    +0.109 C 
ATOM     38  H   UNL     1      11.029   4.139  -1.232  0.00  0.00    +0.155 HD
ENDBRANCH  27  11
ENDBRANCH   1  19
ENDBRANCH   7   1
ENDBRANCH  14   7
TORSDOF 6
ENDMDL
MODEL 9
REMARK VINA RESULT:      -7.0     11.530     15.572
REMARK  Name = 11912195
REMARK  7 active torsions:
REMARK  status: ('A' for Active; 'I' for Inactive)
REMARK    1  A    between atoms: S_1  and  N_7
REMARK    2  A    between atoms: S_1  and  C_19
REMARK    3  A    between atoms: N_7  and  C_14
REMARK    4  A    between atoms: N_8  and  C_15
REMARK    5  A    between atoms: N_11  and  C_27
REMARK    6  A    between atoms: C_22  and  C_28
REMARK    7  A    between atoms: C_31  and  C_35
REMARK                            x       y       z     vdW  Elec       q    Type
REMARK                         _______ _______ _______ _____ _____    ______ ____
ROOT
ATOM      2  O   UNL     1       9.701   7.171   2.923  0.00  0.00    -0.370 OA
ATOM      3  O   UNL     1      10.641   4.649   4.511  0.00  0.00    -0.370 OA
ATOM     12  C   UNL     1      10.841   6.061   4.692  0.00  0.00    +0.170 C 
ATOM     13  C   UNL     1      10.993   6.676   3.314  0.00  0.00    +0.171 C 
ATOM     14  C   UNL     1       9.590   6.698   5.246  0.00  0.00    +0.133 C 
ATOM     15  C   UNL     1      11.397   5.516   2.434  0.00  0.00    +0.130 C 
ATOM     16  C   UNL     1       8.772   6.970   3.998  0.00  0.00    +0.183 C 
ATOM     17  C   UNL     1      10.731   4.334   3.113  0.00  0.00    +0.185 C 
ENDROOT
BRANCH  15   8
ATOM      8  N   UNL     1      12.835   5.360   2.452  0.00  0.00    -0.306 N 
ATOM      9  N   UNL     1      12.884   4.532   0.257  0.00  0.00    -0.214 NA
ATOM     10  N   UNL     1      14.915   4.780   1.531  0.00  0.00    -0.223 NA
ATOM     18  C   UNL     1      13.567   4.876   1.381  0.00  0.00    +0.216 A 
ATOM     22  C   UNL     1      13.629   4.064  -0.767  0.00  0.00    +0.076 A 
ATOM     23  C   UNL     1      15.597   4.305   0.468  0.00  0.00    +0.116 A 
ATOM     26  C   UNL     1      15.001   3.928  -0.718  0.00  0.00    +0.048 A 
ATOM     37  H   UNL     1      13.358   5.664   3.265  0.00  0.00    +0.149 HD
BRANCH  22  28
ATOM     28  C   UNL     1      12.885   3.705  -1.951  0.00  0.00    +0.001 A 
ATOM     29  C   UNL     1      13.422   3.952  -3.216  0.00  0.00    +0.010 A 
ATOM     30  C   UNL     1      11.628   3.110  -1.835  0.00  0.00    +0.010 A 
ATOM     32  C   UNL     1      12.703   3.605  -4.361  0.00  0.00    +0.001 A 
ATOM     33  C   UNL     1      10.909   2.763  -2.980  0.00  0.00    +0.001 A 
ATOM     34  C   UNL     1      11.447   3.011  -4.243  0.00  0.00    +0.000 A 
ENDBRANCH  22  28
ENDBRANCH  15   8
BRANCH  14   7
ATOM      7  N   UNL     1       9.934   7.982   5.904  0.00  0.00    -0.182 NA
ATOM     36  H   UNL     1      10.068   8.791   5.285  0.00  0.00    +0.148 HD
BRANCH   7   1
ATOM      1  S   UNL     1      10.690   7.975   7.424  0.00  0.00    +0.059 S 
ATOM      4  O   UNL     1      10.512   6.677   8.046  0.00  0.00    -0.153 OA
ATOM      5  O   UNL     1      10.318   9.182   8.136  0.00  0.00    -0.153 OA
BRANCH   1  19
ATOM     19  C   UNL     1      12.395   8.140   6.986  0.00  0.00    +0.105 A 
ATOM     20  C   UNL     1      12.890   9.388   6.654  0.00  0.00    +0.030 A 
ATOM     21  C   UNL     1      13.203   7.015   6.985  0.00  0.00    +0.030 A 
ATOM     24  C   UNL     1      14.235   9.517   6.308  0.00  0.00    +0.025 A 
ATOM     25  C   UNL     1      14.548   7.145   6.640  0.00  0.00    +0.025 A 
ATOM     27  C   UNL     1      15.064   8.396   6.301  0.00  0.00    +0.033 A 
BRANCH  27  11
ATOM      6  O   UNL     1      16.468   7.913   3.681  0.00  0.00    -0.276 OA
ATOM     11  N   UNL     1      16.411   8.526   5.957  0.00  0.00    -0.286 N 
ATOM     31  C   UNL     1      17.014   8.285   4.715  0.00  0.00    +0.214 C 
ATOM     35  C   UNL     1      18.498   8.544   4.755  0.00  0.00    +0.109 C 
ATOM     38  H   UNL     1      17.023   8.834   6.709  0.00  0.00    +0.155 HD
ENDBRANCH  27  11
ENDBRANCH   1  19
ENDBRANCH   7   1
ENDBRANCH  14   7
TORSDOF 6
ENDMDL
MODEL 10
REMARK VINA RESULT:      -7.0     11.943     16.925
REMARK  Name = 11912195
REMARK  7 active torsions:
REMARK  status: ('A' for Active; 'I' for Inactive)
REMARK    1  A    between atoms: S_1  and  N_7
REMARK    2  A    between atoms: S_1  and  C_19
REMARK    3  A    between atoms: N_7  and  C_14
REMARK    4  A    between atoms: N_8  and  C_15
REMARK    5  A    between atoms: N_11  and  C_27
REMARK    6  A    between atoms: C_22  and  C_28
REMARK    7  A    between atoms: C_31  and  C_35
REMARK                            x       y       z     vdW  Elec       q    Type
REMARK                         _______ _______ _______ _____ _____    ______ ____
ROOT
ATOM      2  O   UNL     1       5.145   9.771   0.909  0.00  0.00    -0.370 OA
ATOM      3  O   UNL     1       4.315  12.197   2.697  0.00  0.00    -0.370 OA
ATOM     12  C   UNL     1       4.840  10.891   2.987  0.00  0.00    +0.170 C 
ATOM     13  C   UNL     1       4.218   9.924   1.998  0.00  0.00    +0.171 C 
ATOM     14  C   UNL     1       6.316  10.841   2.675  0.00  0.00    +0.133 C 
ATOM     15  C   UNL     1       2.968  10.630   1.527  0.00  0.00    +0.130 C 
ATOM     16  C   UNL     1       6.334  10.523   1.193  0.00  0.00    +0.183 C 
ATOM     17  C   UNL     1       3.351  12.094   1.638  0.00  0.00    +0.185 C 
ENDROOT
BRANCH  15   8
ATOM      8  N   UNL     1       1.867  10.331   2.415  0.00  0.00    -0.306 N 
ATOM      9  N   UNL     1       0.299  10.386   0.669  0.00  0.00    -0.214 NA
ATOM     10  N   UNL     1      -0.386   9.925   2.933  0.00  0.00    -0.223 NA
ATOM     18  C   UNL     1       0.554  10.210   1.993  0.00  0.00    +0.216 A 
ATOM     22  C   UNL     1      -0.991  10.262   0.293  0.00  0.00    +0.076 A 
ATOM     23  C   UNL     1      -1.655   9.814   2.488  0.00  0.00    +0.116 A 
ATOM     26  C   UNL     1      -2.020   9.974   1.166  0.00  0.00    +0.048 A 
ATOM     37  H   UNL     1       2.053  10.145   3.394  0.00  0.00    +0.149 HD
BRANCH  22  28
ATOM     28  C   UNL     1      -1.239  10.452  -1.116  0.00  0.00    +0.001 A 
ATOM     29  C   UNL     1      -2.547  10.437  -1.605  0.00  0.00    +0.010 A 
ATOM     30  C   UNL     1      -0.172  10.650  -1.995  0.00  0.00    +0.010 A 
ATOM     32  C   UNL     1      -2.787  10.621  -2.967  0.00  0.00    +0.001 A 
ATOM     33  C   UNL     1      -0.413  10.834  -3.357  0.00  0.00    +0.001 A 
ATOM     34  C   UNL     1      -1.721  10.819  -3.843  0.00  0.00    +0.000 A 
ENDBRANCH  22  28
ENDBRANCH  15   8
BRANCH  14   7
ATOM      7  N   UNL     1       6.947   9.730   3.429  0.00  0.00    -0.182 NA
ATOM     36  H   UNL     1       6.318   9.142   3.989  0.00  0.00    +0.148 HD
BRANCH   7   1
ATOM      1  S   UNL     1       8.586   9.829   3.863  0.00  0.00    +0.059 S 
ATOM      4  O   UNL     1       8.886  11.176   4.313  0.00  0.00    -0.153 OA
ATOM      5  O   UNL     1       9.384   9.215   2.820  0.00  0.00    -0.153 OA
BRANCH   1  19
ATOM     19  C   UNL     1       8.658   8.758   5.267  0.00  0.00    +0.105 A 
ATOM     20  C   UNL     1       9.012   9.280   6.499  0.00  0.00    +0.030 A 
ATOM     21  C   UNL     1       8.356   7.416   5.108  0.00  0.00    +0.030 A 
ATOM     24  C   UNL     1       9.068   8.434   7.606  0.00  0.00    +0.025 A 
ATOM     25  C   UNL     1       8.412   6.570   6.216  0.00  0.00    +0.025 A 
ATOM     27  C   UNL     1       8.768   7.079   7.465  0.00  0.00    +0.033 A 
BRANCH  27  11
ATOM      6  O   UNL     1      10.954   5.238   8.413  0.00  0.00    -0.276 OA
ATOM     11  N   UNL     1       8.824   6.233   8.574  0.00  0.00    -0.286 N 
ATOM     31  C   UNL     1       9.872   5.392   8.969  0.00  0.00    +0.214 C 
ATOM     35  C   UNL     1       9.538   4.637  10.231  0.00  0.00    +0.109 C 
ATOM     38  H   UNL     1       7.993   6.235   9.162  0.00  0.00    +0.155 HD
ENDBRANCH  27  11
ENDBRANCH   1  19
ENDBRANCH   7   1
ENDBRANCH  14   7
TORSDOF 6
ENDMDL
