MODEL 1
REMARK VINA RESULT:      -7.3      0.000      0.000
REMARK  Name = 75536602
REMARK  8 active torsions:
REMARK  status: ('A' for Active; 'I' for Inactive)
REMARK    1  A    between atoms: O_3  and  C_9
REMARK    2  A    between atoms: O_5  and  C_16
REMARK    3  A    between atoms: N_6  and  C_8
REMARK    4  A    between atoms: N_6  and  C_13
REMARK    5  A    between atoms: N_7  and  C_12
REMARK    6  A    between atoms: C_10  and  C_12
REMARK    7  A    between atoms: C_13  and  C_14
REMARK    8  A    between atoms: C_15  and  C_18
REMARK                            x       y       z     vdW  Elec       q    Type
REMARK                         _______ _______ _______ _____ _____    ______ ____
ROOT
ATOM      2  O   UNL     1      10.570   8.526  20.045  0.00  0.00    -0.371 OA
ATOM      8  C   UNL     1      12.445   7.226  19.385  0.00  0.00    +0.111 C 
ATOM      9  C   UNL     1      12.297   7.150  20.894  0.00  0.00    +0.164 C 
ATOM     10  C   UNL     1      10.838   7.549  21.065  0.00  0.00    +0.165 C 
ATOM     11  C   UNL     1      11.620   8.461  19.064  0.00  0.00    +0.181 C 
ENDROOT
BRANCH   9   3
ATOM      3  O   UNL     1      12.554   5.855  21.403  0.00  0.00    -0.388 OA
ATOM     26  H   UNL     1      13.517   5.734  21.457  0.00  0.00    +0.210 HD
ENDBRANCH   9   3
BRANCH   8   6
ATOM      6  N   UNL     1      13.825   7.336  18.939  0.00  0.00    -0.305 NA
ATOM     25  H   UNL     1      13.857   7.905  18.092  0.00  0.00    +0.123 HD
BRANCH   6  13
ATOM     13  C   UNL     1      14.659   7.960  19.958  0.00  0.00    +0.120 C 
BRANCH  13  14
ATOM     14  C   UNL     1      16.007   7.298  20.063  0.00  0.00    +0.008 A 
ATOM     16  C   UNL     1      16.877   7.613  21.107  0.00  0.00    +0.121 A 
ATOM     17  C   UNL     1      16.382   6.360  19.102  0.00  0.00    +0.008 A 
ATOM     19  C   UNL     1      18.122   6.990  21.189  0.00  0.00    +0.046 A 
ATOM     20  C   UNL     1      17.628   5.737  19.183  0.00  0.00    +0.001 A 
ATOM     21  C   UNL     1      18.498   6.052  20.227  0.00  0.00    +0.004 A 
BRANCH  16   5
ATOM      5  O   UNL     1      16.527   8.527  22.053  0.00  0.00    -0.506 OA
ATOM     28  H   UNL     1      16.185   9.325  21.614  0.00  0.00    +0.292 HD
ENDBRANCH  16   5
ENDBRANCH  13  14
ENDBRANCH   6  13
ENDBRANCH   8   6
BRANCH  10  12
ATOM     12  C   UNL     1      10.532   8.136  22.431  0.00  0.00    +0.138 C 
BRANCH  12   7
ATOM      4  O   UNL     1      12.612  10.079  22.808  0.00  0.00    -0.270 OA
ATOM      7  N   UNL     1      10.393   9.562  22.368  0.00  0.00    -0.308 N 
ATOM     15  C   UNL     1      11.461  10.432  22.564  0.00  0.00    +0.251 C 
ATOM     27  H   UNL     1       9.464   9.926  22.183  0.00  0.00    +0.149 HD
BRANCH  15  18
ATOM      1  S   UNL     1      10.573  12.683  23.892  0.00  0.00    -0.092 S 
ATOM     18  C   UNL     1      11.146  11.883  22.491  0.00  0.00    +0.074 A 
ATOM     22  C   UNL     1      11.247  12.736  21.414  0.00  0.00    +0.021 A 
ATOM     23  C   UNL     1      10.849  14.063  21.744  0.00  0.00    +0.008 A 
ATOM     24  C   UNL     1      10.458  14.175  23.060  0.00  0.00    +0.046 A 
ENDBRANCH  15  18
ENDBRANCH  12   7
ENDBRANCH  10  12
TORSDOF 8
ENDMDL
MODEL 2
REMARK VINA RESULT:      -6.8     26.776     29.723
REMARK  Name = 75536602
REMARK  8 active torsions:
REMARK  status: ('A' for Active; 'I' for Inactive)
REMARK    1  A    between atoms: O_3  and  C_9
REMARK    2  A    between atoms: O_5  and  C_16
REMARK    3  A    between atoms: N_6  and  C_8
REMARK    4  A    between atoms: N_6  and  C_13
REMARK    5  A    between atoms: N_7  and  C_12
REMARK    6  A    between atoms: C_10  and  C_12
REMARK    7  A    between atoms: C_13  and  C_14
REMARK    8  A    between atoms: C_15  and  C_18
REMARK                            x       y       z     vdW  Elec       q    Type
REMARK                         _______ _______ _______ _____ _____    ______ ____
ROOT
ATOM      2  O   UNL     1     -18.108   3.848  25.783  0.00  0.00    -0.371 OA
ATOM      8  C   UNL     1     -16.742   4.818  24.100  0.00  0.00    +0.111 C 
ATOM      9  C   UNL     1     -16.334   3.368  24.293  0.00  0.00    +0.164 C 
ATOM     10  C   UNL     1     -17.583   2.799  24.952  0.00  0.00    +0.165 C 
ATOM     11  C   UNL     1     -17.502   5.091  25.386  0.00  0.00    +0.181 C 
ENDROOT
BRANCH   9   3
ATOM      3  O   UNL     1     -16.037   2.717  23.073  0.00  0.00    -0.388 OA
ATOM     26  H   UNL     1     -15.185   2.260  23.172  0.00  0.00    +0.210 HD
ENDBRANCH   9   3
BRANCH   8   6
ATOM      6  N   UNL     1     -15.617   5.719  23.905  0.00  0.00    -0.305 NA
ATOM     25  H   UNL     1     -14.751   5.180  23.922  0.00  0.00    +0.123 HD
BRANCH   6  13
ATOM     13  C   UNL     1     -15.715   6.413  22.627  0.00  0.00    +0.120 C 
BRANCH  13  14
ATOM     14  C   UNL     1     -14.359   6.713  22.046  0.00  0.00    +0.008 A 
ATOM     16  C   UNL     1     -13.459   5.685  21.770  0.00  0.00    +0.121 A 
ATOM     17  C   UNL     1     -14.008   8.037  21.784  0.00  0.00    +0.008 A 
ATOM     19  C   UNL     1     -12.206   5.980  21.232  0.00  0.00    +0.046 A 
ATOM     20  C   UNL     1     -12.755   8.333  21.246  0.00  0.00    +0.001 A 
ATOM     21  C   UNL     1     -11.854   7.304  20.970  0.00  0.00    +0.004 A 
BRANCH  16   5
ATOM      5  O   UNL     1     -13.786   4.387  22.020  0.00  0.00    -0.506 OA
ATOM     28  H   UNL     1     -13.202   4.040  22.718  0.00  0.00    +0.292 HD
ENDBRANCH  16   5
ENDBRANCH  13  14
ENDBRANCH   6  13
ENDBRANCH   8   6
BRANCH  10  12
ATOM     12  C   UNL     1     -17.308   1.566  25.795  0.00  0.00    +0.138 C 
BRANCH  12   7
ATOM      4  O   UNL     1     -17.303   0.386  28.412  0.00  0.00    -0.270 OA
ATOM      7  N   UNL     1     -16.396   1.856  26.863  0.00  0.00    -0.308 N 
ATOM     15  C   UNL     1     -16.468   1.233  28.105  0.00  0.00    +0.251 C 
ATOM     27  H   UNL     1     -15.686   2.557  26.683  0.00  0.00    +0.149 HD
BRANCH  15  18
ATOM      1  S   UNL     1     -14.695   0.477  30.081  0.00  0.00    -0.092 S 
ATOM     18  C   UNL     1     -15.464   1.663  29.113  0.00  0.00    +0.074 A 
ATOM     22  C   UNL     1     -15.030   2.935  29.412  0.00  0.00    +0.021 A 
ATOM     23  C   UNL     1     -14.052   2.937  30.448  0.00  0.00    +0.008 A 
ATOM     24  C   UNL     1     -13.776   1.666  30.902  0.00  0.00    +0.046 A 
ENDBRANCH  15  18
ENDBRANCH  12   7
ENDBRANCH  10  12
TORSDOF 8
ENDMDL
MODEL 3
REMARK VINA RESULT:      -6.7      3.215      7.176
REMARK  Name = 75536602
REMARK  8 active torsions:
REMARK  status: ('A' for Active; 'I' for Inactive)
REMARK    1  A    between atoms: O_3  and  C_9
REMARK    2  A    between atoms: O_5  and  C_16
REMARK    3  A    between atoms: N_6  and  C_8
REMARK    4  A    between atoms: N_6  and  C_13
REMARK    5  A    between atoms: N_7  and  C_12
REMARK    6  A    between atoms: C_10  and  C_12
REMARK    7  A    between atoms: C_13  and  C_14
REMARK    8  A    between atoms: C_15  and  C_18
REMARK                            x       y       z     vdW  Elec       q    Type
REMARK                         _______ _______ _______ _____ _____    ______ ____
ROOT
ATOM      2  O   UNL     1      13.298   8.139  21.742  0.00  0.00    -0.371 OA
ATOM      8  C   UNL     1      11.293   8.978  22.699  0.00  0.00    +0.111 C 
ATOM      9  C   UNL     1      10.944   8.085  21.523  0.00  0.00    +0.164 C 
ATOM     10  C   UNL     1      12.216   7.259  21.393  0.00  0.00    +0.165 C 
ATOM     11  C   UNL     1      12.755   9.285  22.420  0.00  0.00    +0.181 C 
ENDROOT
BRANCH   9   3
ATOM      3  O   UNL     1       9.811   7.274  21.770  0.00  0.00    -0.388 OA
ATOM     26  H   UNL     1      10.119   6.385  22.013  0.00  0.00    +0.210 HD
ENDBRANCH   9   3
BRANCH   8   6
ATOM      6  N   UNL     1      10.471  10.174  22.790  0.00  0.00    -0.305 NA
ATOM     25  H   UNL     1       9.548   9.917  23.143  0.00  0.00    +0.123 HD
BRANCH   6  13
ATOM     13  C   UNL     1      11.065  11.154  23.690  0.00  0.00    +0.120 C 
BRANCH  13  14
ATOM     14  C   UNL     1      10.717  12.563  23.293  0.00  0.00    +0.008 A 
ATOM     16  C   UNL     1      10.992  13.031  22.008  0.00  0.00    +0.121 A 
ATOM     17  C   UNL     1      10.113  13.404  24.227  0.00  0.00    +0.008 A 
ATOM     19  C   UNL     1      10.663  14.340  21.657  0.00  0.00    +0.046 A 
ATOM     20  C   UNL     1       9.784  14.714  23.876  0.00  0.00    +0.001 A 
ATOM     21  C   UNL     1      10.059  15.182  22.591  0.00  0.00    +0.004 A 
BRANCH  16   5
ATOM      5  O   UNL     1      11.583  12.223  21.085  0.00  0.00    -0.506 OA
ATOM     28  H   UNL     1      10.915  11.615  20.720  0.00  0.00    +0.292 HD
ENDBRANCH  16   5
ENDBRANCH  13  14
ENDBRANCH   6  13
ENDBRANCH   8   6
BRANCH  10  12
ATOM     12  C   UNL     1      12.434   6.705  19.997  0.00  0.00    +0.138 C 
BRANCH  12   7
ATOM      4  O   UNL     1      11.687   7.332  17.296  0.00  0.00    -0.270 OA
ATOM      7  N   UNL     1      13.053   7.676  19.141  0.00  0.00    -0.308 N 
ATOM     15  C   UNL     1      12.623   7.915  17.839  0.00  0.00    +0.251 C 
ATOM     27  H   UNL     1      13.843   8.186  19.520  0.00  0.00    +0.149 HD
BRANCH  15  18
ATOM      1  S   UNL     1      13.655  10.474  17.774  0.00  0.00    -0.092 S 
ATOM     18  C   UNL     1      13.386   8.934  17.074  0.00  0.00    +0.074 A 
ATOM     22  C   UNL     1      13.943   8.834  15.818  0.00  0.00    +0.021 A 
ATOM     23  C   UNL     1      14.600  10.036  15.426  0.00  0.00    +0.008 A 
ATOM     24  C   UNL     1      14.519  11.010  16.397  0.00  0.00    +0.046 A 
ENDBRANCH  15  18
ENDBRANCH  12   7
ENDBRANCH  10  12
TORSDOF 8
ENDMDL
MODEL 4
REMARK VINA RESULT:      -6.5      1.728      2.373
REMARK  Name = 75536602
REMARK  8 active torsions:
REMARK  status: ('A' for Active; 'I' for Inactive)
REMARK    1  A    between atoms: O_3  and  C_9
REMARK    2  A    between atoms: O_5  and  C_16
REMARK    3  A    between atoms: N_6  and  C_8
REMARK    4  A    between atoms: N_6  and  C_13
REMARK    5  A    between atoms: N_7  and  C_12
REMARK    6  A    between atoms: C_10  and  C_12
REMARK    7  A    between atoms: C_13  and  C_14
REMARK    8  A    between atoms: C_15  and  C_18
REMARK                            x       y       z     vdW  Elec       q    Type
REMARK                         _______ _______ _______ _____ _____    ______ ____
ROOT
ATOM      2  O   UNL     1      10.656   8.446  21.573  0.00  0.00    -0.371 OA
ATOM      8  C   UNL     1      12.722   7.287  21.736  0.00  0.00    +0.111 C 
ATOM      9  C   UNL     1      12.987   8.781  21.788  0.00  0.00    +0.164 C 
ATOM     10  C   UNL     1      11.620   9.306  22.202  0.00  0.00    +0.165 C 
ATOM     11  C   UNL     1      11.326   7.250  21.138  0.00  0.00    +0.181 C 
ENDROOT
BRANCH   9   3
ATOM      3  O   UNL     1      13.991   9.125  22.723  0.00  0.00    -0.388 OA
ATOM     26  H   UNL     1      14.688   8.449  22.685  0.00  0.00    +0.210 HD
ENDBRANCH   9   3
BRANCH   8   6
ATOM      6  N   UNL     1      13.696   6.548  20.948  0.00  0.00    -0.305 NA
ATOM     25  H   UNL     1      13.202   5.928  20.305  0.00  0.00    +0.123 HD
BRANCH   6  13
ATOM     13  C   UNL     1      14.541   7.451  20.177  0.00  0.00    +0.120 C 
BRANCH  13  14
ATOM     14  C   UNL     1      15.974   6.990  20.149  0.00  0.00    +0.008 A 
ATOM     16  C   UNL     1      16.883   7.428  21.112  0.00  0.00    +0.121 A 
ATOM     17  C   UNL     1      16.389   6.116  19.145  0.00  0.00    +0.008 A 
ATOM     19  C   UNL     1      18.207   6.992  21.071  0.00  0.00    +0.046 A 
ATOM     20  C   UNL     1      17.714   5.680  19.104  0.00  0.00    +0.001 A 
ATOM     21  C   UNL     1      18.623   6.118  20.067  0.00  0.00    +0.004 A 
BRANCH  16   5
ATOM      5  O   UNL     1      16.493   8.283  22.099  0.00  0.00    -0.506 OA
ATOM     28  H   UNL     1      15.942   7.800  22.739  0.00  0.00    +0.292 HD
ENDBRANCH  16   5
ENDBRANCH  13  14
ENDBRANCH   6  13
ENDBRANCH   8   6
BRANCH  10  12
ATOM     12  C   UNL     1      11.376  10.744  21.780  0.00  0.00    +0.138 C 
BRANCH  12   7
ATOM      4  O   UNL     1      10.516  13.483  21.826  0.00  0.00    -0.270 OA
ATOM      7  N   UNL     1      11.401  11.630  22.908  0.00  0.00    -0.308 N 
ATOM     15  C   UNL     1      10.962  12.949  22.839  0.00  0.00    +0.251 C 
ATOM     27  H   UNL     1      11.770  11.260  23.776  0.00  0.00    +0.149 HD
BRANCH  15  18
ATOM      1  S   UNL     1      12.173  13.235  25.303  0.00  0.00    -0.092 S 
ATOM     18  C   UNL     1      11.077  13.745  24.089  0.00  0.00    +0.074 A 
ATOM     22  C   UNL     1      10.405  14.892  24.448  0.00  0.00    +0.021 A 
ATOM     23  C   UNL     1      10.794  15.358  25.737  0.00  0.00    +0.008 A 
ATOM     24  C   UNL     1      11.749  14.550  26.314  0.00  0.00    +0.046 A 
ENDBRANCH  15  18
ENDBRANCH  12   7
ENDBRANCH  10  12
TORSDOF 8
ENDMDL
MODEL 5
REMARK VINA RESULT:      -6.4     26.439     29.358
REMARK  Name = 75536602
REMARK  8 active torsions:
REMARK  status: ('A' for Active; 'I' for Inactive)
REMARK    1  A    between atoms: O_3  and  C_9
REMARK    2  A    between atoms: O_5  and  C_16
REMARK    3  A    between atoms: N_6  and  C_8
REMARK    4  A    between atoms: N_6  and  C_13
REMARK    5  A    between atoms: N_7  and  C_12
REMARK    6  A    between atoms: C_10  and  C_12
REMARK    7  A    between atoms: C_13  and  C_14
REMARK    8  A    between atoms: C_15  and  C_18
REMARK                            x       y       z     vdW  Elec       q    Type
REMARK                         _______ _______ _______ _____ _____    ______ ____
ROOT
ATOM      2  O   UNL     1     -17.606   5.335  24.518  0.00  0.00    -0.371 OA
ATOM      8  C   UNL     1     -16.094   4.219  23.066  0.00  0.00    +0.111 C 
ATOM      9  C   UNL     1     -15.756   3.862  24.502  0.00  0.00    +0.164 C 
ATOM     10  C   UNL     1     -17.066   4.192  25.202  0.00  0.00    +0.165 C 
ATOM     11  C   UNL     1     -16.929   5.474  23.257  0.00  0.00    +0.181 C 
ENDROOT
BRANCH   9   3
ATOM      3  O   UNL     1     -15.402   2.501  24.657  0.00  0.00    -0.388 OA
ATOM     26  H   UNL     1     -15.864   1.986  23.975  0.00  0.00    +0.210 HD
ENDBRANCH   9   3
BRANCH   8   6
ATOM      6  N   UNL     1     -14.926   4.438  22.228  0.00  0.00    -0.305 NA
ATOM     25  H   UNL     1     -15.227   4.546  21.259  0.00  0.00    +0.123 HD
BRANCH   6  13
ATOM     13  C   UNL     1     -14.205   5.637  22.635  0.00  0.00    +0.120 C 
BRANCH  13  14
ATOM     14  C   UNL     1     -13.587   6.346  21.459  0.00  0.00    +0.008 A 
ATOM     16  C   UNL     1     -14.382   7.035  20.543  0.00  0.00    +0.121 A 
ATOM     17  C   UNL     1     -12.203   6.308  21.291  0.00  0.00    +0.008 A 
ATOM     19  C   UNL     1     -13.793   7.686  19.459  0.00  0.00    +0.046 A 
ATOM     20  C   UNL     1     -11.614   6.960  20.207  0.00  0.00    +0.001 A 
ATOM     21  C   UNL     1     -12.409   7.648  19.291  0.00  0.00    +0.004 A 
BRANCH  16   5
ATOM      5  O   UNL     1     -15.735   7.080  20.692  0.00  0.00    -0.506 OA
ATOM     28  H   UNL     1     -15.969   7.851  21.238  0.00  0.00    +0.292 HD
ENDBRANCH  16   5
ENDBRANCH  13  14
ENDBRANCH   6  13
ENDBRANCH   8   6
BRANCH  10  12
ATOM     12  C   UNL     1     -16.896   4.511  26.677  0.00  0.00    +0.138 C 
BRANCH  12   7
ATOM      4  O   UNL     1     -15.864   4.552  29.355  0.00  0.00    -0.270 OA
ATOM      7  N   UNL     1     -16.306   3.411  27.384  0.00  0.00    -0.308 N 
ATOM     15  C   UNL     1     -15.830   3.522  28.687  0.00  0.00    +0.251 C 
ATOM     27  H   UNL     1     -16.233   2.530  26.886  0.00  0.00    +0.149 HD
BRANCH  15  18
ATOM      1  S   UNL     1     -13.887   2.452  30.329  0.00  0.00    -0.092 S 
ATOM     18  C   UNL     1     -15.224   2.297  29.270  0.00  0.00    +0.074 A 
ATOM     22  C   UNL     1     -15.585   0.981  29.083  0.00  0.00    +0.021 A 
ATOM     23  C   UNL     1     -14.754   0.089  29.819  0.00  0.00    +0.008 A 
ATOM     24  C   UNL     1     -13.788   0.756  30.541  0.00  0.00    +0.046 A 
ENDBRANCH  15  18
ENDBRANCH  12   7
ENDBRANCH  10  12
TORSDOF 8
ENDMDL
MODEL 6
REMARK VINA RESULT:      -6.4     27.908     29.129
REMARK  Name = 75536602
REMARK  8 active torsions:
REMARK  status: ('A' for Active; 'I' for Inactive)
REMARK    1  A    between atoms: O_3  and  C_9
REMARK    2  A    between atoms: O_5  and  C_16
REMARK    3  A    between atoms: N_6  and  C_8
REMARK    4  A    between atoms: N_6  and  C_13
REMARK    5  A    between atoms: N_7  and  C_12
REMARK    6  A    between atoms: C_10  and  C_12
REMARK    7  A    between atoms: C_13  and  C_14
REMARK    8  A    between atoms: C_15  and  C_18
REMARK                            x       y       z     vdW  Elec       q    Type
REMARK                         _______ _______ _______ _____ _____    ______ ____
ROOT
ATOM      2  O   UNL     1     -11.068  -8.019  14.706  0.00  0.00    -0.371 OA
ATOM      8  C   UNL     1      -9.308  -9.026  15.943  0.00  0.00    +0.111 C 
ATOM      9  C   UNL     1      -9.648  -7.685  16.568  0.00  0.00    +0.164 C 
ATOM     10  C   UNL     1     -11.054  -7.459  16.030  0.00  0.00    +0.165 C 
ATOM     11  C   UNL     1      -9.924  -8.878  14.562  0.00  0.00    +0.181 C 
ENDROOT
BRANCH   9   3
ATOM      3  O   UNL     1      -9.623  -7.719  17.982  0.00  0.00    -0.388 OA
ATOM     26  H   UNL     1     -10.540  -7.759  18.303  0.00  0.00    +0.210 HD
ENDBRANCH   9   3
BRANCH   8   6
ATOM      6  N   UNL     1      -7.882  -9.305  15.900  0.00  0.00    -0.305 NA
ATOM     25  H   UNL     1      -7.417  -8.776  16.639  0.00  0.00    +0.123 HD
BRANCH   6  13
ATOM     13  C   UNL     1      -7.618 -10.724  16.098  0.00  0.00    +0.120 C 
BRANCH  13  14
ATOM     14  C   UNL     1      -6.619 -10.961  17.200  0.00  0.00    +0.008 A 
ATOM     16  C   UNL     1      -6.932 -10.654  18.524  0.00  0.00    +0.121 A 
ATOM     17  C   UNL     1      -5.370 -11.493  16.884  0.00  0.00    +0.008 A 
ATOM     19  C   UNL     1      -5.995 -10.879  19.532  0.00  0.00    +0.046 A 
ATOM     20  C   UNL     1      -4.432 -11.718  17.893  0.00  0.00    +0.001 A 
ATOM     21  C   UNL     1      -4.745 -11.412  19.217  0.00  0.00    +0.004 A 
BRANCH  16   5
ATOM      5  O   UNL     1      -8.147 -10.133  18.849  0.00  0.00    -0.506 OA
ATOM     28  H   UNL     1      -8.122  -9.167  18.729  0.00  0.00    +0.292 HD
ENDBRANCH  16   5
ENDBRANCH  13  14
ENDBRANCH   6  13
ENDBRANCH   8   6
BRANCH  10  12
ATOM     12  C   UNL     1     -11.447  -5.994  15.971  0.00  0.00    +0.138 C 
BRANCH  12   7
ATOM      4  O   UNL     1     -13.713  -5.423  14.304  0.00  0.00    -0.270 OA
ATOM      7  N   UNL     1     -11.417  -5.499  14.626  0.00  0.00    -0.308 N 
ATOM     15  C   UNL     1     -12.570  -5.249  13.889  0.00  0.00    +0.251 C 
ATOM     27  H   UNL     1     -10.503  -5.345  14.212  0.00  0.00    +0.149 HD
BRANCH  15  18
ATOM      1  S   UNL     1     -12.403  -5.888  11.209  0.00  0.00    -0.092 S 
ATOM     18  C   UNL     1     -12.368  -4.762  12.499  0.00  0.00    +0.074 A 
ATOM     22  C   UNL     1     -12.144  -3.477  12.058  0.00  0.00    +0.021 A 
ATOM     23  C   UNL     1     -11.999  -3.416  10.642  0.00  0.00    +0.008 A 
ATOM     24  C   UNL     1     -12.118  -4.656  10.054  0.00  0.00    +0.046 A 
ENDBRANCH  15  18
ENDBRANCH  12   7
ENDBRANCH  10  12
TORSDOF 8
ENDMDL
MODEL 7
REMARK VINA RESULT:      -6.2      2.980      4.462
REMARK  Name = 75536602
REMARK  8 active torsions:
REMARK  status: ('A' for Active; 'I' for Inactive)
REMARK    1  A    between atoms: O_3  and  C_9
REMARK    2  A    between atoms: O_5  and  C_16
REMARK    3  A    between atoms: N_6  and  C_8
REMARK    4  A    between atoms: N_6  and  C_13
REMARK    5  A    between atoms: N_7  and  C_12
REMARK    6  A    between atoms: C_10  and  C_12
REMARK    7  A    between atoms: C_13  and  C_14
REMARK    8  A    between atoms: C_15  and  C_18
REMARK                            x       y       z     vdW  Elec       q    Type
REMARK                         _______ _______ _______ _____ _____    ______ ____
ROOT
ATOM      2  O   UNL     1      10.432   8.110  22.268  0.00  0.00    -0.371 OA
ATOM      8  C   UNL     1      12.594   7.533  21.471  0.00  0.00    +0.111 C 
ATOM      9  C   UNL     1      12.612   8.972  21.952  0.00  0.00    +0.164 C 
ATOM     10  C   UNL     1      11.397   8.990  22.869  0.00  0.00    +0.165 C 
ATOM     11  C   UNL     1      11.104   7.294  21.292  0.00  0.00    +0.181 C 
ENDROOT
BRANCH   9   3
ATOM      3  O   UNL     1      13.801   9.301  22.644  0.00  0.00    -0.388 OA
ATOM     26  H   UNL     1      14.061   8.536  23.184  0.00  0.00    +0.210 HD
ENDBRANCH   9   3
BRANCH   8   6
ATOM      6  N   UNL     1      13.352   7.315  20.250  0.00  0.00    -0.305 NA
ATOM     25  H   UNL     1      13.889   6.452  20.340  0.00  0.00    +0.123 HD
BRANCH   6  13
ATOM     13  C   UNL     1      12.470   7.204  19.095  0.00  0.00    +0.120 C 
BRANCH  13  14
ATOM     14  C   UNL     1      12.798   8.223  18.037  0.00  0.00    +0.008 A 
ATOM     16  C   UNL     1      11.941   8.431  16.957  0.00  0.00    +0.121 A 
ATOM     17  C   UNL     1      13.975   8.963  18.146  0.00  0.00    +0.008 A 
ATOM     19  C   UNL     1      12.260   9.379  15.985  0.00  0.00    +0.046 A 
ATOM     20  C   UNL     1      14.295   9.912  17.173  0.00  0.00    +0.001 A 
ATOM     21  C   UNL     1      13.438  10.120  16.093  0.00  0.00    +0.004 A 
BRANCH  16   5
ATOM      5  O   UNL     1      10.788   7.716  16.835  0.00  0.00    -0.506 OA
ATOM     28  H   UNL     1      10.360   7.944  15.992  0.00  0.00    +0.292 HD
ENDBRANCH  16   5
ENDBRANCH  13  14
ENDBRANCH   6  13
ENDBRANCH   8   6
BRANCH  10  12
ATOM     12  C   UNL     1      10.794  10.372  23.040  0.00  0.00    +0.138 C 
BRANCH  12   7
ATOM      4  O   UNL     1       9.928  12.786  24.331  0.00  0.00    -0.270 OA
ATOM      7  N   UNL     1      11.541  11.156  23.981  0.00  0.00    -0.308 N 
ATOM     15  C   UNL     1      11.040  12.317  24.560  0.00  0.00    +0.251 C 
ATOM     27  H   UNL     1      12.476  10.834  24.207  0.00  0.00    +0.149 HD
BRANCH  15  18
ATOM      1  S   UNL     1      11.435  14.503  26.200  0.00  0.00    -0.092 S 
ATOM     18  C   UNL     1      11.949  13.028  25.496  0.00  0.00    +0.074 A 
ATOM     22  C   UNL     1      13.213  12.671  25.912  0.00  0.00    +0.021 A 
ATOM     23  C   UNL     1      13.765  13.620  26.820  0.00  0.00    +0.008 A 
ATOM     24  C   UNL     1      12.903  14.666  27.064  0.00  0.00    +0.046 A 
ENDBRANCH  15  18
ENDBRANCH  12   7
ENDBRANCH  10  12
TORSDOF 8
ENDMDL
MODEL 8
REMARK VINA RESULT:      -6.2     25.463     28.362
REMARK  Name = 75536602
REMARK  8 active torsions:
REMARK  status: ('A' for Active; 'I' for Inactive)
REMARK    1  A    between atoms: O_3  and  C_9
REMARK    2  A    between atoms: O_5  and  C_16
REMARK    3  A    between atoms: N_6  and  C_8
REMARK    4  A    between atoms: N_6  and  C_13
REMARK    5  A    between atoms: N_7  and  C_12
REMARK    6  A    between atoms: C_10  and  C_12
REMARK    7  A    between atoms: C_13  and  C_14
REMARK    8  A    between atoms: C_15  and  C_18
REMARK                            x       y       z     vdW  Elec       q    Type
REMARK                         _______ _______ _______ _____ _____    ______ ____
ROOT
ATOM      2  O   UNL     1     -16.276   4.887  22.323  0.00  0.00    -0.371 OA
ATOM      8  C   UNL     1     -13.954   5.134  21.889  0.00  0.00    +0.111 C 
ATOM      9  C   UNL     1     -14.173   5.075  23.390  0.00  0.00    +0.164 C 
ATOM     10  C   UNL     1     -15.539   4.407  23.460  0.00  0.00    +0.165 C 
ATOM     11  C   UNL     1     -15.350   5.478  21.395  0.00  0.00    +0.181 C 
ENDROOT
BRANCH   9   3
ATOM      3  O   UNL     1     -13.180   4.320  24.056  0.00  0.00    -0.388 OA
ATOM     26  H   UNL     1     -12.429   4.201  23.451  0.00  0.00    +0.210 HD
ENDBRANCH   9   3
BRANCH   8   6
ATOM      6  N   UNL     1     -12.954   6.109  21.483  0.00  0.00    -0.305 NA
ATOM     25  H   UNL     1     -12.226   5.636  20.947  0.00  0.00    +0.123 HD
BRANCH   6  13
ATOM     13  C   UNL     1     -13.545   7.154  20.656  0.00  0.00    +0.120 C 
BRANCH  13  14
ATOM     14  C   UNL     1     -12.537   8.207  20.277  0.00  0.00    +0.008 A 
ATOM     16  C   UNL     1     -11.533   7.931  19.349  0.00  0.00    +0.121 A 
ATOM     17  C   UNL     1     -12.615   9.468  20.866  0.00  0.00    +0.008 A 
ATOM     19  C   UNL     1     -10.607   8.918  19.010  0.00  0.00    +0.046 A 
ATOM     20  C   UNL     1     -11.688  10.455  20.527  0.00  0.00    +0.001 A 
ATOM     21  C   UNL     1     -10.685  10.180  19.599  0.00  0.00    +0.004 A 
BRANCH  16   5
ATOM      5  O   UNL     1     -11.442   6.704  18.765  0.00  0.00    -0.506 OA
ATOM     28  H   UNL     1     -11.285   6.816  17.811  0.00  0.00    +0.292 HD
ENDBRANCH  16   5
ENDBRANCH  13  14
ENDBRANCH   6  13
ENDBRANCH   8   6
BRANCH  10  12
ATOM     12  C   UNL     1     -16.298   4.725  24.736  0.00  0.00    +0.138 C 
BRANCH  12   7
ATOM      4  O   UNL     1     -17.640   4.421  27.255  0.00  0.00    -0.270 OA
ATOM      7  N   UNL     1     -15.934   3.832  25.797  0.00  0.00    -0.308 N 
ATOM     15  C   UNL     1     -16.645   3.750  26.990  0.00  0.00    +0.251 C 
ATOM     27  H   UNL     1     -15.112   3.256  25.652  0.00  0.00    +0.149 HD
BRANCH  15  18
ATOM      1  S   UNL     1     -15.167   3.385  29.293  0.00  0.00    -0.092 S 
ATOM     18  C   UNL     1     -16.123   2.793  28.000  0.00  0.00    +0.074 A 
ATOM     22  C   UNL     1     -16.295   1.429  28.067  0.00  0.00    +0.021 A 
ATOM     23  C   UNL     1     -15.633   0.861  29.194  0.00  0.00    +0.008 A 
ATOM     24  C   UNL     1     -14.981   1.813  29.946  0.00  0.00    +0.046 A 
ENDBRANCH  15  18
ENDBRANCH  12   7
ENDBRANCH  10  12
TORSDOF 8
ENDMDL
MODEL 9
REMARK VINA RESULT:      -6.2     26.565     29.604
REMARK  Name = 75536602
REMARK  8 active torsions:
REMARK  status: ('A' for Active; 'I' for Inactive)
REMARK    1  A    between atoms: O_3  and  C_9
REMARK    2  A    between atoms: O_5  and  C_16
REMARK    3  A    between atoms: N_6  and  C_8
REMARK    4  A    between atoms: N_6  and  C_13
REMARK    5  A    between atoms: N_7  and  C_12
REMARK    6  A    between atoms: C_10  and  C_12
REMARK    7  A    between atoms: C_13  and  C_14
REMARK    8  A    between atoms: C_15  and  C_18
REMARK                            x       y       z     vdW  Elec       q    Type
REMARK                         _______ _______ _______ _____ _____    ______ ____
ROOT
ATOM      2  O   UNL     1     -18.054   4.281  23.642  0.00  0.00    -0.371 OA
ATOM      8  C   UNL     1     -16.494   4.268  25.432  0.00  0.00    +0.111 C 
ATOM      9  C   UNL     1     -15.749   4.490  24.129  0.00  0.00    +0.164 C 
ATOM     10  C   UNL     1     -16.872   4.988  23.231  0.00  0.00    +0.165 C 
ATOM     11  C   UNL     1     -17.810   3.696  24.933  0.00  0.00    +0.181 C 
ENDROOT
BRANCH   9   3
ATOM      3  O   UNL     1     -14.708   5.441  24.250  0.00  0.00    -0.388 OA
ATOM     26  H   UNL     1     -14.761   5.840  25.135  0.00  0.00    +0.210 HD
ENDBRANCH   9   3
BRANCH   8   6
ATOM      6  N   UNL     1     -15.804   3.380  26.355  0.00  0.00    -0.305 NA
ATOM     25  H   UNL     1     -14.810   3.610  26.358  0.00  0.00    +0.123 HD
BRANCH   6  13
ATOM     13  C   UNL     1     -16.325   3.521  27.709  0.00  0.00    +0.120 C 
BRANCH  13  14
ATOM     14  C   UNL     1     -15.572   2.664  28.691  0.00  0.00    +0.008 A 
ATOM     16  C   UNL     1     -15.729   1.278  28.696  0.00  0.00    +0.121 A 
ATOM     17  C   UNL     1     -14.711   3.271  29.604  0.00  0.00    +0.008 A 
ATOM     19  C   UNL     1     -15.024   0.500  29.613  0.00  0.00    +0.046 A 
ATOM     20  C   UNL     1     -14.006   2.492  30.523  0.00  0.00    +0.001 A 
ATOM     21  C   UNL     1     -14.162   1.106  30.527  0.00  0.00    +0.004 A 
BRANCH  16   5
ATOM      5  O   UNL     1     -16.567   0.669  27.811  0.00  0.00    -0.506 OA
ATOM     28  H   UNL     1     -16.291  -0.257  27.697  0.00  0.00    +0.292 HD
ENDBRANCH  16   5
ENDBRANCH  13  14
ENDBRANCH   6  13
ENDBRANCH   8   6
BRANCH  10  12
ATOM     12  C   UNL     1     -16.616   4.744  21.755  0.00  0.00    +0.138 C 
BRANCH  12   7
ATOM      4  O   UNL     1     -16.069   7.422  20.879  0.00  0.00    -0.270 OA
ATOM      7  N   UNL     1     -15.344   5.270  21.352  0.00  0.00    -0.308 N 
ATOM     15  C   UNL     1     -15.170   6.588  20.940  0.00  0.00    +0.251 C 
ATOM     27  H   UNL     1     -14.557   4.631  21.364  0.00  0.00    +0.149 HD
BRANCH  15  18
ATOM      1  S   UNL     1     -13.580   7.942  19.135  0.00  0.00    -0.092 S 
ATOM     18  C   UNL     1     -13.794   6.970  20.529  0.00  0.00    +0.074 A 
ATOM     22  C   UNL     1     -12.594   6.650  21.124  0.00  0.00    +0.021 A 
ATOM     23  C   UNL     1     -11.485   7.209  20.427  0.00  0.00    +0.008 A 
ATOM     24  C   UNL     1     -11.879   7.936  19.325  0.00  0.00    +0.046 A 
ENDBRANCH  15  18
ENDBRANCH  12   7
ENDBRANCH  10  12
TORSDOF 8
ENDMDL
MODEL 10
REMARK VINA RESULT:      -6.0     33.096     34.902
REMARK  Name = 75536602
REMARK  8 active torsions:
REMARK  status: ('A' for Active; 'I' for Inactive)
REMARK    1  A    between atoms: O_3  and  C_9
REMARK    2  A    between atoms: O_5  and  C_16
REMARK    3  A    between atoms: N_6  and  C_8
REMARK    4  A    between atoms: N_6  and  C_13
REMARK    5  A    between atoms: N_7  and  C_12
REMARK    6  A    between atoms: C_10  and  C_12
REMARK    7  A    between atoms: C_13  and  C_14
REMARK    8  A    between atoms: C_15  and  C_18
REMARK                            x       y       z     vdW  Elec       q    Type
REMARK                         _______ _______ _______ _____ _____    ______ ____
ROOT
ATOM      2  O   UNL     1      -1.227 -15.413  -1.991  0.00  0.00    -0.371 OA
ATOM      8  C   UNL     1      -0.651 -14.242  -0.006  0.00  0.00    +0.111 C 
ATOM      9  C   UNL     1      -1.362 -13.292  -0.952  0.00  0.00    +0.164 C 
ATOM     10  C   UNL     1      -2.093 -14.273  -1.858  0.00  0.00    +0.165 C 
ATOM     11  C   UNL     1      -0.231 -15.353  -0.955  0.00  0.00    +0.181 C 
ENDROOT
BRANCH   9   3
ATOM      3  O   UNL     1      -2.256 -12.424  -0.283  0.00  0.00    -0.388 OA
ATOM     26  H   UNL     1      -3.024 -12.273  -0.860  0.00  0.00    +0.210 HD
ENDBRANCH   9   3
BRANCH   8   6
ATOM      6  N   UNL     1       0.474 -13.639   0.691  0.00  0.00    -0.305 NA
ATOM     25  H   UNL     1       0.122 -12.938   1.345  0.00  0.00    +0.123 HD
BRANCH   6  13
ATOM     13  C   UNL     1       1.229 -14.640   1.434  0.00  0.00    +0.120 C 
BRANCH  13  14
ATOM     14  C   UNL     1       2.660 -14.719   0.973  0.00  0.00    +0.008 A 
ATOM     16  C   UNL     1       3.544 -15.634   1.544  0.00  0.00    +0.121 A 
ATOM     17  C   UNL     1       3.098 -13.864  -0.038  0.00  0.00    +0.008 A 
ATOM     19  C   UNL     1       4.866 -15.694   1.105  0.00  0.00    +0.046 A 
ATOM     20  C   UNL     1       4.421 -13.924  -0.477  0.00  0.00    +0.001 A 
ATOM     21  C   UNL     1       5.305 -14.839   0.094  0.00  0.00    +0.004 A 
BRANCH  16   5
ATOM      5  O   UNL     1       3.132 -16.475   2.533  0.00  0.00    -0.506 OA
ATOM     28  H   UNL     1       3.895 -16.710   3.090  0.00  0.00    +0.292 HD
ENDBRANCH  16   5
ENDBRANCH  13  14
ENDBRANCH   6  13
ENDBRANCH   8   6
BRANCH  10  12
ATOM     12  C   UNL     1      -2.407 -13.704  -3.230  0.00  0.00    +0.138 C 
BRANCH  12   7
ATOM      4  O   UNL     1      -2.280 -12.142  -5.635  0.00  0.00    -0.270 OA
ATOM      7  N   UNL     1      -1.220 -13.236  -3.886  0.00  0.00    -0.308 N 
ATOM     15  C   UNL     1      -1.253 -12.480  -5.054  0.00  0.00    +0.251 C 
ATOM     27  H   UNL     1      -0.332 -13.491  -3.467  0.00  0.00    +0.149 HD
BRANCH  15  18
ATOM      1  S   UNL     1       0.499 -12.662  -7.180  0.00  0.00    -0.092 S 
ATOM     18  C   UNL     1       0.065 -12.095  -5.623  0.00  0.00    +0.074 A 
ATOM     22  C   UNL     1       1.050 -11.310  -5.066  0.00  0.00    +0.021 A 
ATOM     23  C   UNL     1       2.175 -11.172  -5.928  0.00  0.00    +0.008 A 
ATOM     24  C   UNL     1       2.008 -11.857  -7.112  0.00  0.00    +0.046 A 
ENDBRANCH  15  18
ENDBRANCH  12   7
ENDBRANCH  10  12
TORSDOF 8
ENDMDL
