MODEL 1
REMARK VINA RESULT:      -6.8      0.000      0.000
REMARK  Name = 75367767
REMARK  6 active torsions:
REMARK  status: ('A' for Active; 'I' for Inactive)
REMARK    1  A    between atoms: O_3  and  C_9
REMARK    2  A    between atoms: O_3  and  C_17
REMARK    3  A    between atoms: O_5  and  C_28
REMARK    4  A    between atoms: O_5  and  C_29
REMARK    5  A    between atoms: N_8  and  C_20
REMARK    6  A    between atoms: C_20  and  C_21
REMARK                            x       y       z     vdW  Elec       q    Type
REMARK                         _______ _______ _______ _____ _____    ______ ____
ROOT
ATOM      1  S   UNL     1      14.493  10.983  22.141  0.00  0.00    -0.052 S 
ATOM      2  O   UNL     1      14.077   6.594  19.602  0.00  0.00    -0.375 OA
ATOM      6  N   UNL     1      13.741   9.456  20.067  0.00  0.00    -0.304 N 
ATOM      7  N   UNL     1      12.136  10.013  21.750  0.00  0.00    -0.225 NA
ATOM      9  C   UNL     1      15.836   8.137  20.372  0.00  0.00    +0.221 C 
ATOM     10  C   UNL     1      15.154   9.324  19.680  0.00  0.00    +0.154 C 
ATOM     11  C   UNL     1      12.811   8.661  19.254  0.00  0.00    +0.135 C 
ATOM     12  C   UNL     1      14.945   6.931  20.679  0.00  0.00    +0.206 C 
ATOM     13  C   UNL     1      12.788   7.205  19.706  0.00  0.00    +0.179 C 
ATOM     14  C   UNL     1      13.348  10.075  21.252  0.00  0.00    +0.162 A 
ATOM     15  C   UNL     1      13.281  11.343  23.314  0.00  0.00    +0.041 A 
ATOM     16  C   UNL     1      12.081  10.735  22.933  0.00  0.00    +0.080 A 
ATOM     18  C   UNL     1      13.385  12.108  24.487  0.00  0.00    +0.017 A 
ATOM     19  C   UNL     1      10.946  10.901  23.756  0.00  0.00    +0.029 A 
ATOM     22  C   UNL     1      12.248  12.256  25.284  0.00  0.00    +0.001 A 
ATOM     23  C   UNL     1      11.043  11.662  24.925  0.00  0.00    +0.002 A 
ENDROOT
BRANCH   9   3
ATOM      3  O   UNL     1      16.436   8.555  21.597  0.00  0.00    -0.443 OA
BRANCH   3  17
ATOM      4  O   UNL     1      18.271   9.772  20.948  0.00  0.00    -0.226 OA
ATOM      8  N   UNL     1      18.472   7.876  22.270  0.00  0.00    -0.277 N 
ATOM     17  C   UNL     1      17.777   8.824  21.549  0.00  0.00    +0.401 C 
ATOM     30  H   UNL     1      17.941   7.144  22.731  0.00  0.00    +0.152 HD
BRANCH   8  20
ATOM     20  C   UNL     1      19.909   7.875  22.416  0.00  0.00    +0.142 C 
BRANCH  20  21
ATOM     21  C   UNL     1      20.511   6.550  22.049  0.00  0.00    -0.030 A 
ATOM     24  C   UNL     1      21.399   5.920  22.921  0.00  0.00    +0.009 A 
ATOM     25  C   UNL     1      20.182   5.946  20.834  0.00  0.00    +0.009 A 
ATOM     26  C   UNL     1      21.958   4.689  22.580  0.00  0.00    +0.046 A 
ATOM     27  C   UNL     1      20.740   4.715  20.493  0.00  0.00    +0.046 A 
ATOM     28  C   UNL     1      21.628   4.086  21.366  0.00  0.00    +0.120 A 
BRANCH  28   5
ATOM      5  O   UNL     1      22.173   2.884  21.033  0.00  0.00    -0.495 OA
ATOM     29  C   UNL     1      23.585   2.843  20.841  0.00  0.00    +0.277 C 
ENDBRANCH  28   5
ENDBRANCH  20  21
ENDBRANCH   8  20
ENDBRANCH   3  17
ENDBRANCH   9   3
TORSDOF 5
ENDMDL
MODEL 2
REMARK VINA RESULT:      -6.8     28.879     30.585
REMARK  Name = 75367767
REMARK  6 active torsions:
REMARK  status: ('A' for Active; 'I' for Inactive)
REMARK    1  A    between atoms: O_3  and  C_9
REMARK    2  A    between atoms: O_3  and  C_17
REMARK    3  A    between atoms: O_5  and  C_28
REMARK    4  A    between atoms: O_5  and  C_29
REMARK    5  A    between atoms: N_8  and  C_20
REMARK    6  A    between atoms: C_20  and  C_21
REMARK                            x       y       z     vdW  Elec       q    Type
REMARK                         _______ _______ _______ _____ _____    ______ ____
ROOT
ATOM      1  S   UNL     1      -7.899 -10.971  15.371  0.00  0.00    -0.052 S 
ATOM      2  O   UNL     1      -3.995 -11.778  18.532  0.00  0.00    -0.375 OA
ATOM      6  N   UNL     1      -6.711 -12.080  17.505  0.00  0.00    -0.304 N 
ATOM      7  N   UNL     1      -8.114 -10.168  17.812  0.00  0.00    -0.225 NA
ATOM      9  C   UNL     1      -4.601 -12.195  16.181  0.00  0.00    +0.221 C 
ATOM     10  C   UNL     1      -5.896 -12.902  16.597  0.00  0.00    +0.154 C 
ATOM     11  C   UNL     1      -6.371 -12.225  18.927  0.00  0.00    +0.135 C 
ATOM     12  C   UNL     1      -3.989 -11.244  17.212  0.00  0.00    +0.206 C 
ATOM     13  C   UNL     1      -5.145 -11.392  19.288  0.00  0.00    +0.179 C 
ATOM     14  C   UNL     1      -7.553 -11.071  17.043  0.00  0.00    +0.162 A 
ATOM     15  C   UNL     1      -8.896  -9.596  15.670  0.00  0.00    +0.041 A 
ATOM     16  C   UNL     1      -8.887  -9.314  17.039  0.00  0.00    +0.080 A 
ATOM     18  C   UNL     1      -9.632  -8.822  14.758  0.00  0.00    +0.017 A 
ATOM     19  C   UNL     1      -9.643  -8.219  17.511  0.00  0.00    +0.029 A 
ATOM     22  C   UNL     1     -10.371  -7.743  15.250  0.00  0.00    +0.001 A 
ATOM     23  C   UNL     1     -10.378  -7.444  16.608  0.00  0.00    +0.002 A 
ENDROOT
BRANCH   9   3
ATOM      3  O   UNL     1      -4.805 -11.455  14.978  0.00  0.00    -0.443 OA
BRANCH   3  17
ATOM      4  O   UNL     1      -3.759 -12.920  13.552  0.00  0.00    -0.226 OA
ATOM      8  N   UNL     1      -3.463 -10.625  13.374  0.00  0.00    -0.277 N 
ATOM     17  C   UNL     1      -3.985 -11.775  13.929  0.00  0.00    +0.401 C 
ATOM     30  H   UNL     1      -3.738  -9.735  13.775  0.00  0.00    +0.152 HD
BRANCH   8  20
ATOM     20  C   UNL     1      -2.559 -10.619  12.247  0.00  0.00    +0.142 C 
BRANCH  20  21
ATOM     21  C   UNL     1      -3.282 -10.416  10.948  0.00  0.00    -0.030 A 
ATOM     24  C   UNL     1      -3.427  -9.132  10.422  0.00  0.00    +0.009 A 
ATOM     25  C   UNL     1      -3.811 -11.512  10.266  0.00  0.00    +0.009 A 
ATOM     26  C   UNL     1      -4.099  -8.944   9.215  0.00  0.00    +0.046 A 
ATOM     27  C   UNL     1      -4.483 -11.325   9.059  0.00  0.00    +0.046 A 
ATOM     28  C   UNL     1      -4.627 -10.041   8.533  0.00  0.00    +0.120 A 
BRANCH  28   5
ATOM      5  O   UNL     1      -5.283  -9.857   7.354  0.00  0.00    -0.495 OA
ATOM     29  C   UNL     1      -5.241 -10.929   6.414  0.00  0.00    +0.277 C 
ENDBRANCH  28   5
ENDBRANCH  20  21
ENDBRANCH   8  20
ENDBRANCH   3  17
ENDBRANCH   9   3
TORSDOF 5
ENDMDL
MODEL 3
REMARK VINA RESULT:      -6.6     28.747     31.751
REMARK  Name = 75367767
REMARK  6 active torsions:
REMARK  status: ('A' for Active; 'I' for Inactive)
REMARK    1  A    between atoms: O_3  and  C_9
REMARK    2  A    between atoms: O_3  and  C_17
REMARK    3  A    between atoms: O_5  and  C_28
REMARK    4  A    between atoms: O_5  and  C_29
REMARK    5  A    between atoms: N_8  and  C_20
REMARK    6  A    between atoms: C_20  and  C_21
REMARK                            x       y       z     vdW  Elec       q    Type
REMARK                         _______ _______ _______ _____ _____    ______ ____
ROOT
ATOM      1  S   UNL     1      -6.453 -10.890  13.378  0.00  0.00    -0.052 S 
ATOM      2  O   UNL     1      -3.284  -9.063   9.843  0.00  0.00    -0.375 OA
ATOM      6  N   UNL     1      -4.459 -11.081  11.594  0.00  0.00    -0.304 N 
ATOM      7  N   UNL     1      -3.931 -10.822  13.912  0.00  0.00    -0.225 NA
ATOM      9  C   UNL     1      -5.694  -9.468  10.148  0.00  0.00    +0.221 C 
ATOM     10  C   UNL     1      -5.443 -10.937  10.511  0.00  0.00    +0.154 C 
ATOM     11  C   UNL     1      -3.061 -11.126  11.144  0.00  0.00    +0.135 C 
ATOM     12  C   UNL     1      -4.508  -8.517  10.322  0.00  0.00    +0.206 C 
ATOM     13  C   UNL     1      -2.528  -9.726  10.860  0.00  0.00    +0.179 C 
ATOM     14  C   UNL     1      -4.802 -10.934  12.936  0.00  0.00    +0.162 A 
ATOM     15  C   UNL     1      -5.996 -10.705  15.030  0.00  0.00    +0.041 A 
ATOM     16  C   UNL     1      -4.601 -10.690  15.120  0.00  0.00    +0.080 A 
ATOM     18  C   UNL     1      -6.813 -10.582  16.166  0.00  0.00    +0.017 A 
ATOM     19  C   UNL     1      -4.005 -10.547  16.392  0.00  0.00    +0.029 A 
ATOM     22  C   UNL     1      -6.199 -10.442  17.413  0.00  0.00    +0.001 A 
ATOM     23  C   UNL     1      -4.813 -10.424  17.526  0.00  0.00    +0.002 A 
ENDROOT
BRANCH   9   3
ATOM      3  O   UNL     1      -6.782  -8.948  10.911  0.00  0.00    -0.443 OA
BRANCH   3  17
ATOM      4  O   UNL     1      -8.968  -9.588  10.625  0.00  0.00    -0.226 OA
ATOM      8  N   UNL     1      -7.959  -8.037   9.225  0.00  0.00    -0.277 N 
ATOM     17  C   UNL     1      -7.998  -8.920  10.284  0.00  0.00    +0.401 C 
ATOM     30  H   UNL     1      -7.093  -7.536   9.054  0.00  0.00    +0.152 HD
BRANCH   8  20
ATOM     20  C   UNL     1      -9.084  -7.776   8.357  0.00  0.00    +0.142 C 
BRANCH  20  21
ATOM     21  C   UNL     1      -9.924  -6.635   8.854  0.00  0.00    -0.030 A 
ATOM     24  C   UNL     1      -9.559  -5.321   8.560  0.00  0.00    +0.009 A 
ATOM     25  C   UNL     1     -11.068  -6.888   9.611  0.00  0.00    +0.009 A 
ATOM     26  C   UNL     1     -10.339  -4.261   9.020  0.00  0.00    +0.046 A 
ATOM     27  C   UNL     1     -11.848  -5.829  10.073  0.00  0.00    +0.046 A 
ATOM     28  C   UNL     1     -11.484  -4.515   9.778  0.00  0.00    +0.120 A 
BRANCH  28   5
ATOM      5  O   UNL     1     -12.245  -3.480  10.228  0.00  0.00    -0.495 OA
ATOM     29  C   UNL     1     -12.478  -3.409  11.633  0.00  0.00    +0.277 C 
ENDBRANCH  28   5
ENDBRANCH  20  21
ENDBRANCH   8  20
ENDBRANCH   3  17
ENDBRANCH   9   3
TORSDOF 5
ENDMDL
MODEL 4
REMARK VINA RESULT:      -6.6     29.399     33.403
REMARK  Name = 75367767
REMARK  6 active torsions:
REMARK  status: ('A' for Active; 'I' for Inactive)
REMARK    1  A    between atoms: O_3  and  C_9
REMARK    2  A    between atoms: O_3  and  C_17
REMARK    3  A    between atoms: O_5  and  C_28
REMARK    4  A    between atoms: O_5  and  C_29
REMARK    5  A    between atoms: N_8  and  C_20
REMARK    6  A    between atoms: C_20  and  C_21
REMARK                            x       y       z     vdW  Elec       q    Type
REMARK                         _______ _______ _______ _____ _____    ______ ____
ROOT
ATOM      1  S   UNL     1     -15.750   3.160  28.336  0.00  0.00    -0.052 S 
ATOM      2  O   UNL     1     -14.581   0.950  32.766  0.00  0.00    -0.375 OA
ATOM      6  N   UNL     1     -14.434   1.413  29.888  0.00  0.00    -0.304 N 
ATOM      7  N   UNL     1     -16.347   0.672  28.658  0.00  0.00    -0.225 NA
ATOM      9  C   UNL     1     -14.382   3.150  31.677  0.00  0.00    +0.221 C 
ATOM     10  C   UNL     1     -13.673   2.532  30.465  0.00  0.00    +0.154 C 
ATOM     11  C   UNL     1     -14.160   0.108  30.505  0.00  0.00    +0.135 C 
ATOM     12  C   UNL     1     -15.226   2.196  32.525  0.00  0.00    +0.206 C 
ATOM     13  C   UNL     1     -14.929  -0.056  31.812  0.00  0.00    +0.179 C 
ATOM     14  C   UNL     1     -15.499   1.610  29.012  0.00  0.00    +0.162 A 
ATOM     15  C   UNL     1     -17.119   2.555  27.479  0.00  0.00    +0.041 A 
ATOM     16  C   UNL     1     -17.282   1.199  27.779  0.00  0.00    +0.080 A 
ATOM     18  C   UNL     1     -17.986   3.230  26.606  0.00  0.00    +0.017 A 
ATOM     19  C   UNL     1     -18.351   0.496  27.181  0.00  0.00    +0.029 A 
ATOM     22  C   UNL     1     -19.036   2.513  26.027  0.00  0.00    +0.001 A 
ATOM     23  C   UNL     1     -19.218   1.163  26.310  0.00  0.00    +0.002 A 
ENDROOT
BRANCH   9   3
ATOM      3  O   UNL     1     -15.227   4.223  31.262  0.00  0.00    -0.443 OA
BRANCH   3  17
ATOM      4  O   UNL     1     -16.636   5.561  32.484  0.00  0.00    -0.226 OA
ATOM      8  N   UNL     1     -14.338   5.603  32.800  0.00  0.00    -0.277 N 
ATOM     17  C   UNL     1     -15.507   5.169  32.211  0.00  0.00    +0.401 C 
ATOM     30  H   UNL     1     -13.465   5.188  32.489  0.00  0.00    +0.152 HD
BRANCH   8  20
ATOM     20  C   UNL     1     -14.289   6.601  33.843  0.00  0.00    +0.142 C 
BRANCH  20  21
ATOM     21  C   UNL     1     -13.202   7.608  33.606  0.00  0.00    -0.030 A 
ATOM     24  C   UNL     1     -12.742   8.401  34.658  0.00  0.00    +0.009 A 
ATOM     25  C   UNL     1     -12.651   7.754  32.332  0.00  0.00    +0.009 A 
ATOM     26  C   UNL     1     -11.731   9.336  34.437  0.00  0.00    +0.046 A 
ATOM     27  C   UNL     1     -11.642   8.689  32.110  0.00  0.00    +0.046 A 
ATOM     28  C   UNL     1     -11.181   9.480  33.163  0.00  0.00    +0.120 A 
BRANCH  28   5
ATOM      5  O   UNL     1     -10.195  10.394  32.948  0.00  0.00    -0.495 OA
ATOM     29  C   UNL     1      -9.030  10.296  33.765  0.00  0.00    +0.277 C 
ENDBRANCH  28   5
ENDBRANCH  20  21
ENDBRANCH   8  20
ENDBRANCH   3  17
ENDBRANCH   9   3
TORSDOF 5
ENDMDL
MODEL 5
REMARK VINA RESULT:      -6.5      1.724      2.264
REMARK  Name = 75367767
REMARK  6 active torsions:
REMARK  status: ('A' for Active; 'I' for Inactive)
REMARK    1  A    between atoms: O_3  and  C_9
REMARK    2  A    between atoms: O_3  and  C_17
REMARK    3  A    between atoms: O_5  and  C_28
REMARK    4  A    between atoms: O_5  and  C_29
REMARK    5  A    between atoms: N_8  and  C_20
REMARK    6  A    between atoms: C_20  and  C_21
REMARK                            x       y       z     vdW  Elec       q    Type
REMARK                         _______ _______ _______ _____ _____    ______ ____
ROOT
ATOM      1  S   UNL     1      13.105  12.249  22.171  0.00  0.00    -0.052 S 
ATOM      2  O   UNL     1      12.706   7.228  21.453  0.00  0.00    -0.375 OA
ATOM      6  N   UNL     1      12.010  10.042  21.109  0.00  0.00    -0.304 N 
ATOM      7  N   UNL     1      10.980  11.056  23.015  0.00  0.00    -0.225 NA
ATOM      9  C   UNL     1      14.296   9.052  20.990  0.00  0.00    +0.221 C 
ATOM     10  C   UNL     1      13.212   9.871  20.279  0.00  0.00    +0.154 C 
ATOM     11  C   UNL     1      11.030   8.954  20.993  0.00  0.00    +0.135 C 
ATOM     12  C   UNL     1      13.802   7.979  21.963  0.00  0.00    +0.206 C 
ATOM     13  C   UNL     1      11.434   7.754  21.842  0.00  0.00    +0.179 C 
ATOM     14  C   UNL     1      11.924  11.015  22.103  0.00  0.00    +0.162 A 
ATOM     15  C   UNL     1      12.308  12.923  23.543  0.00  0.00    +0.041 A 
ATOM     16  C   UNL     1      11.187  12.146  23.848  0.00  0.00    +0.080 A 
ATOM     18  C   UNL     1      12.649  14.059  24.295  0.00  0.00    +0.017 A 
ATOM     19  C   UNL     1      10.381  12.520  24.945  0.00  0.00    +0.029 A 
ATOM     22  C   UNL     1      11.835  14.408  25.375  0.00  0.00    +0.001 A 
ATOM     23  C   UNL     1      10.715  13.650  25.698  0.00  0.00    +0.002 A 
ENDROOT
BRANCH   9   3
ATOM      3  O   UNL     1      15.179   9.913  21.707  0.00  0.00    -0.443 OA
BRANCH   3  17
ATOM      4  O   UNL     1      16.635  10.736  20.133  0.00  0.00    -0.226 OA
ATOM      8  N   UNL     1      17.370   9.456  21.923  0.00  0.00    -0.277 N 
ATOM     17  C   UNL     1      16.419  10.096  21.157  0.00  0.00    +0.401 C 
ATOM     30  H   UNL     1      17.061   8.966  22.757  0.00  0.00    +0.152 HD
BRANCH   8  20
ATOM     20  C   UNL     1      18.781   9.456  21.613  0.00  0.00    +0.142 C 
BRANCH  20  21
ATOM     21  C   UNL     1      19.275   8.088  21.242  0.00  0.00    -0.030 A 
ATOM     24  C   UNL     1      18.370   7.105  20.838  0.00  0.00    +0.009 A 
ATOM     25  C   UNL     1      20.638   7.797  21.302  0.00  0.00    +0.009 A 
ATOM     26  C   UNL     1      18.829   5.834  20.492  0.00  0.00    +0.046 A 
ATOM     27  C   UNL     1      21.097   6.527  20.958  0.00  0.00    +0.046 A 
ATOM     28  C   UNL     1      20.192   5.545  20.553  0.00  0.00    +0.120 A 
BRANCH  28   5
ATOM      5  O   UNL     1      20.640   4.304  20.215  0.00  0.00    -0.495 OA
ATOM     29  C   UNL     1      21.495   3.647  21.149  0.00  0.00    +0.277 C 
ENDBRANCH  28   5
ENDBRANCH  20  21
ENDBRANCH   8  20
ENDBRANCH   3  17
ENDBRANCH   9   3
TORSDOF 5
ENDMDL
MODEL 6
REMARK VINA RESULT:      -6.3     17.584     20.341
REMARK  Name = 75367767
REMARK  6 active torsions:
REMARK  status: ('A' for Active; 'I' for Inactive)
REMARK    1  A    between atoms: O_3  and  C_9
REMARK    2  A    between atoms: O_3  and  C_17
REMARK    3  A    between atoms: O_5  and  C_28
REMARK    4  A    between atoms: O_5  and  C_29
REMARK    5  A    between atoms: N_8  and  C_20
REMARK    6  A    between atoms: C_20  and  C_21
REMARK                            x       y       z     vdW  Elec       q    Type
REMARK                         _______ _______ _______ _____ _____    ______ ____
ROOT
ATOM      1  S   UNL     1      17.659   8.318   3.549  0.00  0.00    -0.052 S 
ATOM      2  O   UNL     1      13.082   8.756   5.726  0.00  0.00    -0.375 OA
ATOM      6  N   UNL     1      15.608   9.691   4.600  0.00  0.00    -0.304 N 
ATOM      7  N   UNL     1      17.530   9.244   5.952  0.00  0.00    -0.225 NA
ATOM      9  C   UNL     1      14.062   8.013   3.592  0.00  0.00    +0.221 C 
ATOM     10  C   UNL     1      14.800   9.346   3.420  0.00  0.00    +0.154 C 
ATOM     11  C   UNL     1      14.877  10.420   5.645  0.00  0.00    +0.135 C 
ATOM     12  C   UNL     1      13.639   7.654   5.018  0.00  0.00    +0.206 C 
ATOM     13  C   UNL     1      14.046   9.471   6.503  0.00  0.00    +0.179 C 
ATOM     14  C   UNL     1      16.875   9.155   4.818  0.00  0.00    +0.162 A 
ATOM     15  C   UNL     1      19.009   8.035   4.582  0.00  0.00    +0.041 A 
ATOM     16  C   UNL     1      18.756   8.607   5.833  0.00  0.00    +0.080 A 
ATOM     18  C   UNL     1      20.207   7.355   4.307  0.00  0.00    +0.017 A 
ATOM     19  C   UNL     1      19.737   8.494   6.842  0.00  0.00    +0.029 A 
ATOM     22  C   UNL     1      21.162   7.257   5.323  0.00  0.00    +0.001 A 
ATOM     23  C   UNL     1      20.932   7.819   6.574  0.00  0.00    +0.002 A 
ENDROOT
BRANCH   9   3
ATOM      3  O   UNL     1      14.856   6.938   3.092  0.00  0.00    -0.443 OA
BRANCH   3  17
ATOM      4  O   UNL     1      12.962   5.879   2.343  0.00  0.00    -0.226 OA
ATOM      8  N   UNL     1      15.039   4.845   2.288  0.00  0.00    -0.277 N 
ATOM     17  C   UNL     1      14.170   5.884   2.552  0.00  0.00    +0.401 C 
ATOM     30  H   UNL     1      16.022   4.981   2.499  0.00  0.00    +0.152 HD
BRANCH   8  20
ATOM     20  C   UNL     1      14.629   3.585   1.714  0.00  0.00    +0.142 C 
BRANCH  20  21
ATOM     21  C   UNL     1      14.280   3.717   0.260  0.00  0.00    -0.030 A 
ATOM     24  C   UNL     1      13.040   3.274  -0.204  0.00  0.00    +0.009 A 
ATOM     25  C   UNL     1      15.195   4.282  -0.629  0.00  0.00    +0.009 A 
ATOM     26  C   UNL     1      12.715   3.398  -1.554  0.00  0.00    +0.046 A 
ATOM     27  C   UNL     1      14.871   4.405  -1.980  0.00  0.00    +0.046 A 
ATOM     28  C   UNL     1      13.631   3.963  -2.442  0.00  0.00    +0.120 A 
BRANCH  28   5
ATOM      5  O   UNL     1      13.314   4.083  -3.761  0.00  0.00    -0.495 OA
ATOM     29  C   UNL     1      12.435   3.103  -4.309  0.00  0.00    +0.277 C 
ENDBRANCH  28   5
ENDBRANCH  20  21
ENDBRANCH   8  20
ENDBRANCH   3  17
ENDBRANCH   9   3
TORSDOF 5
ENDMDL
MODEL 7
REMARK VINA RESULT:      -6.3     28.683     33.019
REMARK  Name = 75367767
REMARK  6 active torsions:
REMARK  status: ('A' for Active; 'I' for Inactive)
REMARK    1  A    between atoms: O_3  and  C_9
REMARK    2  A    between atoms: O_3  and  C_17
REMARK    3  A    between atoms: O_5  and  C_28
REMARK    4  A    between atoms: O_5  and  C_29
REMARK    5  A    between atoms: N_8  and  C_20
REMARK    6  A    between atoms: C_20  and  C_21
REMARK                            x       y       z     vdW  Elec       q    Type
REMARK                         _______ _______ _______ _____ _____    ______ ____
ROOT
ATOM      1  S   UNL     1     -15.505   3.286  32.908  0.00  0.00    -0.052 S 
ATOM      2  O   UNL     1     -16.111   8.111  31.415  0.00  0.00    -0.375 OA
ATOM      6  N   UNL     1     -16.955   5.444  32.247  0.00  0.00    -0.304 N 
ATOM      7  N   UNL     1     -16.601   3.730  30.617  0.00  0.00    -0.225 NA
ATOM      9  C   UNL     1     -15.214   6.859  33.337  0.00  0.00    +0.221 C 
ATOM     10  C   UNL     1     -16.529   6.087  33.500  0.00  0.00    +0.154 C 
ATOM     11  C   UNL     1     -17.760   6.301  31.366  0.00  0.00    +0.135 C 
ATOM     12  C   UNL     1     -14.959   7.477  31.960  0.00  0.00    +0.206 C 
ATOM     13  C   UNL     1     -16.877   7.253  30.566  0.00  0.00    +0.179 C 
ATOM     14  C   UNL     1     -16.432   4.225  31.821  0.00  0.00    +0.162 A 
ATOM     15  C   UNL     1     -15.293   2.093  31.682  0.00  0.00    +0.041 A 
ATOM     16  C   UNL     1     -15.954   2.507  30.522  0.00  0.00    +0.080 A 
ATOM     18  C   UNL     1     -14.592   0.878  31.742  0.00  0.00    +0.017 A 
ATOM     19  C   UNL     1     -15.910   1.674  29.383  0.00  0.00    +0.029 A 
ATOM     22  C   UNL     1     -14.564   0.072  30.601  0.00  0.00    +0.001 A 
ATOM     23  C   UNL     1     -15.215   0.463  29.435  0.00  0.00    +0.002 A 
ENDROOT
BRANCH   9   3
ATOM      3  O   UNL     1     -14.104   6.017  33.645  0.00  0.00    -0.443 OA
BRANCH   3  17
ATOM      4  O   UNL     1     -13.909   5.050  35.719  0.00  0.00    -0.226 OA
ATOM      8  N   UNL     1     -13.082   7.174  35.282  0.00  0.00    -0.277 N 
ATOM     17  C   UNL     1     -13.715   5.992  34.958  0.00  0.00    +0.401 C 
ATOM     30  H   UNL     1     -12.976   7.873  34.554  0.00  0.00    +0.152 HD
BRANCH   8  20
ATOM     20  C   UNL     1     -12.551   7.465  36.594  0.00  0.00    +0.142 C 
BRANCH  20  21
ATOM     21  C   UNL     1     -11.222   8.158  36.520  0.00  0.00    -0.030 A 
ATOM     24  C   UNL     1     -11.050   9.249  35.667  0.00  0.00    +0.009 A 
ATOM     25  C   UNL     1     -10.158   7.712  37.305  0.00  0.00    +0.009 A 
ATOM     26  C   UNL     1      -9.815   9.893  35.599  0.00  0.00    +0.046 A 
ATOM     27  C   UNL     1      -8.923   8.356  37.237  0.00  0.00    +0.046 A 
ATOM     28  C   UNL     1      -8.751   9.446  36.384  0.00  0.00    +0.120 A 
BRANCH  28   5
ATOM      5  O   UNL     1      -7.546  10.076  36.318  0.00  0.00    -0.495 OA
ATOM     29  C   UNL     1      -7.275  10.836  35.142  0.00  0.00    +0.277 C 
ENDBRANCH  28   5
ENDBRANCH  20  21
ENDBRANCH   8  20
ENDBRANCH   3  17
ENDBRANCH   9   3
TORSDOF 5
ENDMDL
MODEL 8
REMARK VINA RESULT:      -6.1     28.807     31.707
REMARK  Name = 75367767
REMARK  6 active torsions:
REMARK  status: ('A' for Active; 'I' for Inactive)
REMARK    1  A    between atoms: O_3  and  C_9
REMARK    2  A    between atoms: O_3  and  C_17
REMARK    3  A    between atoms: O_5  and  C_28
REMARK    4  A    between atoms: O_5  and  C_29
REMARK    5  A    between atoms: N_8  and  C_20
REMARK    6  A    between atoms: C_20  and  C_21
REMARK                            x       y       z     vdW  Elec       q    Type
REMARK                         _______ _______ _______ _____ _____    ______ ____
ROOT
ATOM      1  S   UNL     1     -13.793  10.754  29.602  0.00  0.00    -0.052 S 
ATOM      2  O   UNL     1     -11.242   9.304  33.758  0.00  0.00    -0.375 OA
ATOM      6  N   UNL     1     -12.282  11.179  31.778  0.00  0.00    -0.304 N 
ATOM      7  N   UNL     1     -11.232  11.052  29.633  0.00  0.00    -0.225 NA
ATOM      9  C   UNL     1     -13.561   9.374  32.930  0.00  0.00    +0.221 C 
ATOM     10  C   UNL     1     -13.448  10.872  32.621  0.00  0.00    +0.154 C 
ATOM     11  C   UNL     1     -11.036  11.408  32.522  0.00  0.00    +0.135 C 
ATOM     12  C   UNL     1     -12.243   8.603  33.027  0.00  0.00    +0.206 C 
ATOM     13  C   UNL     1     -10.385  10.090  32.926  0.00  0.00    +0.179 C 
ATOM     14  C   UNL     1     -12.300  11.017  30.394  0.00  0.00    +0.162 A 
ATOM     15  C   UNL     1     -12.966  10.675  28.091  0.00  0.00    +0.041 A 
ATOM     16  C   UNL     1     -11.597  10.857  28.309  0.00  0.00    +0.080 A 
ATOM     18  C   UNL     1     -13.491  10.466  26.806  0.00  0.00    +0.017 A 
ATOM     19  C   UNL     1     -10.725  10.829  27.200  0.00  0.00    +0.029 A 
ATOM     22  C   UNL     1     -12.606  10.443  25.725  0.00  0.00    +0.001 A 
ATOM     23  C   UNL     1     -11.240  10.622  25.917  0.00  0.00    +0.002 A 
ENDROOT
BRANCH   9   3
ATOM      3  O   UNL     1     -14.371   8.726  31.951  0.00  0.00    -0.443 OA
BRANCH   3  17
ATOM      4  O   UNL     1     -16.243   8.136  33.143  0.00  0.00    -0.226 OA
ATOM      8  N   UNL     1     -14.988   6.563  31.988  0.00  0.00    -0.277 N 
ATOM     17  C   UNL     1     -15.293   7.833  32.429  0.00  0.00    +0.401 C 
ATOM     30  H   UNL     1     -14.176   6.448  31.391  0.00  0.00    +0.152 HD
BRANCH   8  20
ATOM     20  C   UNL     1     -15.768   5.392  32.317  0.00  0.00    +0.142 C 
BRANCH  20  21
ATOM     21  C   UNL     1     -15.133   4.132  31.803  0.00  0.00    -0.030 A 
ATOM     24  C   UNL     1     -14.274   3.399  32.622  0.00  0.00    +0.009 A 
ATOM     25  C   UNL     1     -15.402   3.695  30.506  0.00  0.00    +0.009 A 
ATOM     26  C   UNL     1     -13.685   2.228  32.145  0.00  0.00    +0.046 A 
ATOM     27  C   UNL     1     -14.813   2.525  30.028  0.00  0.00    +0.046 A 
ATOM     28  C   UNL     1     -13.955   1.791  30.847  0.00  0.00    +0.120 A 
BRANCH  28   5
ATOM      5  O   UNL     1     -13.380   0.649  30.381  0.00  0.00    -0.495 OA
ATOM     29  C   UNL     1     -14.168  -0.169  29.519  0.00  0.00    +0.277 C 
ENDBRANCH  28   5
ENDBRANCH  20  21
ENDBRANCH   8  20
ENDBRANCH   3  17
ENDBRANCH   9   3
TORSDOF 5
ENDMDL
MODEL 9
REMARK VINA RESULT:      -6.1     28.663     31.429
REMARK  Name = 75367767
REMARK  6 active torsions:
REMARK  status: ('A' for Active; 'I' for Inactive)
REMARK    1  A    between atoms: O_3  and  C_9
REMARK    2  A    between atoms: O_3  and  C_17
REMARK    3  A    between atoms: O_5  and  C_28
REMARK    4  A    between atoms: O_5  and  C_29
REMARK    5  A    between atoms: N_8  and  C_20
REMARK    6  A    between atoms: C_20  and  C_21
REMARK                            x       y       z     vdW  Elec       q    Type
REMARK                         _______ _______ _______ _____ _____    ______ ____
ROOT
ATOM      1  S   UNL     1      -4.391 -12.573   8.320  0.00  0.00    -0.052 S 
ATOM      2  O   UNL     1      -6.244  -8.106   9.899  0.00  0.00    -0.375 OA
ATOM      6  N   UNL     1      -6.360 -10.858   8.936  0.00  0.00    -0.304 N 
ATOM      7  N   UNL     1      -5.732 -11.143   6.645  0.00  0.00    -0.225 NA
ATOM      9  C   UNL     1      -4.930  -9.991  10.786  0.00  0.00    +0.221 C 
ATOM     10  C   UNL     1      -6.006 -10.996  10.357  0.00  0.00    +0.154 C 
ATOM     11  C   UNL     1      -7.411  -9.869   8.663  0.00  0.00    +0.135 C 
ATOM     12  C   UNL     1      -4.936  -8.644  10.060  0.00  0.00    +0.206 C 
ATOM     13  C   UNL     1      -6.844  -8.453   8.649  0.00  0.00    +0.179 C 
ATOM     14  C   UNL     1      -5.595 -11.427   7.919  0.00  0.00    +0.162 A 
ATOM     15  C   UNL     1      -3.993 -12.725   6.649  0.00  0.00    +0.041 A 
ATOM     16  C   UNL     1      -4.820 -11.879   5.904  0.00  0.00    +0.080 A 
ATOM     18  C   UNL     1      -3.020 -13.535   6.042  0.00  0.00    +0.017 A 
ATOM     19  C   UNL     1      -4.666 -11.844   4.501  0.00  0.00    +0.029 A 
ATOM     22  C   UNL     1      -2.887 -13.481   4.652  0.00  0.00    +0.001 A 
ATOM     23  C   UNL     1      -3.699 -12.648   3.889  0.00  0.00    +0.002 A 
ENDROOT
BRANCH   9   3
ATOM      3  O   UNL     1      -3.631 -10.561  10.631  0.00  0.00    -0.443 OA
BRANCH   3  17
ATOM      4  O   UNL     1      -2.791 -12.387  11.741  0.00  0.00    -0.226 OA
ATOM      8  N   UNL     1      -3.048 -10.335  12.792  0.00  0.00    -0.277 N 
ATOM     17  C   UNL     1      -3.123 -11.207  11.726  0.00  0.00    +0.401 C 
ATOM     30  H   UNL     1      -3.348  -9.376  12.646  0.00  0.00    +0.152 HD
BRANCH   8  20
ATOM     20  C   UNL     1      -2.555 -10.706  14.098  0.00  0.00    +0.142 C 
BRANCH  20  21
ATOM     21  C   UNL     1      -3.632 -10.651  15.142  0.00  0.00    -0.030 A 
ATOM     24  C   UNL     1      -3.338 -10.979  16.466  0.00  0.00    +0.009 A 
ATOM     25  C   UNL     1      -4.928 -10.274  14.789  0.00  0.00    +0.009 A 
ATOM     26  C   UNL     1      -4.339 -10.927  17.436  0.00  0.00    +0.046 A 
ATOM     27  C   UNL     1      -5.929 -10.223  15.758  0.00  0.00    +0.046 A 
ATOM     28  C   UNL     1      -5.634 -10.549  17.082  0.00  0.00    +0.120 A 
BRANCH  28   5
ATOM      5  O   UNL     1      -6.611 -10.499  18.029  0.00  0.00    -0.495 OA
ATOM     29  C   UNL     1      -7.813  -9.812  17.685  0.00  0.00    +0.277 C 
ENDBRANCH  28   5
ENDBRANCH  20  21
ENDBRANCH   8  20
ENDBRANCH   3  17
ENDBRANCH   9   3
TORSDOF 5
ENDMDL
MODEL 10
REMARK VINA RESULT:      -6.0     28.359     31.106
REMARK  Name = 75367767
REMARK  6 active torsions:
REMARK  status: ('A' for Active; 'I' for Inactive)
REMARK    1  A    between atoms: O_3  and  C_9
REMARK    2  A    between atoms: O_3  and  C_17
REMARK    3  A    between atoms: O_5  and  C_28
REMARK    4  A    between atoms: O_5  and  C_29
REMARK    5  A    between atoms: N_8  and  C_20
REMARK    6  A    between atoms: C_20  and  C_21
REMARK                            x       y       z     vdW  Elec       q    Type
REMARK                         _______ _______ _______ _____ _____    ______ ____
ROOT
ATOM      1  S   UNL     1      -4.883 -14.054  16.983  0.00  0.00    -0.052 S 
ATOM      2  O   UNL     1      -6.292  -9.173  16.714  0.00  0.00    -0.375 OA
ATOM      6  N   UNL     1      -5.843 -11.760  17.989  0.00  0.00    -0.304 N 
ATOM      7  N   UNL     1      -7.372 -13.477  17.331  0.00  0.00    -0.225 NA
ATOM      9  C   UNL     1      -4.246 -10.531  16.520  0.00  0.00    +0.221 C 
ATOM     10  C   UNL     1      -4.496 -11.177  17.888  0.00  0.00    +0.154 C 
ATOM     11  C   UNL     1      -6.882 -10.819  18.429  0.00  0.00    +0.135 C 
ATOM     12  C   UNL     1      -5.467  -9.921  15.827  0.00  0.00    +0.206 C 
ATOM     13  C   UNL     1      -7.358  -9.944  17.274  0.00  0.00    +0.179 C 
ATOM     14  C   UNL     1      -6.151 -13.017  17.473  0.00  0.00    +0.162 A 
ATOM     15  C   UNL     1      -6.045 -15.245  16.531  0.00  0.00    +0.041 A 
ATOM     16  C   UNL     1      -7.328 -14.754  16.792  0.00  0.00    +0.080 A 
ATOM     18  C   UNL     1      -5.837 -16.522  15.985  0.00  0.00    +0.017 A 
ATOM     19  C   UNL     1      -8.440 -15.572  16.495  0.00  0.00    +0.029 A 
ATOM     22  C   UNL     1      -6.954 -17.311  15.700  0.00  0.00    +0.001 A 
ATOM     23  C   UNL     1      -8.239 -16.845  15.951  0.00  0.00    +0.002 A 
ENDROOT
BRANCH   9   3
ATOM      3  O   UNL     1      -3.667 -11.478  15.622  0.00  0.00    -0.443 OA
BRANCH   3  17
ATOM      4  O   UNL     1      -1.602 -10.553  15.231  0.00  0.00    -0.226 OA
ATOM      8  N   UNL     1      -3.029 -11.127  13.494  0.00  0.00    -0.277 N 
ATOM     17  C   UNL     1      -2.664 -11.009  14.818  0.00  0.00    +0.401 C 
ATOM     30  H   UNL     1      -3.936 -11.532  13.285  0.00  0.00    +0.152 HD
BRANCH   8  20
ATOM     20  C   UNL     1      -2.189 -10.720  12.391  0.00  0.00    +0.142 C 
BRANCH  20  21
ATOM     21  C   UNL     1      -2.983 -10.476  11.141  0.00  0.00    -0.030 A 
ATOM     24  C   UNL     1      -3.720 -11.513  10.568  0.00  0.00    +0.009 A 
ATOM     25  C   UNL     1      -2.984  -9.212  10.550  0.00  0.00    +0.009 A 
ATOM     26  C   UNL     1      -4.458 -11.286   9.407  0.00  0.00    +0.046 A 
ATOM     27  C   UNL     1      -3.721  -8.985   9.389  0.00  0.00    +0.046 A 
ATOM     28  C   UNL     1      -4.459 -10.022   8.817  0.00  0.00    +0.120 A 
BRANCH  28   5
ATOM      5  O   UNL     1      -5.179  -9.800   7.684  0.00  0.00    -0.495 OA
ATOM     29  C   UNL     1      -6.579  -9.573   7.838  0.00  0.00    +0.277 C 
ENDBRANCH  28   5
ENDBRANCH  20  21
ENDBRANCH   8  20
ENDBRANCH   3  17
ENDBRANCH   9   3
TORSDOF 5
ENDMDL
