MODEL 1
REMARK VINA RESULT:      -7.9      0.000      0.000
REMARK  Name = 11884270
REMARK  2 active torsions:
REMARK  status: ('A' for Active; 'I' for Inactive)
REMARK    1  A    between atoms: N_7  and  C_9
REMARK    2  A    between atoms: C_26  and  C_28
REMARK                            x       y       z     vdW  Elec       q    Type
REMARK                         _______ _______ _______ _____ _____    ______ ____
ROOT
ATOM      2  O   UNL     1     -17.607   2.612  22.337  0.00  0.00    -0.253 OA
ATOM      3  O   UNL     1     -13.986   4.005  22.392  0.00  0.00    -0.273 OA
ATOM      4  O   UNL     1     -14.573   9.231  22.919  0.00  0.00    -0.270 OA
ATOM      5  N   UNL     1     -16.821   4.699  22.988  0.00  0.00    -0.282 N 
ATOM      6  N   UNL     1     -15.222   7.060  22.453  0.00  0.00    -0.283 N 
ATOM      7  N   UNL     1     -17.700   3.180  24.565  0.00  0.00    -0.296 N 
ATOM      8  N   UNL     1     -12.728   5.721  21.589  0.00  0.00    -0.283 N 
ATOM     12  C   UNL     1     -15.186   5.922  21.546  0.00  0.00    +0.180 C 
ATOM     16  C   UNL     1     -16.460   5.071  21.617  0.00  0.00    +0.141 C 
ATOM     17  C   UNL     1     -16.558   5.697  24.031  0.00  0.00    +0.128 C 
ATOM     18  C   UNL     1     -16.283   7.081  23.461  0.00  0.00    +0.128 C 
ATOM     19  C   UNL     1     -17.395   3.437  23.231  0.00  0.00    +0.303 C 
ATOM     20  C   UNL     1     -13.935   5.138  21.912  0.00  0.00    +0.239 C 
ATOM     21  C   UNL     1     -14.424   8.188  22.281  0.00  0.00    +0.249 C 
ATOM     22  C   UNL     1     -13.309   8.138  21.299  0.00  0.00    +0.059 A 
ATOM     23  C   UNL     1     -12.492   7.016  21.083  0.00  0.00    +0.046 A 
ATOM     24  C   UNL     1     -12.970   9.363  20.695  0.00  0.00    +0.023 A 
ATOM     25  C   UNL     1     -11.317   7.166  20.326  0.00  0.00    +0.024 A 
ATOM     26  C   UNL     1     -11.825   9.481  19.906  0.00  0.00    -0.017 A 
ATOM     27  C   UNL     1     -10.990   8.385  19.734  0.00  0.00    +0.010 A 
ATOM     34  H   UNL     1     -17.385   3.820  25.284  0.00  0.00    +0.151 HD
ATOM     35  H   UNL     1     -11.919   5.105  21.632  0.00  0.00    +0.155 HD
ENDROOT
BRANCH  26  28
ATOM      1 CL   UNL     1     -10.468  14.699  17.373  0.00  0.00    -0.084 Cl
ATOM     28  C   UNL     1     -11.496  10.749  19.291  0.00  0.00    -0.018 A 
ATOM     29  C   UNL     1     -10.401  10.843  18.432  0.00  0.00    +0.010 A 
ATOM     30  C   UNL     1     -12.273  11.876  19.556  0.00  0.00    +0.010 A 
ATOM     31  C   UNL     1     -10.082  12.064  17.839  0.00  0.00    +0.020 A 
ATOM     32  C   UNL     1     -11.955  13.098  18.963  0.00  0.00    +0.020 A 
ATOM     33  C   UNL     1     -10.860  13.192  18.105  0.00  0.00    +0.041 A 
ENDBRANCH  26  28
BRANCH   7   9
ATOM      9  C   UNL     1     -18.288   1.932  24.996  0.00  0.00    +0.074 C 
ATOM     10  C   UNL     1     -17.207   0.931  25.417  0.00  0.00    +0.022 C 
ATOM     11  C   UNL     1     -19.303   2.160  26.121  0.00  0.00    +0.022 C 
ATOM     13  C   UNL     1     -16.542   1.311  26.741  0.00  0.00    +0.002 C 
ATOM     14  C   UNL     1     -18.636   2.538  27.443  0.00  0.00    +0.002 C 
ATOM     15  C   UNL     1     -17.572   1.521  27.848  0.00  0.00    +0.000 C 
ENDBRANCH   7   9
TORSDOF 2
ENDMDL
MODEL 2
REMARK VINA RESULT:      -7.6     28.700     32.723
REMARK  Name = 11884270
REMARK  2 active torsions:
REMARK  status: ('A' for Active; 'I' for Inactive)
REMARK    1  A    between atoms: N_7  and  C_9
REMARK    2  A    between atoms: C_26  and  C_28
REMARK                            x       y       z     vdW  Elec       q    Type
REMARK                         _______ _______ _______ _____ _____    ______ ____
ROOT
ATOM      2  O   UNL     1      13.165   3.148  -0.506  0.00  0.00    -0.253 OA
ATOM      3  O   UNL     1      11.135   3.319   2.797  0.00  0.00    -0.273 OA
ATOM      4  O   UNL     1       9.345   8.288   3.009  0.00  0.00    -0.270 OA
ATOM      5  N   UNL     1      11.637   4.738   0.226  0.00  0.00    -0.282 N 
ATOM      6  N   UNL     1      10.683   6.544   2.286  0.00  0.00    -0.283 N 
ATOM      7  N   UNL     1      11.140   3.310  -1.585  0.00  0.00    -0.296 N 
ATOM      8  N   UNL     1      10.752   4.677   4.582  0.00  0.00    -0.283 N 
ATOM     12  C   UNL     1      11.785   5.632   2.555  0.00  0.00    +0.180 C 
ATOM     16  C   UNL     1      12.533   5.219   1.282  0.00  0.00    +0.141 C 
ATOM     17  C   UNL     1      10.333   5.402   0.117  0.00  0.00    +0.128 C 
ATOM     18  C   UNL     1      10.277   6.712   0.891  0.00  0.00    +0.128 C 
ATOM     19  C   UNL     1      12.063   3.693  -0.616  0.00  0.00    +0.303 C 
ATOM     20  C   UNL     1      11.175   4.447   3.289  0.00  0.00    +0.239 C 
ATOM     21  C   UNL     1      10.141   7.381   3.258  0.00  0.00    +0.249 C 
ATOM     22  C   UNL     1      10.511   7.166   4.682  0.00  0.00    +0.059 A 
ATOM     23  C   UNL     1      10.686   5.904   5.273  0.00  0.00    +0.046 A 
ATOM     24  C   UNL     1      10.505   8.313   5.497  0.00  0.00    +0.023 A 
ATOM     25  C   UNL     1      10.777   5.815   6.673  0.00  0.00    +0.024 A 
ATOM     26  C   UNL     1      10.646   8.210   6.881  0.00  0.00    -0.017 A 
ATOM     27  C   UNL     1      10.768   6.959   7.471  0.00  0.00    +0.010 A 
ATOM     34  H   UNL     1      10.197   3.681  -1.555  0.00  0.00    +0.151 HD
ATOM     35  H   UNL     1      10.556   3.843   5.131  0.00  0.00    +0.155 HD
ENDROOT
BRANCH  26  28
ATOM      1 CL   UNL     1      10.622  13.118  10.257  0.00  0.00    -0.084 Cl
ATOM     28  C   UNL     1      10.640   9.402   7.701  0.00  0.00    -0.018 A 
ATOM     29  C   UNL     1       9.478   9.779   8.374  0.00  0.00    +0.010 A 
ATOM     30  C   UNL     1      11.796  10.174   7.818  0.00  0.00    +0.010 A 
ATOM     31  C   UNL     1       9.472  10.928   9.165  0.00  0.00    +0.020 A 
ATOM     32  C   UNL     1      11.790  11.323   8.608  0.00  0.00    +0.020 A 
ATOM     33  C   UNL     1      10.628  11.700   9.281  0.00  0.00    +0.041 A 
ENDBRANCH  26  28
BRANCH   7   9
ATOM      9  C   UNL     1      11.407   2.248  -2.529  0.00  0.00    +0.074 C 
ATOM     10  C   UNL     1      10.107   1.582  -2.992  0.00  0.00    +0.022 C 
ATOM     11  C   UNL     1      12.223   2.762  -3.720  0.00  0.00    +0.022 C 
ATOM     13  C   UNL     1       9.289   2.480  -3.922  0.00  0.00    +0.002 C 
ATOM     14  C   UNL     1      11.402   3.658  -4.648  0.00  0.00    +0.002 C 
ATOM     15  C   UNL     1      10.119   2.970  -5.105  0.00  0.00    +0.000 C 
ENDBRANCH   7   9
TORSDOF 2
ENDMDL
MODEL 3
REMARK VINA RESULT:      -7.4     16.443     18.684
REMARK  Name = 11884270
REMARK  2 active torsions:
REMARK  status: ('A' for Active; 'I' for Inactive)
REMARK    1  A    between atoms: N_7  and  C_9
REMARK    2  A    between atoms: C_26  and  C_28
REMARK                            x       y       z     vdW  Elec       q    Type
REMARK                         _______ _______ _______ _____ _____    ______ ____
ROOT
ATOM      2  O   UNL     1     -14.291 -11.945  19.671  0.00  0.00    -0.253 OA
ATOM      3  O   UNL     1     -10.767 -10.444  20.288  0.00  0.00    -0.273 OA
ATOM      4  O   UNL     1      -9.281  -8.545  15.584  0.00  0.00    -0.270 OA
ATOM      5  N   UNL     1     -13.036 -10.497  18.359  0.00  0.00    -0.282 N 
ATOM      6  N   UNL     1     -10.532  -9.812  17.061  0.00  0.00    -0.283 N 
ATOM      7  N   UNL     1     -15.010  -9.773  19.428  0.00  0.00    -0.296 N 
ATOM      8  N   UNL     1      -8.705 -10.297  19.338  0.00  0.00    -0.283 N 
ATOM     12  C   UNL     1     -10.619 -10.972  17.937  0.00  0.00    +0.180 C 
ATOM     16  C   UNL     1     -12.044 -11.528  18.041  0.00  0.00    +0.141 C 
ATOM     17  C   UNL     1     -12.816  -9.170  17.771  0.00  0.00    +0.128 C 
ATOM     18  C   UNL     1     -11.790  -9.191  16.647  0.00  0.00    +0.128 C 
ATOM     19  C   UNL     1     -14.127 -10.821  19.186  0.00  0.00    +0.303 C 
ATOM     20  C   UNL     1     -10.064 -10.522  19.280  0.00  0.00    +0.239 C 
ATOM     21  C   UNL     1      -9.342  -9.400  16.470  0.00  0.00    +0.249 C 
ATOM     22  C   UNL     1      -8.061  -9.992  16.939  0.00  0.00    +0.059 A 
ATOM     23  C   UNL     1      -7.773 -10.297  18.280  0.00  0.00    +0.046 A 
ATOM     24  C   UNL     1      -7.035 -10.073  15.979  0.00  0.00    +0.023 A 
ATOM     25  C   UNL     1      -6.450 -10.606  18.638  0.00  0.00    +0.024 A 
ATOM     26  C   UNL     1      -5.738 -10.430  16.345  0.00  0.00    -0.017 A 
ATOM     27  C   UNL     1      -5.441 -10.683  17.678  0.00  0.00    +0.010 A 
ATOM     34  H   UNL     1     -14.769  -8.835  19.131  0.00  0.00    +0.151 HD
ATOM     35  H   UNL     1      -8.316 -10.215  20.275  0.00  0.00    +0.155 HD
ENDROOT
BRANCH  26  28
ATOM      1 CL   UNL     1      -1.457 -10.768  12.216  0.00  0.00    -0.084 Cl
ATOM     28  C   UNL     1      -4.698 -10.512  15.342  0.00  0.00    -0.018 A 
ATOM     29  C   UNL     1      -5.027 -10.431  13.989  0.00  0.00    +0.010 A 
ATOM     30  C   UNL     1      -3.367 -10.671  15.728  0.00  0.00    +0.010 A 
ATOM     31  C   UNL     1      -4.025 -10.511  13.021  0.00  0.00    +0.020 A 
ATOM     32  C   UNL     1      -2.365 -10.751  14.761  0.00  0.00    +0.020 A 
ATOM     33  C   UNL     1      -2.694 -10.671  13.408  0.00  0.00    +0.041 A 
ENDBRANCH  26  28
BRANCH   7   9
ATOM      9  C   UNL     1     -16.181  -9.926  20.262  0.00  0.00    +0.074 C 
ATOM     10  C   UNL     1     -16.008  -9.191  21.596  0.00  0.00    +0.022 C 
ATOM     11  C   UNL     1     -17.444  -9.461  19.531  0.00  0.00    +0.022 C 
ATOM     13  C   UNL     1     -16.069  -7.671  21.437  0.00  0.00    +0.002 C 
ATOM     14  C   UNL     1     -17.503  -7.941  19.375  0.00  0.00    +0.002 C 
ATOM     15  C   UNL     1     -17.340  -7.231  20.716  0.00  0.00    +0.000 C 
ENDBRANCH   7   9
TORSDOF 2
ENDMDL
MODEL 4
REMARK VINA RESULT:      -7.3     22.959     24.753
REMARK  Name = 11884270
REMARK  2 active torsions:
REMARK  status: ('A' for Active; 'I' for Inactive)
REMARK    1  A    between atoms: N_7  and  C_9
REMARK    2  A    between atoms: C_26  and  C_28
REMARK                            x       y       z     vdW  Elec       q    Type
REMARK                         _______ _______ _______ _____ _____    ______ ____
ROOT
ATOM      2  O   UNL     1      -2.682 -10.315  15.435  0.00  0.00    -0.253 OA
ATOM      3  O   UNL     1      -5.271  -9.993  12.563  0.00  0.00    -0.273 OA
ATOM      4  O   UNL     1      -4.488 -14.281   9.572  0.00  0.00    -0.270 OA
ATOM      5  N   UNL     1      -3.423 -11.903  13.910  0.00  0.00    -0.282 N 
ATOM      6  N   UNL     1      -3.980 -12.690  11.173  0.00  0.00    -0.283 N 
ATOM      7  N   UNL     1      -3.969 -12.062  16.198  0.00  0.00    -0.296 N 
ATOM      8  N   UNL     1      -5.482 -10.287  10.316  0.00  0.00    -0.283 N 
ATOM     12  C   UNL     1      -3.572 -11.327  11.482  0.00  0.00    +0.180 C 
ATOM     16  C   UNL     1      -2.766 -11.233  12.783  0.00  0.00    +0.141 C 
ATOM     17  C   UNL     1      -4.162 -13.132  13.602  0.00  0.00    +0.128 C 
ATOM     18  C   UNL     1      -3.824 -13.691  12.227  0.00  0.00    +0.128 C 
ATOM     19  C   UNL     1      -3.309 -11.352  15.200  0.00  0.00    +0.303 C 
ATOM     20  C   UNL     1      -4.854 -10.509  11.524  0.00  0.00    +0.239 C 
ATOM     21  C   UNL     1      -4.326 -13.101   9.889  0.00  0.00    +0.249 C 
ATOM     22  C   UNL     1      -4.543 -12.073   8.836  0.00  0.00    +0.059 A 
ATOM     23  C   UNL     1      -5.167 -10.834   9.055  0.00  0.00    +0.046 A 
ATOM     24  C   UNL     1      -4.252 -12.474   7.519  0.00  0.00    +0.023 A 
ATOM     25  C   UNL     1      -5.548 -10.059   7.947  0.00  0.00    +0.024 A 
ATOM     26  C   UNL     1      -4.594 -11.669   6.433  0.00  0.00    -0.017 A 
ATOM     27  C   UNL     1      -5.256 -10.467   6.646  0.00  0.00    +0.010 A 
ATOM     34  H   UNL     1      -4.587 -12.826  15.948  0.00  0.00    +0.151 HD
ATOM     35  H   UNL     1      -6.200  -9.566  10.323  0.00  0.00    +0.155 HD
ENDROOT
BRANCH  26  28
ATOM      1 CL   UNL     1      -3.310 -13.431   0.889  0.00  0.00    -0.084 Cl
ATOM     28  C   UNL     1      -4.282 -12.097   5.086  0.00  0.00    -0.018 A 
ATOM     29  C   UNL     1      -2.969 -12.420   4.744  0.00  0.00    +0.010 A 
ATOM     30  C   UNL     1      -5.294 -12.187   4.130  0.00  0.00    +0.010 A 
ATOM     31  C   UNL     1      -2.668 -12.833   3.446  0.00  0.00    +0.020 A 
ATOM     32  C   UNL     1      -4.993 -12.598   2.833  0.00  0.00    +0.020 A 
ATOM     33  C   UNL     1      -3.680 -12.921   2.490  0.00  0.00    +0.041 A 
ENDBRANCH  26  28
BRANCH   7   9
ATOM      9  C   UNL     1      -3.965 -11.636  17.580  0.00  0.00    +0.074 C 
ATOM     10  C   UNL     1      -4.785 -10.355  17.764  0.00  0.00    +0.022 C 
ATOM     11  C   UNL     1      -4.465 -12.753  18.503  0.00  0.00    +0.022 C 
ATOM     13  C   UNL     1      -6.289 -10.599  17.631  0.00  0.00    +0.002 C 
ATOM     14  C   UNL     1      -5.968 -12.993  18.369  0.00  0.00    +0.002 C 
ATOM     15  C   UNL     1      -6.764 -11.706  18.567  0.00  0.00    +0.000 C 
ENDBRANCH   7   9
TORSDOF 2
ENDMDL
MODEL 5
REMARK VINA RESULT:      -7.3     28.165     29.832
REMARK  Name = 11884270
REMARK  2 active torsions:
REMARK  status: ('A' for Active; 'I' for Inactive)
REMARK    1  A    between atoms: N_7  and  C_9
REMARK    2  A    between atoms: C_26  and  C_28
REMARK                            x       y       z     vdW  Elec       q    Type
REMARK                         _______ _______ _______ _____ _____    ______ ____
ROOT
ATOM      2  O   UNL     1       8.854  -5.213  38.040  0.00  0.00    -0.253 OA
ATOM      3  O   UNL     1       7.163  -5.537  34.564  0.00  0.00    -0.273 OA
ATOM      4  O   UNL     1       5.081 -10.395  34.539  0.00  0.00    -0.270 OA
ATOM      5  N   UNL     1       7.307  -6.766  37.273  0.00  0.00    -0.282 N 
ATOM      6  N   UNL     1       6.450  -8.678  35.266  0.00  0.00    -0.283 N 
ATOM      7  N   UNL     1       6.723  -5.169  38.907  0.00  0.00    -0.296 N 
ATOM      8  N   UNL     1       6.874  -7.012  32.856  0.00  0.00    -0.283 N 
ATOM     12  C   UNL     1       7.631  -7.856  35.047  0.00  0.00    +0.180 C 
ATOM     16  C   UNL     1       8.272  -7.383  36.358  0.00  0.00    +0.141 C 
ATOM     17  C   UNL     1       5.958  -7.344  37.293  0.00  0.00    +0.128 C 
ATOM     18  C   UNL     1       5.895  -8.707  36.619  0.00  0.00    +0.128 C 
ATOM     19  C   UNL     1       7.713  -5.682  38.074  0.00  0.00    +0.303 C 
ATOM     20  C   UNL     1       7.178  -6.702  34.165  0.00  0.00    +0.239 C 
ATOM     21  C   UNL     1       5.956  -9.559  34.308  0.00  0.00    +0.249 C 
ATOM     22  C   UNL     1       6.482  -9.483  32.919  0.00  0.00    +0.059 A 
ATOM     23  C   UNL     1       6.798  -8.286  32.256  0.00  0.00    +0.046 A 
ATOM     24  C   UNL     1       6.483 -10.691  32.197  0.00  0.00    +0.023 A 
ATOM     25  C   UNL     1       7.036  -8.318  30.871  0.00  0.00    +0.024 A 
ATOM     26  C   UNL     1       6.770 -10.711  30.833  0.00  0.00    -0.017 A 
ATOM     27  C   UNL     1       7.033  -9.521  30.165  0.00  0.00    +0.010 A 
ATOM     34  H   UNL     1       5.767  -5.486  38.806  0.00  0.00    +0.151 HD
ATOM     35  H   UNL     1       6.790  -6.217  32.227  0.00  0.00    +0.155 HD
ENDROOT
BRANCH  26  28
ATOM      1 CL   UNL     1       6.768 -15.870  27.854  0.00  0.00    -0.084 Cl
ATOM     28  C   UNL     1       6.769 -11.963  30.109  0.00  0.00    -0.018 A 
ATOM     29  C   UNL     1       5.763 -12.901  30.340  0.00  0.00    +0.010 A 
ATOM     30  C   UNL     1       7.774 -12.234  29.181  0.00  0.00    +0.010 A 
ATOM     31  C   UNL     1       5.762 -14.110  29.643  0.00  0.00    +0.020 A 
ATOM     32  C   UNL     1       7.774 -13.442  28.484  0.00  0.00    +0.020 A 
ATOM     33  C   UNL     1       6.768 -14.380  28.715  0.00  0.00    +0.041 A 
ENDBRANCH  26  28
BRANCH   7   9
ATOM      9  C   UNL     1       6.963  -4.050  39.792  0.00  0.00    +0.074 C 
ATOM     10  C   UNL     1       6.521  -2.733  39.146  0.00  0.00    +0.022 C 
ATOM     11  C   UNL     1       6.279  -4.262  41.146  0.00  0.00    +0.022 C 
ATOM     13  C   UNL     1       4.999  -2.604  39.063  0.00  0.00    +0.002 C 
ATOM     14  C   UNL     1       4.758  -4.131  41.060  0.00  0.00    +0.002 C 
ATOM     15  C   UNL     1       4.342  -2.808  40.425  0.00  0.00    +0.000 C 
ENDBRANCH   7   9
TORSDOF 2
ENDMDL
MODEL 6
REMARK VINA RESULT:      -7.2     17.748     21.566
REMARK  Name = 11884270
REMARK  2 active torsions:
REMARK  status: ('A' for Active; 'I' for Inactive)
REMARK    1  A    between atoms: N_7  and  C_9
REMARK    2  A    between atoms: C_26  and  C_28
REMARK                            x       y       z     vdW  Elec       q    Type
REMARK                         _______ _______ _______ _____ _____    ______ ____
ROOT
ATOM      2  O   UNL     1      -3.355 -11.047  17.788  0.00  0.00    -0.253 OA
ATOM      3  O   UNL     1      -6.560 -13.207  18.125  0.00  0.00    -0.273 OA
ATOM      4  O   UNL     1     -10.513  -9.945  16.831  0.00  0.00    -0.270 OA
ATOM      5  N   UNL     1      -5.506 -10.658  17.002  0.00  0.00    -0.282 N 
ATOM      6  N   UNL     1      -8.367 -10.529  17.469  0.00  0.00    -0.283 N 
ATOM      7  N   UNL     1      -3.729 -11.112  15.518  0.00  0.00    -0.296 N 
ATOM      8  N   UNL     1      -8.702 -13.107  18.885  0.00  0.00    -0.283 N 
ATOM     12  C   UNL     1      -7.468 -11.004  18.511  0.00  0.00    +0.180 C 
ATOM     16  C   UNL     1      -6.042 -10.462  18.352  0.00  0.00    +0.141 C 
ATOM     17  C   UNL     1      -6.458 -10.530  15.892  0.00  0.00    +0.128 C 
ATOM     18  C   UNL     1      -7.762  -9.868  16.313  0.00  0.00    +0.128 C 
ATOM     19  C   UNL     1      -4.138 -10.943  16.838  0.00  0.00    +0.303 C 
ATOM     20  C   UNL     1      -7.530 -12.523  18.454  0.00  0.00    +0.239 C 
ATOM     21  C   UNL     1      -9.751 -10.514  17.616  0.00  0.00    +0.249 C 
ATOM     22  C   UNL     1     -10.363 -11.239  18.760  0.00  0.00    +0.059 A 
ATOM     23  C   UNL     1      -9.910 -12.476  19.248  0.00  0.00    +0.046 A 
ATOM     24  C   UNL     1     -11.574 -10.710  19.245  0.00  0.00    +0.023 A 
ATOM     25  C   UNL     1     -10.715 -13.186  20.155  0.00  0.00    +0.024 A 
ATOM     26  C   UNL     1     -12.337 -11.407  20.182  0.00  0.00    -0.017 A 
ATOM     27  C   UNL     1     -11.914 -12.653  20.627  0.00  0.00    +0.010 A 
ATOM     34  H   UNL     1      -4.422 -11.160  14.780  0.00  0.00    +0.151 HD
ATOM     35  H   UNL     1      -8.654 -14.110  19.052  0.00  0.00    +0.155 HD
ENDROOT
BRANCH  26  28
ATOM      1 CL   UNL     1     -17.443  -9.091  22.193  0.00  0.00    -0.084 Cl
ATOM     28  C   UNL     1     -13.577 -10.844  20.670  0.00  0.00    -0.018 A 
ATOM     29  C   UNL     1     -14.410 -11.602  21.493  0.00  0.00    +0.010 A 
ATOM     30  C   UNL     1     -13.940  -9.544  20.319  0.00  0.00    +0.010 A 
ATOM     31  C   UNL     1     -15.606 -11.061  21.964  0.00  0.00    +0.020 A 
ATOM     32  C   UNL     1     -15.135  -9.002  20.789  0.00  0.00    +0.020 A 
ATOM     33  C   UNL     1     -15.968  -9.760  21.612  0.00  0.00    +0.041 A 
ENDBRANCH  26  28
BRANCH   7   9
ATOM      9  C   UNL     1      -2.361 -11.419  15.167  0.00  0.00    +0.074 C 
ATOM     10  C   UNL     1      -2.262 -12.783  14.477  0.00  0.00    +0.022 C 
ATOM     11  C   UNL     1      -1.754 -10.311  14.299  0.00  0.00    +0.022 C 
ATOM     13  C   UNL     1      -2.836 -12.764  13.059  0.00  0.00    +0.002 C 
ATOM     14  C   UNL     1      -2.329 -10.297  12.883  0.00  0.00    +0.002 C 
ATOM     15  C   UNL     1      -2.208 -11.662  12.212  0.00  0.00    +0.000 C 
ENDBRANCH   7   9
TORSDOF 2
ENDMDL
MODEL 7
REMARK VINA RESULT:      -7.2     28.255     31.160
REMARK  Name = 11884270
REMARK  2 active torsions:
REMARK  status: ('A' for Active; 'I' for Inactive)
REMARK    1  A    between atoms: N_7  and  C_9
REMARK    2  A    between atoms: C_26  and  C_28
REMARK                            x       y       z     vdW  Elec       q    Type
REMARK                         _______ _______ _______ _____ _____    ______ ____
ROOT
ATOM      2  O   UNL     1       8.666  11.782   8.975  0.00  0.00    -0.253 OA
ATOM      3  O   UNL     1       9.348   7.997   8.464  0.00  0.00    -0.273 OA
ATOM      4  O   UNL     1      13.379   7.813   5.050  0.00  0.00    -0.270 OA
ATOM      5  N   UNL     1      10.503  10.710   8.041  0.00  0.00    -0.282 N 
ATOM      6  N   UNL     1      11.605   8.767   6.188  0.00  0.00    -0.283 N 
ATOM      7  N   UNL     1      10.669  11.837  10.106  0.00  0.00    -0.296 N 
ATOM      8  N   UNL     1       9.842   6.481   6.841  0.00  0.00    -0.283 N 
ATOM     12  C   UNL     1      10.165   8.881   6.371  0.00  0.00    +0.180 C 
ATOM     16  C   UNL     1       9.741  10.268   6.869  0.00  0.00    +0.141 C 
ATOM     17  C   UNL     1      11.918  10.323   8.089  0.00  0.00    +0.128 C 
ATOM     18  C   UNL     1      12.437   9.834   6.744  0.00  0.00    +0.128 C 
ATOM     19  C   UNL     1       9.859  11.469   9.036  0.00  0.00    +0.303 C 
ATOM     20  C   UNL     1       9.779   7.768   7.333  0.00  0.00    +0.239 C 
ATOM     21  C   UNL     1      12.188   7.807   5.366  0.00  0.00    +0.249 C 
ATOM     22  C   UNL     1      11.349   6.691   4.854  0.00  0.00    +0.059 A 
ATOM     23  C   UNL     1      10.349   6.045   5.599  0.00  0.00    +0.046 A 
ATOM     24  C   UNL     1      11.728   6.162   3.606  0.00  0.00    +0.023 A 
ATOM     25  C   UNL     1       9.804   4.845   5.110  0.00  0.00    +0.024 A 
ATOM     26  C   UNL     1      11.142   4.996   3.114  0.00  0.00    -0.017 A 
ATOM     27  C   UNL     1      10.190   4.329   3.873  0.00  0.00    +0.010 A 
ATOM     34  H   UNL     1      11.600  11.446  10.190  0.00  0.00    +0.151 HD
ATOM     35  H   UNL     1       9.377   5.774   7.406  0.00  0.00    +0.155 HD
ENDROOT
BRANCH  26  28
ATOM      1 CL   UNL     1      12.793   2.828  -2.183  0.00  0.00    -0.084 Cl
ATOM     28  C   UNL     1      11.543   4.470   1.828  0.00  0.00    -0.018 A 
ATOM     29  C   UNL     1      10.758   4.711   0.700  0.00  0.00    +0.010 A 
ATOM     30  C   UNL     1      12.715   3.721   1.714  0.00  0.00    +0.010 A 
ATOM     31  C   UNL     1      11.144   4.203  -0.541  0.00  0.00    +0.020 A 
ATOM     32  C   UNL     1      13.101   3.213   0.474  0.00  0.00    +0.020 A 
ATOM     33  C   UNL     1      12.315   3.454  -0.653  0.00  0.00    +0.041 A 
ENDBRANCH  26  28
BRANCH   7   9
ATOM      9  C   UNL     1      10.171  12.612  11.220  0.00  0.00    +0.074 C 
ATOM     10  C   UNL     1      10.614  12.005  12.556  0.00  0.00    +0.022 C 
ATOM     11  C   UNL     1      10.600  14.079  11.107  0.00  0.00    +0.022 C 
ATOM     13  C   UNL     1      12.107  12.203  12.822  0.00  0.00    +0.002 C 
ATOM     14  C   UNL     1      12.092  14.274  11.375  0.00  0.00    +0.002 C 
ATOM     15  C   UNL     1      12.507  13.672  12.715  0.00  0.00    +0.000 C 
ENDBRANCH   7   9
TORSDOF 2
ENDMDL
MODEL 8
REMARK VINA RESULT:      -7.2      4.599     11.567
REMARK  Name = 11884270
REMARK  2 active torsions:
REMARK  status: ('A' for Active; 'I' for Inactive)
REMARK    1  A    between atoms: N_7  and  C_9
REMARK    2  A    between atoms: C_26  and  C_28
REMARK                            x       y       z     vdW  Elec       q    Type
REMARK                         _______ _______ _______ _____ _____    ______ ____
ROOT
ATOM      2  O   UNL     1     -11.335  13.384  16.051  0.00  0.00    -0.253 OA
ATOM      3  O   UNL     1     -11.848  12.448  19.782  0.00  0.00    -0.273 OA
ATOM      4  O   UNL     1     -11.203   7.205  19.945  0.00  0.00    -0.270 OA
ATOM      5  N   UNL     1     -10.805  11.427  17.185  0.00  0.00    -0.282 N 
ATOM      6  N   UNL     1     -11.573   9.267  18.964  0.00  0.00    -0.283 N 
ATOM      7  N   UNL     1      -9.118  12.866  16.381  0.00  0.00    -0.296 N 
ATOM      8  N   UNL     1     -12.831  10.879  21.104  0.00  0.00    -0.283 N 
ATOM     12  C   UNL     1     -12.481  10.377  18.714  0.00  0.00    +0.180 C 
ATOM     16  C   UNL     1     -12.214  11.067  17.371  0.00  0.00    +0.141 C 
ATOM     17  C   UNL     1      -9.811  10.496  17.732  0.00  0.00    +0.128 C 
ATOM     18  C   UNL     1     -10.410   9.142  18.086  0.00  0.00    +0.128 C 
ATOM     19  C   UNL     1     -10.481  12.615  16.503  0.00  0.00    +0.303 C 
ATOM     20  C   UNL     1     -12.323  11.318  19.899  0.00  0.00    +0.239 C 
ATOM     21  C   UNL     1     -11.862   8.242  19.860  0.00  0.00    +0.249 C 
ATOM     22  C   UNL     1     -13.010   8.403  20.792  0.00  0.00    +0.059 A 
ATOM     23  C   UNL     1     -13.360   9.610  21.418  0.00  0.00    +0.046 A 
ATOM     24  C   UNL     1     -13.653   7.213  21.183  0.00  0.00    +0.023 A 
ATOM     25  C   UNL     1     -14.293   9.587  22.469  0.00  0.00    +0.024 A 
ATOM     26  C   UNL     1     -14.612   7.216  22.195  0.00  0.00    -0.017 A 
ATOM     27  C   UNL     1     -14.922   8.402  22.849  0.00  0.00    +0.010 A 
ATOM     34  H   UNL     1      -8.454  12.289  16.883  0.00  0.00    +0.151 HD
ATOM     35  H   UNL     1     -12.920  11.591  21.825  0.00  0.00    +0.155 HD
ENDROOT
BRANCH  26  28
ATOM      1 CL   UNL     1     -17.297   2.140  23.779  0.00  0.00    -0.084 Cl
ATOM     28  C   UNL     1     -15.264   5.983  22.580  0.00  0.00    -0.018 A 
ATOM     29  C   UNL     1     -14.684   5.159  23.544  0.00  0.00    +0.010 A 
ATOM     30  C   UNL     1     -16.473   5.619  21.988  0.00  0.00    +0.010 A 
ATOM     31  C   UNL     1     -15.312   3.970  23.915  0.00  0.00    +0.020 A 
ATOM     32  C   UNL     1     -17.101   4.430  22.358  0.00  0.00    +0.020 A 
ATOM     33  C   UNL     1     -16.520   3.606  23.322  0.00  0.00    +0.041 A 
ENDBRANCH  26  28
BRANCH   7   9
ATOM      9  C   UNL     1      -8.606  14.044  15.717  0.00  0.00    +0.074 C 
ATOM     10  C   UNL     1      -8.288  15.152  16.727  0.00  0.00    +0.022 C 
ATOM     11  C   UNL     1      -7.383  13.705  14.859  0.00  0.00    +0.022 C 
ATOM     13  C   UNL     1      -7.049  14.838  17.567  0.00  0.00    +0.002 C 
ATOM     14  C   UNL     1      -6.146  13.394  15.702  0.00  0.00    +0.002 C 
ATOM     15  C   UNL     1      -5.842  14.515  16.691  0.00  0.00    +0.000 C 
ENDBRANCH   7   9
TORSDOF 2
ENDMDL
MODEL 9
REMARK VINA RESULT:      -7.1     22.007     23.806
REMARK  Name = 11884270
REMARK  2 active torsions:
REMARK  status: ('A' for Active; 'I' for Inactive)
REMARK    1  A    between atoms: N_7  and  C_9
REMARK    2  A    between atoms: C_26  and  C_28
REMARK                            x       y       z     vdW  Elec       q    Type
REMARK                         _______ _______ _______ _____ _____    ______ ____
ROOT
ATOM      2  O   UNL     1      -2.056  -9.807  11.899  0.00  0.00    -0.253 OA
ATOM      3  O   UNL     1      -5.815  -9.064  11.288  0.00  0.00    -0.273 OA
ATOM      4  O   UNL     1      -6.862 -11.243   6.588  0.00  0.00    -0.270 OA
ATOM      5  N   UNL     1      -3.530 -10.736  10.363  0.00  0.00    -0.282 N 
ATOM      6  N   UNL     1      -5.537 -10.410   8.292  0.00  0.00    -0.283 N 
ATOM      7  N   UNL     1      -2.687 -12.003  12.164  0.00  0.00    -0.296 N 
ATOM      8  N   UNL     1      -7.259  -8.423   9.651  0.00  0.00    -0.283 N 
ATOM     12  C   UNL     1      -5.026  -9.254   9.014  0.00  0.00    +0.180 C 
ATOM     16  C   UNL     1      -3.625  -9.492   9.592  0.00  0.00    +0.141 C 
ATOM     17  C   UNL     1      -4.315 -11.875   9.871  0.00  0.00    +0.128 C 
ATOM     18  C   UNL     1      -4.813 -11.672   8.447  0.00  0.00    +0.128 C 
ATOM     19  C   UNL     1      -2.707 -10.779  11.503  0.00  0.00    +0.303 C 
ATOM     20  C   UNL     1      -6.059  -8.943  10.087  0.00  0.00    +0.239 C 
ATOM     21  C   UNL     1      -6.549 -10.319   7.341  0.00  0.00    +0.249 C 
ATOM     22  C   UNL     1      -7.322  -9.053   7.230  0.00  0.00    +0.059 A 
ATOM     23  C   UNL     1      -7.712  -8.265   8.325  0.00  0.00    +0.046 A 
ATOM     24  C   UNL     1      -7.827  -8.753   5.951  0.00  0.00    +0.023 A 
ATOM     25  C   UNL     1      -8.654  -7.240   8.125  0.00  0.00    +0.024 A 
ATOM     26  C   UNL     1      -8.723  -7.701   5.763  0.00  0.00    -0.017 A 
ATOM     27  C   UNL     1      -9.148  -6.953   6.853  0.00  0.00    +0.010 A 
ATOM     34  H   UNL     1      -3.338 -12.731  11.894  0.00  0.00    +0.151 HD
ATOM     35  H   UNL     1      -7.847  -8.016  10.376  0.00  0.00    +0.155 HD
ENDROOT
BRANCH  26  28
ATOM      1 CL   UNL     1     -10.801  -6.487   0.314  0.00  0.00    -0.084 Cl
ATOM     28  C   UNL     1      -9.227  -7.406   4.439  0.00  0.00    -0.018 A 
ATOM     29  C   UNL     1     -10.531  -6.937   4.279  0.00  0.00    +0.010 A 
ATOM     30  C   UNL     1      -8.411  -7.590   3.324  0.00  0.00    +0.010 A 
ATOM     31  C   UNL     1     -11.019  -6.653   3.004  0.00  0.00    +0.020 A 
ATOM     32  C   UNL     1      -8.898  -7.307   2.049  0.00  0.00    +0.020 A 
ATOM     33  C   UNL     1     -10.202  -6.838   1.888  0.00  0.00    +0.041 A 
ENDBRANCH  26  28
BRANCH   7   9
ATOM      9  C   UNL     1      -1.902 -12.224  13.358  0.00  0.00    +0.074 C 
ATOM     10  C   UNL     1      -2.762 -12.073  14.618  0.00  0.00    +0.022 C 
ATOM     11  C   UNL     1      -1.209 -13.589  13.318  0.00  0.00    +0.022 C 
ATOM     13  C   UNL     1      -3.739 -13.235  14.800  0.00  0.00    +0.002 C 
ATOM     14  C   UNL     1      -2.188 -14.748  13.502  0.00  0.00    +0.002 C 
ATOM     15  C   UNL     1      -3.024 -14.583  14.768  0.00  0.00    +0.000 C 
ENDBRANCH   7   9
TORSDOF 2
ENDMDL
MODEL 10
REMARK VINA RESULT:      -7.1     19.573     22.600
REMARK  Name = 11884270
REMARK  2 active torsions:
REMARK  status: ('A' for Active; 'I' for Inactive)
REMARK    1  A    between atoms: N_7  and  C_9
REMARK    2  A    between atoms: C_26  and  C_28
REMARK                            x       y       z     vdW  Elec       q    Type
REMARK                         _______ _______ _______ _____ _____    ______ ____
ROOT
ATOM      2  O   UNL     1       0.009  12.110   8.465  0.00  0.00    -0.253 OA
ATOM      3  O   UNL     1      -0.847   9.014   6.290  0.00  0.00    -0.273 OA
ATOM      4  O   UNL     1      -4.940  10.555   3.322  0.00  0.00    -0.270 OA
ATOM      5  N   UNL     1      -1.306  11.945   6.558  0.00  0.00    -0.282 N 
ATOM      6  N   UNL     1      -3.443  10.648   5.084  0.00  0.00    -0.283 N 
ATOM      7  N   UNL     1       0.759  13.083   6.520  0.00  0.00    -0.296 N 
ATOM      8  N   UNL     1      -2.622   7.834   5.493  0.00  0.00    -0.283 N 
ATOM     12  C   UNL     1      -2.995  10.113   6.361  0.00  0.00    +0.180 C 
ATOM     16  C   UNL     1      -2.345  11.179   7.252  0.00  0.00    +0.141 C 
ATOM     17  C   UNL     1      -1.540  12.232   5.138  0.00  0.00    +0.128 C 
ATOM     18  C   UNL     1      -2.983  11.989   4.721  0.00  0.00    +0.128 C 
ATOM     19  C   UNL     1      -0.167  12.364   7.270  0.00  0.00    +0.303 C 
ATOM     20  C   UNL     1      -2.049   8.971   6.025  0.00  0.00    +0.239 C 
ATOM     21  C   UNL     1      -4.414  10.027   4.303  0.00  0.00    +0.249 C 
ATOM     22  C   UNL     1      -4.832   8.641   4.642  0.00  0.00    +0.059 A 
ATOM     23  C   UNL     1      -3.959   7.637   5.091  0.00  0.00    +0.046 A 
ATOM     24  C   UNL     1      -6.158   8.303   4.311  0.00  0.00    +0.023 A 
ATOM     25  C   UNL     1      -4.413   6.307   5.130  0.00  0.00    +0.024 A 
ATOM     26  C   UNL     1      -6.605   6.985   4.402  0.00  0.00    -0.017 A 
ATOM     27  C   UNL     1      -5.728   5.984   4.798  0.00  0.00    +0.010 A 
ATOM     34  H   UNL     1       0.649  13.151   5.515  0.00  0.00    +0.151 HD
ATOM     35  H   UNL     1      -2.025   7.010   5.481  0.00  0.00    +0.155 HD
ENDROOT
BRANCH  26  28
ATOM      1 CL   UNL     1     -12.237   5.641   2.999  0.00  0.00    -0.084 Cl
ATOM     28  C   UNL     1      -7.973   6.658   4.061  0.00  0.00    -0.018 A 
ATOM     29  C   UNL     1      -8.689   7.479   3.190  0.00  0.00    +0.010 A 
ATOM     30  C   UNL     1      -8.576   5.524   4.604  0.00  0.00    +0.010 A 
ATOM     31  C   UNL     1     -10.008   7.165   2.861  0.00  0.00    +0.020 A 
ATOM     32  C   UNL     1      -9.894   5.210   4.276  0.00  0.00    +0.020 A 
ATOM     33  C   UNL     1     -10.610   6.030   3.404  0.00  0.00    +0.041 A 
ENDBRANCH  26  28
BRANCH   7   9
ATOM      9  C   UNL     1       1.990  13.585   7.089  0.00  0.00    +0.074 C 
ATOM     10  C   UNL     1       3.129  12.574   6.915  0.00  0.00    +0.022 C 
ATOM     11  C   UNL     1       2.359  14.947   6.492  0.00  0.00    +0.022 C 
ATOM     13  C   UNL     1       3.603  12.472   5.464  0.00  0.00    +0.002 C 
ATOM     14  C   UNL     1       2.833  14.840   5.043  0.00  0.00    +0.002 C 
ATOM     15  C   UNL     1       3.975  13.838   4.895  0.00  0.00    +0.000 C 
ENDBRANCH   7   9
TORSDOF 2
ENDMDL
