MODEL 1
REMARK VINA RESULT:      -6.6      0.000      0.000
REMARK  Name = 28963165
REMARK  6 active torsions:
REMARK  status: ('A' for Active; 'I' for Inactive)
REMARK    1  A    between atoms: N_4  and  C_14
REMARK    2  A    between atoms: N_5  and  C_22
REMARK    3  A    between atoms: C_7  and  C_17
REMARK    4  A    between atoms: C_10  and  C_18
REMARK    5  A    between atoms: C_16  and  C_20
REMARK    6  A    between atoms: C_22  and  C_23
REMARK                            x       y       z     vdW  Elec       q    Type
REMARK                         _______ _______ _______ _____ _____    ______ ____
ROOT
ATOM      1  O   UNL     1      13.363   7.055  20.959  0.00  0.00    -0.461 OA
ATOM      2  O   UNL     1      11.203   6.270  21.039  0.00  0.00    -0.251 OA
ATOM      6  C   UNL     1      15.390   8.516  21.326  0.00  0.00    +0.041 C 
ATOM      7  C   UNL     1      15.789  10.038  21.268  0.00  0.00    -0.025 C 
ATOM      8  C   UNL     1      13.938   8.359  20.841  0.00  0.00    +0.184 C 
ATOM      9  C   UNL     1      13.006   9.176  21.719  0.00  0.00    +0.044 C 
ATOM     10  C   UNL     1      16.449   7.614  20.620  0.00  0.00    +0.013 C 
ATOM     11  C   UNL     1      14.753  10.907  22.044  0.00  0.00    +0.007 C 
ATOM     12  C   UNL     1      17.170  10.203  21.942  0.00  0.00    +0.009 C 
ATOM     13  C   UNL     1      13.296  10.659  21.623  0.00  0.00    +0.008 C 
ATOM     14  C   UNL     1      17.850   7.852  21.247  0.00  0.00    +0.078 C 
ATOM     15  C   UNL     1      18.247   9.329  21.309  0.00  0.00    +0.023 C 
ATOM     16  C   UNL     1      11.658   8.666  21.248  0.00  0.00    +0.101 C 
ATOM     17  C   UNL     1      15.867  10.581  19.818  0.00  0.00    +0.011 C 
ATOM     18  C   UNL     1      16.094   6.119  20.694  0.00  0.00    +0.010 C 
ATOM     19  C   UNL     1      11.998   7.196  21.076  0.00  0.00    +0.311 C 
ATOM     20  C   UNL     1      10.544   8.894  22.254  0.00  0.00    +0.019 C 
ENDROOT
BRANCH  14   4
ATOM      3  O   UNL     1      20.013   6.330  22.403  0.00  0.00    -0.253 OA
ATOM      4  N   UNL     1      18.881   7.125  20.538  0.00  0.00    -0.296 N 
ATOM      5  N   UNL     1      20.745   5.811  20.263  0.00  0.00    -0.300 N 
ATOM     21  C   UNL     1      19.889   6.415  21.182  0.00  0.00    +0.300 C 
ATOM     24  H   UNL     1      18.915   7.197  19.525  0.00  0.00    +0.151 HD
ATOM     25  H   UNL     1      20.557   5.926  19.272  0.00  0.00    +0.150 HD
BRANCH   5  22
ATOM     22  C   UNL     1      21.880   5.011  20.659  0.00  0.00    +0.102 C 
ATOM     23  C   UNL     1      21.465   3.604  21.032  0.00  0.00    +0.024 C 
ENDBRANCH   5  22
ENDBRANCH  14   4
TORSDOF 2
ENDMDL
MODEL 2
REMARK VINA RESULT:      -6.4     27.545     29.358
REMARK  Name = 28963165
REMARK  6 active torsions:
REMARK  status: ('A' for Active; 'I' for Inactive)
REMARK    1  A    between atoms: N_4  and  C_14
REMARK    2  A    between atoms: N_5  and  C_22
REMARK    3  A    between atoms: C_7  and  C_17
REMARK    4  A    between atoms: C_10  and  C_18
REMARK    5  A    between atoms: C_16  and  C_20
REMARK    6  A    between atoms: C_22  and  C_23
REMARK                            x       y       z     vdW  Elec       q    Type
REMARK                         _______ _______ _______ _____ _____    ______ ____
ROOT
ATOM      1  O   UNL     1      -7.192  -9.641  11.486  0.00  0.00    -0.461 OA
ATOM      2  O   UNL     1      -9.126  -8.899  10.486  0.00  0.00    -0.251 OA
ATOM      6  C   UNL     1      -4.741  -9.987  11.987  0.00  0.00    +0.041 C 
ATOM      7  C   UNL     1      -3.401 -10.303  11.222  0.00  0.00    -0.025 C 
ATOM      8  C   UNL     1      -5.912 -10.041  10.990  0.00  0.00    +0.184 C 
ATOM      9  C   UNL     1      -5.695  -9.027   9.879  0.00  0.00    +0.044 C 
ATOM     10  C   UNL     1      -4.895 -10.862  13.269  0.00  0.00    +0.013 C 
ATOM     11  C   UNL     1      -3.240  -9.363   9.989  0.00  0.00    +0.007 C 
ATOM     12  C   UNL     1      -2.221 -10.050  12.189  0.00  0.00    +0.009 C 
ATOM     13  C   UNL     1      -4.463  -9.345   9.058  0.00  0.00    +0.008 C 
ATOM     14  C   UNL     1      -3.661 -10.668  14.194  0.00  0.00    +0.078 C 
ATOM     15  C   UNL     1      -2.324 -10.863  13.474  0.00  0.00    +0.023 C 
ATOM     16  C   UNL     1      -7.050  -9.060   9.200  0.00  0.00    +0.101 C 
ATOM     17  C   UNL     1      -3.332 -11.765  10.714  0.00  0.00    +0.011 C 
ATOM     18  C   UNL     1      -6.183 -10.547  14.049  0.00  0.00    +0.010 C 
ATOM     19  C   UNL     1      -7.937  -9.172  10.427  0.00  0.00    +0.311 C 
ATOM     20  C   UNL     1      -7.342  -7.817   8.380  0.00  0.00    +0.019 C 
ENDROOT
BRANCH  14   4
ATOM      3  O   UNL     1      -4.052  -9.928  16.956  0.00  0.00    -0.253 OA
ATOM      4  N   UNL     1      -3.707 -11.555  15.336  0.00  0.00    -0.296 N 
ATOM      5  N   UNL     1      -3.902 -12.168  17.540  0.00  0.00    -0.300 N 
ATOM     21  C   UNL     1      -3.901 -11.107  16.638  0.00  0.00    +0.300 C 
ATOM     24  H   UNL     1      -3.514 -12.542  15.190  0.00  0.00    +0.151 HD
ATOM     25  H   UNL     1      -3.783 -13.111  17.185  0.00  0.00    +0.150 HD
BRANCH   5  22
ATOM     22  C   UNL     1      -4.084 -11.987  18.962  0.00  0.00    +0.102 C 
ATOM     23  C   UNL     1      -5.545 -11.797  19.315  0.00  0.00    +0.024 C 
ENDBRANCH   5  22
ENDBRANCH  14   4
TORSDOF 2
ENDMDL
MODEL 3
REMARK VINA RESULT:      -6.4     32.261     33.950
REMARK  Name = 28963165
REMARK  6 active torsions:
REMARK  status: ('A' for Active; 'I' for Inactive)
REMARK    1  A    between atoms: N_4  and  C_14
REMARK    2  A    between atoms: N_5  and  C_22
REMARK    3  A    between atoms: C_7  and  C_17
REMARK    4  A    between atoms: C_10  and  C_18
REMARK    5  A    between atoms: C_16  and  C_20
REMARK    6  A    between atoms: C_22  and  C_23
REMARK                            x       y       z     vdW  Elec       q    Type
REMARK                         _______ _______ _______ _____ _____    ______ ____
ROOT
ATOM      1  O   UNL     1     -15.189   5.259  31.689  0.00  0.00    -0.461 OA
ATOM      2  O   UNL     1     -14.899   6.919  33.255  0.00  0.00    -0.251 OA
ATOM      6  C   UNL     1     -15.529   2.979  30.658  0.00  0.00    +0.041 C 
ATOM      7  C   UNL     1     -14.962   1.515  30.788  0.00  0.00    -0.025 C 
ATOM      8  C   UNL     1     -14.720   3.913  31.575  0.00  0.00    +0.184 C 
ATOM      9  C   UNL     1     -14.821   3.440  33.016  0.00  0.00    +0.044 C 
ATOM     10  C   UNL     1     -15.651   3.422  29.167  0.00  0.00    +0.013 C 
ATOM     11  C   UNL     1     -14.922   1.074  32.283  0.00  0.00    +0.007 C 
ATOM     12  C   UNL     1     -15.905   0.561  30.019  0.00  0.00    +0.009 C 
ATOM     13  C   UNL     1     -14.204   2.071  33.205  0.00  0.00    +0.008 C 
ATOM     14  C   UNL     1     -16.528   2.407  28.383  0.00  0.00    +0.078 C 
ATOM     15  C   UNL     1     -16.082   0.953  28.557  0.00  0.00    +0.023 C 
ATOM     16  C   UNL     1     -14.207   4.622  33.742  0.00  0.00    +0.101 C 
ATOM     17  C   UNL     1     -13.528   1.376  30.216  0.00  0.00    +0.011 C 
ATOM     18  C   UNL     1     -16.232   4.837  29.017  0.00  0.00    +0.010 C 
ATOM     19  C   UNL     1     -14.792   5.751  32.913  0.00  0.00    +0.311 C 
ATOM     20  C   UNL     1     -14.608   4.703  35.204  0.00  0.00    +0.019 C 
ENDROOT
BRANCH  14   4
ATOM      3  O   UNL     1     -18.743   2.017  26.574  0.00  0.00    -0.253 OA
ATOM      4  N   UNL     1     -16.565   2.716  26.970  0.00  0.00    -0.296 N 
ATOM      5  N   UNL     1     -17.445   2.878  24.855  0.00  0.00    -0.300 N 
ATOM     21  C   UNL     1     -17.682   2.493  26.172  0.00  0.00    +0.300 C 
ATOM     24  H   UNL     1     -15.711   3.039  26.523  0.00  0.00    +0.151 HD
ATOM     25  H   UNL     1     -16.541   3.273  24.617  0.00  0.00    +0.150 HD
BRANCH   5  22
ATOM     22  C   UNL     1     -18.437   2.756  23.813  0.00  0.00    +0.102 C 
ATOM     23  C   UNL     1     -17.957   1.859  22.691  0.00  0.00    +0.024 C 
ENDBRANCH   5  22
ENDBRANCH  14   4
TORSDOF 2
ENDMDL
MODEL 4
REMARK VINA RESULT:      -6.2     27.661     29.726
REMARK  Name = 28963165
REMARK  6 active torsions:
REMARK  status: ('A' for Active; 'I' for Inactive)
REMARK    1  A    between atoms: N_4  and  C_14
REMARK    2  A    between atoms: N_5  and  C_22
REMARK    3  A    between atoms: C_7  and  C_17
REMARK    4  A    between atoms: C_10  and  C_18
REMARK    5  A    between atoms: C_16  and  C_20
REMARK    6  A    between atoms: C_22  and  C_23
REMARK                            x       y       z     vdW  Elec       q    Type
REMARK                         _______ _______ _______ _____ _____    ______ ____
ROOT
ATOM      1  O   UNL     1      -5.815 -10.320  12.119  0.00  0.00    -0.461 OA
ATOM      2  O   UNL     1      -6.361  -9.785   9.949  0.00  0.00    -0.251 OA
ATOM      6  C   UNL     1      -4.498 -10.575  14.259  0.00  0.00    +0.041 C 
ATOM      7  C   UNL     1      -3.076 -11.056  14.733  0.00  0.00    -0.025 C 
ATOM      8  C   UNL     1      -4.635 -10.826  12.746  0.00  0.00    +0.184 C 
ATOM      9  C   UNL     1      -3.551 -10.070  11.995  0.00  0.00    +0.044 C 
ATOM     10  C   UNL     1      -5.634 -11.159  15.153  0.00  0.00    +0.013 C 
ATOM     11  C   UNL     1      -1.958 -10.398  13.867  0.00  0.00    +0.007 C 
ATOM     12  C   UNL     1      -2.881 -10.617  16.202  0.00  0.00    +0.009 C 
ATOM     13  C   UNL     1      -2.166 -10.564  12.354  0.00  0.00    +0.008 C 
ATOM     14  C   UNL     1      -5.381 -10.787  16.641  0.00  0.00    +0.078 C 
ATOM     15  C   UNL     1      -3.974 -11.141  17.127  0.00  0.00    +0.023 C 
ATOM     16  C   UNL     1      -4.035 -10.232  10.567  0.00  0.00    +0.101 C 
ATOM     17  C   UNL     1      -2.902 -12.594  14.638  0.00  0.00    +0.011 C 
ATOM     18  C   UNL     1      -7.030 -10.676  14.727  0.00  0.00    +0.010 C 
ATOM     19  C   UNL     1      -5.528 -10.076  10.794  0.00  0.00    +0.311 C 
ATOM     20  C   UNL     1      -3.476  -9.186   9.621  0.00  0.00    +0.019 C 
ENDROOT
BRANCH  14   4
ATOM      3  O   UNL     1      -7.538  -9.497  18.059  0.00  0.00    -0.253 OA
ATOM      4  N   UNL     1      -6.346 -11.414  17.518  0.00  0.00    -0.296 N 
ATOM      5  N   UNL     1      -8.141 -11.555  18.944  0.00  0.00    -0.300 N 
ATOM     21  C   UNL     1      -7.358 -10.709  18.162  0.00  0.00    +0.300 C 
ATOM     24  H   UNL     1      -6.235 -12.401  17.733  0.00  0.00    +0.151 HD
ATOM     25  H   UNL     1      -7.925 -12.547  18.958  0.00  0.00    +0.150 HD
BRANCH   5  22
ATOM     22  C   UNL     1      -9.264 -11.085  19.722  0.00  0.00    +0.102 C 
ATOM     23  C   UNL     1     -10.187 -12.222  20.107  0.00  0.00    +0.024 C 
ENDBRANCH   5  22
ENDBRANCH  14   4
TORSDOF 2
ENDMDL
MODEL 5
REMARK VINA RESULT:      -6.1     20.941     24.864
REMARK  Name = 28963165
REMARK  6 active torsions:
REMARK  status: ('A' for Active; 'I' for Inactive)
REMARK    1  A    between atoms: N_4  and  C_14
REMARK    2  A    between atoms: N_5  and  C_22
REMARK    3  A    between atoms: C_7  and  C_17
REMARK    4  A    between atoms: C_10  and  C_18
REMARK    5  A    between atoms: C_16  and  C_20
REMARK    6  A    between atoms: C_22  and  C_23
REMARK                            x       y       z     vdW  Elec       q    Type
REMARK                         _______ _______ _______ _____ _____    ______ ____
ROOT
ATOM      1  O   UNL     1      -0.718   6.736  38.606  0.00  0.00    -0.461 OA
ATOM      2  O   UNL     1       0.222   4.796  39.408  0.00  0.00    -0.251 OA
ATOM      6  C   UNL     1      -2.107   8.841  38.471  0.00  0.00    +0.041 C 
ATOM      7  C   UNL     1      -3.570   9.326  38.791  0.00  0.00    -0.025 C 
ATOM      8  C   UNL     1      -2.017   7.324  38.714  0.00  0.00    +0.184 C 
ATOM      9  C   UNL     1      -2.368   7.008  40.158  0.00  0.00    +0.044 C 
ATOM     10  C   UNL     1      -1.624   9.340  37.074  0.00  0.00    +0.013 C 
ATOM     11  C   UNL     1      -3.996   8.876  40.221  0.00  0.00    +0.007 C 
ATOM     12  C   UNL     1      -3.591  10.871  38.736  0.00  0.00    +0.009 C 
ATOM     13  C   UNL     1      -3.799   7.375  40.485  0.00  0.00    +0.008 C 
ATOM     14  C   UNL     1      -1.732  10.888  36.998  0.00  0.00    +0.078 C 
ATOM     15  C   UNL     1      -3.109  11.423  37.399  0.00  0.00    +0.023 C 
ATOM     16  C   UNL     1      -1.955   5.551  40.233  0.00  0.00    +0.101 C 
ATOM     17  C   UNL     1      -4.617   8.772  37.790  0.00  0.00    +0.011 C 
ATOM     18  C   UNL     1      -0.185   8.903  36.755  0.00  0.00    +0.010 C 
ATOM     19  C   UNL     1      -0.688   5.610  39.398  0.00  0.00    +0.311 C 
ATOM     20  C   UNL     1      -1.697   5.072  41.651  0.00  0.00    +0.019 C 
ENDROOT
BRANCH  14   4
ATOM      3  O   UNL     1       0.362  12.745  36.295  0.00  0.00    -0.253 OA
ATOM      4  N   UNL     1      -1.411  11.380  35.676  0.00  0.00    -0.296 N 
ATOM      5  N   UNL     1      -0.288  12.584  34.074  0.00  0.00    -0.300 N 
ATOM     21  C   UNL     1      -0.378  12.278  35.430  0.00  0.00    +0.300 C 
ATOM     24  H   UNL     1      -2.013  11.116  34.901  0.00  0.00    +0.151 HD
ATOM     25  H   UNL     1      -0.935  12.139  33.430  0.00  0.00    +0.150 HD
BRANCH   5  22
ATOM     22  C   UNL     1       0.698  13.493  33.540  0.00  0.00    +0.102 C 
ATOM     23  C   UNL     1       1.142  13.079  32.152  0.00  0.00    +0.024 C 
ENDBRANCH   5  22
ENDBRANCH  14   4
TORSDOF 2
ENDMDL
MODEL 6
REMARK VINA RESULT:      -6.1     27.516     29.855
REMARK  Name = 28963165
REMARK  6 active torsions:
REMARK  status: ('A' for Active; 'I' for Inactive)
REMARK    1  A    between atoms: N_4  and  C_14
REMARK    2  A    between atoms: N_5  and  C_22
REMARK    3  A    between atoms: C_7  and  C_17
REMARK    4  A    between atoms: C_10  and  C_18
REMARK    5  A    between atoms: C_16  and  C_20
REMARK    6  A    between atoms: C_22  and  C_23
REMARK                            x       y       z     vdW  Elec       q    Type
REMARK                         _______ _______ _______ _____ _____    ______ ____
ROOT
ATOM      1  O   UNL     1      -4.604 -10.112  12.241  0.00  0.00    -0.461 OA
ATOM      2  O   UNL     1      -3.746  -9.763  10.136  0.00  0.00    -0.251 OA
ATOM      6  C   UNL     1      -4.759 -10.333  14.752  0.00  0.00    +0.041 C 
ATOM      7  C   UNL     1      -3.973 -11.001  15.941  0.00  0.00    -0.025 C 
ATOM      8  C   UNL     1      -4.102 -10.742  13.422  0.00  0.00    +0.184 C 
ATOM      9  C   UNL     1      -2.649 -10.296  13.403  0.00  0.00    +0.044 C 
ATOM     10  C   UNL     1      -6.295 -10.583  14.861  0.00  0.00    +0.013 C 
ATOM     11  C   UNL     1      -2.452 -10.672  15.846  0.00  0.00    +0.007 C 
ATOM     12  C   UNL     1      -4.518 -10.425  17.268  0.00  0.00    +0.009 C 
ATOM     13  C   UNL     1      -1.833 -10.986  14.476  0.00  0.00    +0.008 C 
ATOM     14  C   UNL     1      -6.818 -10.080  16.235  0.00  0.00    +0.078 C 
ATOM     15  C   UNL     1      -6.021 -10.621  17.425  0.00  0.00    +0.023 C 
ATOM     16  C   UNL     1      -2.300 -10.545  11.949  0.00  0.00    +0.101 C 
ATOM     17  C   UNL     1      -4.120 -12.545  15.964  0.00  0.00    +0.011 C 
ATOM     18  C   UNL     1      -7.086  -9.911  13.726  0.00  0.00    +0.010 C 
ATOM     19  C   UNL     1      -3.596 -10.092  11.302  0.00  0.00    +0.311 C 
ATOM     20  C   UNL     1      -1.100  -9.745  11.474  0.00  0.00    +0.019 C 
ENDROOT
BRANCH  14   4
ATOM      3  O   UNL     1      -8.924  -8.290  17.064  0.00  0.00    -0.253 OA
ATOM      4  N   UNL     1      -8.215 -10.406  16.425  0.00  0.00    -0.296 N 
ATOM      5  N   UNL     1     -10.426 -10.053  16.933  0.00  0.00    -0.300 N 
ATOM     21  C   UNL     1      -9.164  -9.473  16.828  0.00  0.00    +0.300 C 
ATOM     24  H   UNL     1      -8.502 -11.376  16.333  0.00  0.00    +0.151 HD
ATOM     25  H   UNL     1     -10.532 -11.036  16.705  0.00  0.00    +0.150 HD
BRANCH   5  22
ATOM     22  C   UNL     1     -11.598  -9.310  17.333  0.00  0.00    +0.102 C 
ATOM     23  C   UNL     1     -11.935  -9.548  18.791  0.00  0.00    +0.024 C 
ENDBRANCH   5  22
ENDBRANCH  14   4
TORSDOF 2
ENDMDL
MODEL 7
REMARK VINA RESULT:      -6.1     27.949     29.968
REMARK  Name = 28963165
REMARK  6 active torsions:
REMARK  status: ('A' for Active; 'I' for Inactive)
REMARK    1  A    between atoms: N_4  and  C_14
REMARK    2  A    between atoms: N_5  and  C_22
REMARK    3  A    between atoms: C_7  and  C_17
REMARK    4  A    between atoms: C_10  and  C_18
REMARK    5  A    between atoms: C_16  and  C_20
REMARK    6  A    between atoms: C_22  and  C_23
REMARK                            x       y       z     vdW  Elec       q    Type
REMARK                         _______ _______ _______ _____ _____    ______ ____
ROOT
ATOM      1  O   UNL     1      -5.622  -9.831  14.849  0.00  0.00    -0.461 OA
ATOM      2  O   UNL     1      -6.302  -9.564  17.030  0.00  0.00    -0.251 OA
ATOM      6  C   UNL     1      -4.528 -10.797  12.788  0.00  0.00    +0.041 C 
ATOM      7  C   UNL     1      -3.146 -11.411  12.349  0.00  0.00    -0.025 C 
ATOM      8  C   UNL     1      -4.416 -10.295  14.239  0.00  0.00    +0.184 C 
ATOM      9  C   UNL     1      -4.041 -11.446  15.158  0.00  0.00    +0.044 C 
ATOM     10  C   UNL     1      -5.058  -9.763  11.747  0.00  0.00    +0.013 C 
ATOM     11  C   UNL     1      -2.678 -12.493  13.370  0.00  0.00    +0.007 C 
ATOM     12  C   UNL     1      -3.332 -12.085  10.970  0.00  0.00    +0.009 C 
ATOM     13  C   UNL     1      -2.675 -12.009  14.828  0.00  0.00    +0.008 C 
ATOM     14  C   UNL     1      -5.158 -10.427  10.345  0.00  0.00    +0.078 C 
ATOM     15  C   UNL     1      -3.870 -11.130   9.911  0.00  0.00    +0.023 C 
ATOM     16  C   UNL     1      -4.255 -10.802  16.514  0.00  0.00    +0.101 C 
ATOM     17  C   UNL     1      -2.025 -10.346  12.242  0.00  0.00    +0.011 C 
ATOM     18  C   UNL     1      -6.423  -9.174  12.141  0.00  0.00    +0.010 C 
ATOM     19  C   UNL     1      -5.509 -10.002  16.211  0.00  0.00    +0.311 C 
ATOM     20  C   UNL     1      -4.461 -11.809  17.631  0.00  0.00    +0.019 C 
ENDROOT
BRANCH  14   4
ATOM      3  O   UNL     1      -7.268 -10.691   8.395  0.00  0.00    -0.253 OA
ATOM      4  N   UNL     1      -5.529  -9.468   9.327  0.00  0.00    -0.296 N 
ATOM      5  N   UNL     1      -6.707  -8.601   7.557  0.00  0.00    -0.300 N 
ATOM     21  C   UNL     1      -6.566  -9.681   8.425  0.00  0.00    +0.300 C 
ATOM     24  H   UNL     1      -4.959  -8.634   9.217  0.00  0.00    +0.151 HD
ATOM     25  H   UNL     1      -6.090  -7.803   7.666  0.00  0.00    +0.150 HD
BRANCH   5  22
ATOM     22  C   UNL     1      -7.710  -8.558   6.518  0.00  0.00    +0.102 C 
ATOM     23  C   UNL     1      -7.082  -8.422   5.146  0.00  0.00    +0.024 C 
ENDBRANCH   5  22
ENDBRANCH  14   4
TORSDOF 2
ENDMDL
MODEL 8
REMARK VINA RESULT:      -6.0     27.269     30.748
REMARK  Name = 28963165
REMARK  6 active torsions:
REMARK  status: ('A' for Active; 'I' for Inactive)
REMARK    1  A    between atoms: N_4  and  C_14
REMARK    2  A    between atoms: N_5  and  C_22
REMARK    3  A    between atoms: C_7  and  C_17
REMARK    4  A    between atoms: C_10  and  C_18
REMARK    5  A    between atoms: C_16  and  C_20
REMARK    6  A    between atoms: C_22  and  C_23
REMARK                            x       y       z     vdW  Elec       q    Type
REMARK                         _______ _______ _______ _____ _____    ______ ____
ROOT
ATOM      1  O   UNL     1      -4.934 -10.470  14.888  0.00  0.00    -0.461 OA
ATOM      2  O   UNL     1      -3.150 -10.299  13.446  0.00  0.00    -0.251 OA
ATOM      6  C   UNL     1      -6.276 -10.636  17.021  0.00  0.00    +0.041 C 
ATOM      7  C   UNL     1      -6.253 -11.421  18.386  0.00  0.00    -0.025 C 
ATOM      8  C   UNL     1      -5.149 -11.167  16.118  0.00  0.00    +0.184 C 
ATOM      9  C   UNL     1      -3.805 -10.984  16.802  0.00  0.00    +0.044 C 
ATOM     10  C   UNL     1      -7.702 -10.611  16.392  0.00  0.00    +0.013 C 
ATOM     11  C   UNL     1      -4.832 -11.365  19.027  0.00  0.00    +0.007 C 
ATOM     12  C   UNL     1      -7.253 -10.744  19.351  0.00  0.00    +0.009 C 
ATOM     13  C   UNL     1      -3.705 -11.797  18.076  0.00  0.00    +0.008 C 
ATOM     14  C   UNL     1      -8.717 -10.010  17.403  0.00  0.00    +0.078 C 
ATOM     15  C   UNL     1      -8.666 -10.671  18.783  0.00  0.00    +0.023 C 
ATOM     16  C   UNL     1      -2.862 -11.305  15.658  0.00  0.00    +0.101 C 
ATOM     17  C   UNL     1      -6.639 -12.914  18.224  0.00  0.00    +0.011 C 
ATOM     18  C   UNL     1      -7.754  -9.822  15.073  0.00  0.00    +0.010 C 
ATOM     19  C   UNL     1      -3.616 -10.638  14.523  0.00  0.00    +0.311 C 
ATOM     20  C   UNL     1      -1.469 -10.734  15.850  0.00  0.00    +0.019 C 
ENDROOT
BRANCH  14   4
ATOM      3  O   UNL     1     -10.703  -7.917  17.451  0.00  0.00    -0.253 OA
ATOM      4  N   UNL     1     -10.073 -10.083  16.904  0.00  0.00    -0.296 N 
ATOM      5  N   UNL     1     -12.198  -9.360  16.419  0.00  0.00    -0.300 N 
ATOM     21  C   UNL     1     -10.965  -9.018  16.969  0.00  0.00    +0.300 C 
ATOM     24  H   UNL     1     -10.414 -10.976  16.558  0.00  0.00    +0.151 HD
ATOM     25  H   UNL     1     -12.319 -10.290  16.032  0.00  0.00    +0.150 HD
BRANCH   5  22
ATOM     22  C   UNL     1     -13.309  -8.439  16.356  0.00  0.00    +0.102 C 
ATOM     23  C   UNL     1     -13.310  -7.656  15.060  0.00  0.00    +0.024 C 
ENDBRANCH   5  22
ENDBRANCH  14   4
TORSDOF 2
ENDMDL
MODEL 9
REMARK VINA RESULT:      -6.0     16.258     17.460
REMARK  Name = 28963165
REMARK  6 active torsions:
REMARK  status: ('A' for Active; 'I' for Inactive)
REMARK    1  A    between atoms: N_4  and  C_14
REMARK    2  A    between atoms: N_5  and  C_22
REMARK    3  A    between atoms: C_7  and  C_17
REMARK    4  A    between atoms: C_10  and  C_18
REMARK    5  A    between atoms: C_16  and  C_20
REMARK    6  A    between atoms: C_22  and  C_23
REMARK                            x       y       z     vdW  Elec       q    Type
REMARK                         _______ _______ _______ _____ _____    ______ ____
ROOT
ATOM      1  O   UNL     1      12.188   9.340   6.549  0.00  0.00    -0.461 OA
ATOM      2  O   UNL     1      12.909  11.321   7.469  0.00  0.00    -0.251 OA
ATOM      6  C   UNL     1      10.679   7.444   5.837  0.00  0.00    +0.041 C 
ATOM      7  C   UNL     1       9.537   6.540   6.436  0.00  0.00    -0.025 C 
ATOM      8  C   UNL     1      11.236   8.351   6.948  0.00  0.00    +0.184 C 
ATOM      9  C   UNL     1      10.125   9.221   7.514  0.00  0.00    +0.044 C 
ATOM     10  C   UNL     1      11.730   6.602   5.051  0.00  0.00    +0.013 C 
ATOM     11  C   UNL     1       8.463   7.416   7.151  0.00  0.00    +0.007 C 
ATOM     12  C   UNL     1       8.857   5.784   5.272  0.00  0.00    +0.009 C 
ATOM     13  C   UNL     1       9.046   8.395   8.182  0.00  0.00    +0.008 C 
ATOM     14  C   UNL     1      11.025   5.777   3.939  0.00  0.00    +0.078 C 
ATOM     15  C   UNL     1       9.838   4.956   4.450  0.00  0.00    +0.023 C 
ATOM     16  C   UNL     1      10.930  10.188   8.359  0.00  0.00    +0.101 C 
ATOM     17  C   UNL     1      10.067   5.510   7.466  0.00  0.00    +0.011 C 
ATOM     18  C   UNL     1      12.838   7.470   4.430  0.00  0.00    +0.010 C 
ATOM     19  C   UNL     1      12.120  10.388   7.439  0.00  0.00    +0.311 C 
ATOM     20  C   UNL     1      10.195  11.484   8.653  0.00  0.00    +0.019 C 
ENDROOT
BRANCH  14   4
ATOM      3  O   UNL     1      11.035   5.071   1.141  0.00  0.00    -0.253 OA
ATOM      4  N   UNL     1      11.949   4.889   3.267  0.00  0.00    -0.296 N 
ATOM      5  N   UNL     1      12.884   3.724   1.524  0.00  0.00    -0.300 N 
ATOM     21  C   UNL     1      11.877   4.606   1.907  0.00  0.00    +0.300 C 
ATOM     24  H   UNL     1      12.634   4.391   3.827  0.00  0.00    +0.151 HD
ATOM     25  H   UNL     1      13.544   3.402   2.224  0.00  0.00    +0.150 HD
BRANCH   5  22
ATOM     22  C   UNL     1      13.044   3.262   0.165  0.00  0.00    +0.102 C 
ATOM     23  C   UNL     1      14.224   3.926  -0.513  0.00  0.00    +0.024 C 
ENDBRANCH   5  22
ENDBRANCH  14   4
TORSDOF 2
ENDMDL
MODEL 10
REMARK VINA RESULT:      -6.0     27.638     30.012
REMARK  Name = 28963165
REMARK  6 active torsions:
REMARK  status: ('A' for Active; 'I' for Inactive)
REMARK    1  A    between atoms: N_4  and  C_14
REMARK    2  A    between atoms: N_5  and  C_22
REMARK    3  A    between atoms: C_7  and  C_17
REMARK    4  A    between atoms: C_10  and  C_18
REMARK    5  A    between atoms: C_16  and  C_20
REMARK    6  A    between atoms: C_22  and  C_23
REMARK                            x       y       z     vdW  Elec       q    Type
REMARK                         _______ _______ _______ _____ _____    ______ ____
ROOT
ATOM      1  O   UNL     1     -14.071  11.067  19.314  0.00  0.00    -0.461 OA
ATOM      2  O   UNL     1     -14.552  13.223  18.670  0.00  0.00    -0.251 OA
ATOM      6  C   UNL     1     -12.783   9.024  20.052  0.00  0.00    +0.041 C 
ATOM      7  C   UNL     1     -11.459   8.254  19.688  0.00  0.00    -0.025 C 
ATOM      8  C   UNL     1     -12.987  10.174  19.050  0.00  0.00    +0.184 C 
ATOM      9  C   UNL     1     -11.801  11.123  19.100  0.00  0.00    +0.044 C 
ATOM     10  C   UNL     1     -13.989   8.051  20.230  0.00  0.00    +0.013 C 
ATOM     11  C   UNL     1     -10.258   9.244  19.590  0.00  0.00    +0.007 C 
ATOM     12  C   UNL     1     -11.165   7.236  20.813  0.00  0.00    +0.009 C 
ATOM     13  C   UNL     1     -10.518  10.445  18.668  0.00  0.00    +0.008 C 
ATOM     14  C   UNL     1     -13.649   6.977  21.301  0.00  0.00    +0.078 C 
ATOM     15  C   UNL     1     -12.317   6.266  21.050  0.00  0.00    +0.023 C 
ATOM     16  C   UNL     1     -12.330  12.277  18.270  0.00  0.00    +0.101 C 
ATOM     17  C   UNL     1     -11.558   7.498  18.338  0.00  0.00    +0.011 C 
ATOM     18  C   UNL     1     -15.286   8.780  20.617  0.00  0.00    +0.010 C 
ATOM     19  C   UNL     1     -13.768  12.290  18.756  0.00  0.00    +0.311 C 
ATOM     20  C   UNL     1     -11.612  13.587  18.537  0.00  0.00    +0.019 C 
ENDROOT
BRANCH  14   4
ATOM      3  O   UNL     1     -14.214   5.283  23.568  0.00  0.00    -0.253 OA
ATOM      4  N   UNL     1     -14.694   5.982  21.407  0.00  0.00    -0.296 N 
ATOM      5  N   UNL     1     -15.962   4.332  22.377  0.00  0.00    -0.300 N 
ATOM     21  C   UNL     1     -14.893   5.208  22.545  0.00  0.00    +0.300 C 
ATOM     24  H   UNL     1     -15.260   5.786  20.586  0.00  0.00    +0.151 HD
ATOM     25  H   UNL     1     -16.475   4.349  21.501  0.00  0.00    +0.150 HD
BRANCH   5  22
ATOM     22  C   UNL     1     -16.389   3.411  23.405  0.00  0.00    +0.102 C 
ATOM     23  C   UNL     1     -17.466   2.474  22.899  0.00  0.00    +0.024 C 
ENDBRANCH   5  22
ENDBRANCH  14   4
TORSDOF 2
ENDMDL
