MODEL 1
REMARK VINA RESULT:      -7.5      0.000      0.000
REMARK  Name = 40778241
REMARK  8 active torsions:
REMARK  status: ('A' for Active; 'I' for Inactive)
REMARK    1  A    between atoms: O_3  and  C_12
REMARK    2  A    between atoms: O_4  and  C_13
REMARK    3  A    between atoms: N_9  and  C_22
REMARK    4  A    between atoms: N_10  and  C_16
REMARK    5  A    between atoms: C_11  and  C_15
REMARK    6  A    between atoms: C_14  and  C_16
REMARK    7  A    between atoms: C_15  and  C_17
REMARK    8  A    between atoms: C_23  and  C_26
REMARK                            x       y       z     vdW  Elec       q    Type
REMARK                         _______ _______ _______ _____ _____    ______ ____
ROOT
ATOM      2  O   UNL     1      14.016   7.973  22.127  0.00  0.00    -0.366 OA
ATOM     11  C   UNL     1      14.639   9.277  22.162  0.00  0.00    +0.159 C 
ATOM     12  C   UNL     1      13.503  10.294  22.212  0.00  0.00    +0.175 C 
ATOM     13  C   UNL     1      12.390   9.559  21.495  0.00  0.00    +0.176 C 
ATOM     14  C   UNL     1      12.593   8.138  21.992  0.00  0.00    +0.167 C 
ENDROOT
BRANCH  12   3
ATOM      3  O   UNL     1      13.157  10.503  23.581  0.00  0.00    -0.387 OA
ATOM     33  H   UNL     1      12.878  11.429  23.672  0.00  0.00    +0.210 HD
ENDBRANCH  12   3
BRANCH  13   4
ATOM      4  O   UNL     1      11.104  10.051  21.807  0.00  0.00    -0.387 OA
ATOM     34  H   UNL     1      10.822   9.627  22.635  0.00  0.00    +0.210 HD
ENDBRANCH  13   4
BRANCH  11  15
ATOM     15  C   UNL     1      15.505   9.412  20.918  0.00  0.00    +0.130 C 
BRANCH  15  17
ATOM      5  O   UNL     1      17.199  10.930  21.599  0.00  0.00    -0.276 OA
ATOM      8  N   UNL     1      17.836   8.713  21.319  0.00  0.00    -0.298 N 
ATOM      9  N   UNL     1      19.769   6.574  21.578  0.00  0.00    -0.327 N 
ATOM     17  C   UNL     1      16.919   9.764  21.312  0.00  0.00    +0.218 C 
ATOM     18  C   UNL     1      17.502   7.329  20.978  0.00  0.00    +0.126 C 
ATOM     19  C   UNL     1      19.224   8.971  21.696  0.00  0.00    +0.126 C 
ATOM     20  C   UNL     1      18.722   6.511  20.555  0.00  0.00    +0.124 C 
ATOM     21  C   UNL     1      19.854   7.777  22.410  0.00  0.00    +0.124 C 
BRANCH   9  22
ATOM      1  F   UNL     1      23.396   2.456  22.199  0.00  0.00    -0.205 F 
ATOM     22  C   UNL     1      20.684   5.535  21.735  0.00  0.00    +0.030 A 
ATOM     24  C   UNL     1      20.725   4.496  20.805  0.00  0.00    +0.026 A 
ATOM     25  C   UNL     1      21.559   5.534  22.821  0.00  0.00    +0.026 A 
ATOM     27  C   UNL     1      21.642   3.457  20.961  0.00  0.00    +0.040 A 
ATOM     28  C   UNL     1      22.475   4.494  22.977  0.00  0.00    +0.040 A 
ATOM     29  C   UNL     1      22.516   3.455  22.048  0.00  0.00    +0.124 A 
ENDBRANCH   9  22
ENDBRANCH  15  17
ENDBRANCH  11  15
BRANCH  14  16
ATOM     16  C   UNL     1      12.043   7.085  21.047  0.00  0.00    +0.138 C 
BRANCH  16  10
ATOM      6  O   UNL     1      13.747   7.185  18.737  0.00  0.00    -0.267 OA
ATOM     10  N   UNL     1      11.722   7.652  19.770  0.00  0.00    -0.306 N 
ATOM     23  C   UNL     1      12.614   7.657  18.700  0.00  0.00    +0.279 C 
ATOM     35  H   UNL     1      10.803   8.067  19.647  0.00  0.00    +0.149 HD
BRANCH  23  26
ATOM      7  O   UNL     1      10.862   8.064  17.054  0.00  0.00    -0.458 OA
ATOM     26  C   UNL     1      12.138   8.308  17.453  0.00  0.00    +0.189 A 
ATOM     30  C   UNL     1      12.766   9.157  16.571  0.00  0.00    +0.054 A 
ATOM     31  C   UNL     1      11.814   9.454  15.566  0.00  0.00    +0.042 A 
ATOM     32  C   UNL     1      10.672   8.765  15.905  0.00  0.00    +0.196 A 
ENDBRANCH  23  26
ENDBRANCH  16  10
ENDBRANCH  14  16
TORSDOF 8
ENDMDL
MODEL 2
REMARK VINA RESULT:      -7.2      2.262      4.359
REMARK  Name = 40778241
REMARK  8 active torsions:
REMARK  status: ('A' for Active; 'I' for Inactive)
REMARK    1  A    between atoms: O_3  and  C_12
REMARK    2  A    between atoms: O_4  and  C_13
REMARK    3  A    between atoms: N_9  and  C_22
REMARK    4  A    between atoms: N_10  and  C_16
REMARK    5  A    between atoms: C_11  and  C_15
REMARK    6  A    between atoms: C_14  and  C_16
REMARK    7  A    between atoms: C_15  and  C_17
REMARK    8  A    between atoms: C_23  and  C_26
REMARK                            x       y       z     vdW  Elec       q    Type
REMARK                         _______ _______ _______ _____ _____    ______ ____
ROOT
ATOM      2  O   UNL     1      14.129   8.699  19.449  0.00  0.00    -0.366 OA
ATOM     11  C   UNL     1      13.906   7.350  19.920  0.00  0.00    +0.159 C 
ATOM     12  C   UNL     1      12.414   7.081  19.759  0.00  0.00    +0.175 C 
ATOM     13  C   UNL     1      11.826   8.471  19.897  0.00  0.00    +0.176 C 
ATOM     14  C   UNL     1      12.859   9.313  19.168  0.00  0.00    +0.167 C 
ENDROOT
BRANCH  12   3
ATOM      3  O   UNL     1      12.194   6.580  18.441  0.00  0.00    -0.387 OA
ATOM     33  H   UNL     1      11.241   6.641  18.261  0.00  0.00    +0.210 HD
ENDBRANCH  12   3
BRANCH  13   4
ATOM      4  O   UNL     1      10.542   8.594  19.326  0.00  0.00    -0.387 OA
ATOM     34  H   UNL     1      10.354   7.768  18.848  0.00  0.00    +0.210 HD
ENDBRANCH  13   4
BRANCH  11  15
ATOM     15  C   UNL     1      14.372   7.279  21.367  0.00  0.00    +0.130 C 
BRANCH  15  17
ATOM      5  O   UNL     1      15.318   9.369  21.978  0.00  0.00    -0.276 OA
ATOM      8  N   UNL     1      16.799   7.712  21.301  0.00  0.00    -0.298 N 
ATOM      9  N   UNL     1      19.487   6.693  20.959  0.00  0.00    -0.327 N 
ATOM     17  C   UNL     1      15.531   8.222  21.581  0.00  0.00    +0.218 C 
ATOM     18  C   UNL     1      17.051   6.349  20.829  0.00  0.00    +0.126 C 
ATOM     19  C   UNL     1      17.973   8.561  21.489  0.00  0.00    +0.126 C 
ATOM     20  C   UNL     1      18.394   6.208  20.114  0.00  0.00    +0.124 C 
ATOM     21  C   UNL     1      19.196   7.756  21.925  0.00  0.00    +0.124 C 
BRANCH   9  22
ATOM      1  F   UNL     1      24.603   4.680  20.440  0.00  0.00    -0.205 F 
ATOM     22  C   UNL     1      20.778   6.186  20.828  0.00  0.00    +0.030 A 
ATOM     24  C   UNL     1      21.000   4.813  20.932  0.00  0.00    +0.026 A 
ATOM     25  C   UNL     1      21.847   7.050  20.594  0.00  0.00    +0.026 A 
ATOM     27  C   UNL     1      22.292   4.304  20.800  0.00  0.00    +0.040 A 
ATOM     28  C   UNL     1      23.139   6.540  20.462  0.00  0.00    +0.040 A 
ATOM     29  C   UNL     1      23.362   5.168  20.566  0.00  0.00    +0.124 A 
ENDBRANCH   9  22
ENDBRANCH  15  17
ENDBRANCH  11  15
BRANCH  14  16
ATOM     16  C   UNL     1      12.880  10.762  19.618  0.00  0.00    +0.138 C 
BRANCH  16  10
ATOM      6  O   UNL     1      11.634  13.068  20.791  0.00  0.00    -0.267 OA
ATOM     10  N   UNL     1      12.420  10.892  20.969  0.00  0.00    -0.306 N 
ATOM     23  C   UNL     1      11.825  12.053  21.456  0.00  0.00    +0.279 C 
ATOM     35  H   UNL     1      12.537  10.100  21.595  0.00  0.00    +0.149 HD
BRANCH  23  26
ATOM      7  O   UNL     1      11.760  10.948  23.627  0.00  0.00    -0.458 OA
ATOM     26  C   UNL     1      11.427  12.037  22.887  0.00  0.00    +0.189 A 
ATOM     30  C   UNL     1      10.753  12.957  23.656  0.00  0.00    +0.054 A 
ATOM     31  C   UNL     1      10.666  12.396  24.953  0.00  0.00    +0.042 A 
ATOM     32  C   UNL     1      11.293  11.174  24.884  0.00  0.00    +0.196 A 
ENDBRANCH  23  26
ENDBRANCH  16  10
ENDBRANCH  14  16
TORSDOF 8
ENDMDL
MODEL 3
REMARK VINA RESULT:      -7.1     27.652     30.844
REMARK  Name = 40778241
REMARK  8 active torsions:
REMARK  status: ('A' for Active; 'I' for Inactive)
REMARK    1  A    between atoms: O_3  and  C_12
REMARK    2  A    between atoms: O_4  and  C_13
REMARK    3  A    between atoms: N_9  and  C_22
REMARK    4  A    between atoms: N_10  and  C_16
REMARK    5  A    between atoms: C_11  and  C_15
REMARK    6  A    between atoms: C_14  and  C_16
REMARK    7  A    between atoms: C_15  and  C_17
REMARK    8  A    between atoms: C_23  and  C_26
REMARK                            x       y       z     vdW  Elec       q    Type
REMARK                         _______ _______ _______ _____ _____    ______ ____
ROOT
ATOM      2  O   UNL     1      -4.333 -11.634  18.599  0.00  0.00    -0.366 OA
ATOM     11  C   UNL     1      -5.690 -12.048  18.880  0.00  0.00    +0.159 C 
ATOM     12  C   UNL     1      -6.237 -12.633  17.583  0.00  0.00    +0.175 C 
ATOM     13  C   UNL     1      -5.450 -11.872  16.536  0.00  0.00    +0.176 C 
ATOM     14  C   UNL     1      -4.082 -11.781  17.190  0.00  0.00    +0.167 C 
ENDROOT
BRANCH  12   3
ATOM      3  O   UNL     1      -5.899 -14.019  17.546  0.00  0.00    -0.387 OA
ATOM     33  H   UNL     1      -5.165 -14.123  16.918  0.00  0.00    +0.210 HD
ENDBRANCH  12   3
BRANCH  13   4
ATOM      4  O   UNL     1      -5.399 -12.529  15.288  0.00  0.00    -0.387 OA
ATOM     34  H   UNL     1      -6.255 -12.970  15.154  0.00  0.00    +0.210 HD
ENDBRANCH  13   4
BRANCH  11  15
ATOM     15  C   UNL     1      -6.461 -10.824  19.354  0.00  0.00    +0.130 C 
BRANCH  15  17
ATOM      5  O   UNL     1      -8.389 -12.022  20.047  0.00  0.00    -0.276 OA
ATOM      8  N   UNL     1      -8.721 -10.312  18.510  0.00  0.00    -0.298 N 
ATOM      9  N   UNL     1     -10.459  -8.570  16.984  0.00  0.00    -0.327 N 
ATOM     17  C   UNL     1      -7.942 -11.115  19.344  0.00  0.00    +0.218 C 
ATOM     18  C   UNL     1      -8.188  -9.234  17.675  0.00  0.00    +0.126 C 
ATOM     19  C   UNL     1     -10.165 -10.526  18.450  0.00  0.00    +0.126 C 
ATOM     20  C   UNL     1      -9.108  -8.878  16.507  0.00  0.00    +0.124 C 
ATOM     21  C   UNL     1     -10.927  -9.224  18.209  0.00  0.00    +0.124 C 
BRANCH   9  22
ATOM      1  F   UNL     1     -13.763  -5.145  14.184  0.00  0.00    -0.205 F 
ATOM     22  C   UNL     1     -11.292  -7.706  16.277  0.00  0.00    +0.030 A 
ATOM     24  C   UNL     1     -12.669  -7.925  16.261  0.00  0.00    +0.026 A 
ATOM     25  C   UNL     1     -10.749  -6.622  15.587  0.00  0.00    +0.026 A 
ATOM     27  C   UNL     1     -13.504  -7.059  15.555  0.00  0.00    +0.040 A 
ATOM     28  C   UNL     1     -11.585  -5.757  14.880  0.00  0.00    +0.040 A 
ATOM     29  C   UNL     1     -12.961  -5.976  14.863  0.00  0.00    +0.124 A 
ENDBRANCH   9  22
ENDBRANCH  15  17
ENDBRANCH  11  15
BRANCH  14  16
ATOM     16  C   UNL     1      -3.254 -10.611  16.692  0.00  0.00    +0.138 C 
BRANCH  16  10
ATOM      6  O   UNL     1      -1.472 -11.348  14.565  0.00  0.00    -0.267 OA
ATOM     10  N   UNL     1      -3.456 -10.390  15.291  0.00  0.00    -0.306 N 
ATOM     23  C   UNL     1      -2.535 -10.783  14.324  0.00  0.00    +0.279 C 
ATOM     35  H   UNL     1      -4.312  -9.927  14.997  0.00  0.00    +0.149 HD
BRANCH  23  26
ATOM      7  O   UNL     1      -4.189 -10.241  12.617  0.00  0.00    -0.458 OA
ATOM     26  C   UNL     1      -2.882 -10.457  12.917  0.00  0.00    +0.189 A 
ATOM     30  C   UNL     1      -2.100 -10.322  11.793  0.00  0.00    +0.054 A 
ATOM     31  C   UNL     1      -2.984 -10.001  10.735  0.00  0.00    +0.042 A 
ATOM     32  C   UNL     1      -4.243  -9.964  11.287  0.00  0.00    +0.196 A 
ENDBRANCH  23  26
ENDBRANCH  16  10
ENDBRANCH  14  16
TORSDOF 8
ENDMDL
MODEL 4
REMARK VINA RESULT:      -7.0     30.050     33.109
REMARK  Name = 40778241
REMARK  8 active torsions:
REMARK  status: ('A' for Active; 'I' for Inactive)
REMARK    1  A    between atoms: O_3  and  C_12
REMARK    2  A    between atoms: O_4  and  C_13
REMARK    3  A    between atoms: N_9  and  C_22
REMARK    4  A    between atoms: N_10  and  C_16
REMARK    5  A    between atoms: C_11  and  C_15
REMARK    6  A    between atoms: C_14  and  C_16
REMARK    7  A    between atoms: C_15  and  C_17
REMARK    8  A    between atoms: C_23  and  C_26
REMARK                            x       y       z     vdW  Elec       q    Type
REMARK                         _______ _______ _______ _____ _____    ______ ____
ROOT
ATOM      2  O   UNL     1     -15.778   2.141  26.428  0.00  0.00    -0.366 OA
ATOM     11  C   UNL     1     -16.460   0.964  26.919  0.00  0.00    +0.159 C 
ATOM     12  C   UNL     1     -17.640   0.729  25.983  0.00  0.00    +0.175 C 
ATOM     13  C   UNL     1     -17.948   2.133  25.505  0.00  0.00    +0.176 C 
ATOM     14  C   UNL     1     -16.553   2.720  25.363  0.00  0.00    +0.167 C 
ENDROOT
BRANCH  12   3
ATOM      3  O   UNL     1     -17.188  -0.076  24.894  0.00  0.00    -0.387 OA
ATOM     33  H   UNL     1     -17.063  -0.978  25.232  0.00  0.00    +0.210 HD
ENDBRANCH  12   3
BRANCH  13   4
ATOM      4  O   UNL     1     -18.663   2.166  24.289  0.00  0.00    -0.387 OA
ATOM     34  H   UNL     1     -19.600   2.007  24.496  0.00  0.00    +0.210 HD
ENDBRANCH  13   4
BRANCH  11  15
ATOM     15  C   UNL     1     -16.884   1.237  28.355  0.00  0.00    +0.130 C 
BRANCH  15  17
ATOM      5  O   UNL     1     -15.120  -0.133  29.160  0.00  0.00    -0.276 OA
ATOM      8  N   UNL     1     -15.482   1.868  30.284  0.00  0.00    -0.298 N 
ATOM      9  N   UNL     1     -14.706   3.863  32.233  0.00  0.00    -0.327 N 
ATOM     17  C   UNL     1     -15.747   0.920  29.296  0.00  0.00    +0.218 C 
ATOM     18  C   UNL     1     -16.227   3.118  30.444  0.00  0.00    +0.126 C 
ATOM     19  C   UNL     1     -14.392   1.638  31.229  0.00  0.00    +0.126 C 
ATOM     20  C   UNL     1     -16.111   3.702  31.851  0.00  0.00    +0.124 C 
ATOM     21  C   UNL     1     -13.723   2.941  31.659  0.00  0.00    +0.124 C 
BRANCH   9  22
ATOM      1  F   UNL     1     -13.157   7.743  35.845  0.00  0.00    -0.205 F 
ATOM     22  C   UNL     1     -14.316   4.842  33.144  0.00  0.00    +0.030 A 
ATOM     24  C   UNL     1     -14.290   4.554  34.508  0.00  0.00    +0.026 A 
ATOM     25  C   UNL     1     -13.950   6.110  32.692  0.00  0.00    +0.026 A 
ATOM     27  C   UNL     1     -13.898   5.533  35.421  0.00  0.00    +0.040 A 
ATOM     28  C   UNL     1     -13.558   7.089  33.605  0.00  0.00    +0.040 A 
ATOM     29  C   UNL     1     -13.533   6.802  34.968  0.00  0.00    +0.124 A 
ENDBRANCH   9  22
ENDBRANCH  15  17
ENDBRANCH  11  15
BRANCH  14  16
ATOM     16  C   UNL     1     -16.523   4.233  25.473  0.00  0.00    +0.138 C 
BRANCH  16  10
ATOM      6  O   UNL     1     -16.733   4.564  22.628  0.00  0.00    -0.267 OA
ATOM     10  N   UNL     1     -15.535   4.797  24.601  0.00  0.00    -0.306 N 
ATOM     23  C   UNL     1     -15.721   4.919  23.227  0.00  0.00    +0.279 C 
ATOM     35  H   UNL     1     -14.662   5.118  25.010  0.00  0.00    +0.149 HD
BRANCH  23  26
ATOM      7  O   UNL     1     -14.820   6.628  21.741  0.00  0.00    -0.458 OA
ATOM     26  C   UNL     1     -14.589   5.499  22.460  0.00  0.00    +0.189 A 
ATOM     30  C   UNL     1     -13.279   5.100  22.326  0.00  0.00    +0.054 A 
ATOM     31  C   UNL     1     -12.666   6.046  21.470  0.00  0.00    +0.042 A 
ATOM     32  C   UNL     1     -13.645   6.955  21.141  0.00  0.00    +0.196 A 
ENDBRANCH  23  26
ENDBRANCH  16  10
ENDBRANCH  14  16
TORSDOF 8
ENDMDL
MODEL 5
REMARK VINA RESULT:      -7.0     28.907     32.893
REMARK  Name = 40778241
REMARK  8 active torsions:
REMARK  status: ('A' for Active; 'I' for Inactive)
REMARK    1  A    between atoms: O_3  and  C_12
REMARK    2  A    between atoms: O_4  and  C_13
REMARK    3  A    between atoms: N_9  and  C_22
REMARK    4  A    between atoms: N_10  and  C_16
REMARK    5  A    between atoms: C_11  and  C_15
REMARK    6  A    between atoms: C_14  and  C_16
REMARK    7  A    between atoms: C_15  and  C_17
REMARK    8  A    between atoms: C_23  and  C_26
REMARK                            x       y       z     vdW  Elec       q    Type
REMARK                         _______ _______ _______ _____ _____    ______ ____
ROOT
ATOM      2  O   UNL     1     -15.613   2.908  24.492  0.00  0.00    -0.366 OA
ATOM     11  C   UNL     1     -16.808   2.095  24.525  0.00  0.00    +0.159 C 
ATOM     12  C   UNL     1     -17.585   2.423  23.255  0.00  0.00    +0.175 C 
ATOM     13  C   UNL     1     -17.161   3.852  22.985  0.00  0.00    +0.176 C 
ATOM     14  C   UNL     1     -15.693   3.813  23.377  0.00  0.00    +0.167 C 
ENDROOT
BRANCH  12   3
ATOM      3  O   UNL     1     -17.118   1.563  22.216  0.00  0.00    -0.387 OA
ATOM     33  H   UNL     1     -17.404   1.946  21.370  0.00  0.00    +0.210 HD
ENDBRANCH  12   3
BRANCH  13   4
ATOM      4  O   UNL     1     -17.340   4.244  21.641  0.00  0.00    -0.387 OA
ATOM     34  H   UNL     1     -16.476   4.178  21.200  0.00  0.00    +0.210 HD
ENDBRANCH  13   4
BRANCH  11  15
ATOM     15  C   UNL     1     -17.571   2.441  25.796  0.00  0.00    +0.130 C 
BRANCH  15  17
ATOM      5  O   UNL     1     -17.290   0.253  26.672  0.00  0.00    -0.276 OA
ATOM      8  N   UNL     1     -16.824   2.018  28.108  0.00  0.00    -0.298 N 
ATOM      9  N   UNL     1     -15.790   3.057  30.605  0.00  0.00    -0.327 N 
ATOM     17  C   UNL     1     -17.217   1.464  26.890  0.00  0.00    +0.218 C 
ATOM     18  C   UNL     1     -16.739   3.457  28.366  0.00  0.00    +0.126 C 
ATOM     19  C   UNL     1     -16.459   1.138  29.216  0.00  0.00    +0.126 C 
ATOM     20  C   UNL     1     -16.807   3.799  29.854  0.00  0.00    +0.124 C 
ATOM     21  C   UNL     1     -15.371   1.749  30.096  0.00  0.00    +0.124 C 
BRANCH   9  22
ATOM      1  F   UNL     1     -13.686   5.064  35.300  0.00  0.00    -0.205 F 
ATOM     22  C   UNL     1     -15.260   3.563  31.790  0.00  0.00    +0.030 A 
ATOM     24  C   UNL     1     -14.744   4.858  31.824  0.00  0.00    +0.026 A 
ATOM     25  C   UNL     1     -15.244   2.775  32.940  0.00  0.00    +0.026 A 
ATOM     27  C   UNL     1     -14.213   5.366  33.010  0.00  0.00    +0.040 A 
ATOM     28  C   UNL     1     -14.713   3.283  34.126  0.00  0.00    +0.040 A 
ATOM     29  C   UNL     1     -14.197   4.577  34.161  0.00  0.00    +0.124 A 
ENDBRANCH   9  22
ENDBRANCH  15  17
ENDBRANCH  11  15
BRANCH  14  16
ATOM     16  C   UNL     1     -15.142   5.169  23.778  0.00  0.00    +0.138 C 
BRANCH  16  10
ATOM      6  O   UNL     1     -15.680   6.805  21.481  0.00  0.00    -0.267 OA
ATOM     10  N   UNL     1     -14.185   5.643  22.822  0.00  0.00    -0.306 N 
ATOM     23  C   UNL     1     -14.536   6.435  21.732  0.00  0.00    +0.279 C 
ATOM     35  H   UNL     1     -13.211   5.386  22.950  0.00  0.00    +0.149 HD
BRANCH  23  26
ATOM      7  O   UNL     1     -13.753   7.442  19.654  0.00  0.00    -0.458 OA
ATOM     26  C   UNL     1     -13.430   6.821  20.819  0.00  0.00    +0.189 A 
ATOM     30  C   UNL     1     -12.066   6.668  20.923  0.00  0.00    +0.054 A 
ATOM     31  C   UNL     1     -11.517   7.232  19.746  0.00  0.00    +0.042 A 
ATOM     32  C   UNL     1     -12.584   7.689  19.007  0.00  0.00    +0.196 A 
ENDBRANCH  23  26
ENDBRANCH  16  10
ENDBRANCH  14  16
TORSDOF 8
ENDMDL
MODEL 6
REMARK VINA RESULT:      -6.9     28.991     32.839
REMARK  Name = 40778241
REMARK  8 active torsions:
REMARK  status: ('A' for Active; 'I' for Inactive)
REMARK    1  A    between atoms: O_3  and  C_12
REMARK    2  A    between atoms: O_4  and  C_13
REMARK    3  A    between atoms: N_9  and  C_22
REMARK    4  A    between atoms: N_10  and  C_16
REMARK    5  A    between atoms: C_11  and  C_15
REMARK    6  A    between atoms: C_14  and  C_16
REMARK    7  A    between atoms: C_15  and  C_17
REMARK    8  A    between atoms: C_23  and  C_26
REMARK                            x       y       z     vdW  Elec       q    Type
REMARK                         _______ _______ _______ _____ _____    ______ ____
ROOT
ATOM      2  O   UNL     1     -18.038   3.061  26.320  0.00  0.00    -0.366 OA
ATOM     11  C   UNL     1     -17.349   2.267  25.327  0.00  0.00    +0.159 C 
ATOM     12  C   UNL     1     -16.890   0.997  26.036  0.00  0.00    +0.175 C 
ATOM     13  C   UNL     1     -16.716   1.477  27.462  0.00  0.00    +0.176 C 
ATOM     14  C   UNL     1     -17.887   2.435  27.606  0.00  0.00    +0.167 C 
ENDROOT
BRANCH  12   3
ATOM      3  O   UNL     1     -17.947   0.042  25.961  0.00  0.00    -0.387 OA
ATOM     33  H   UNL     1     -17.888  -0.521  26.750  0.00  0.00    +0.210 HD
ENDBRANCH  12   3
BRANCH  13   4
ATOM      4  O   UNL     1     -16.763   0.435  28.412  0.00  0.00    -0.387 OA
ATOM     34  H   UNL     1     -16.411  -0.365  27.986  0.00  0.00    +0.210 HD
ENDBRANCH  13   4
BRANCH  11  15
ATOM     15  C   UNL     1     -16.194   3.098  24.786  0.00  0.00    +0.130 C 
BRANCH  15  17
ATOM      5  O   UNL     1     -17.711   3.528  23.012  0.00  0.00    -0.276 OA
ATOM      8  N   UNL     1     -15.640   4.574  22.889  0.00  0.00    -0.298 N 
ATOM      9  N   UNL     1     -13.821   6.473  21.679  0.00  0.00    -0.327 N 
ATOM     17  C   UNL     1     -16.594   3.748  23.484  0.00  0.00    +0.218 C 
ATOM     18  C   UNL     1     -14.313   4.833  23.451  0.00  0.00    +0.126 C 
ATOM     19  C   UNL     1     -15.953   5.245  21.630  0.00  0.00    +0.126 C 
ATOM     20  C   UNL     1     -13.307   5.308  22.403  0.00  0.00    +0.124 C 
ATOM     21  C   UNL     1     -15.272   6.607  21.523  0.00  0.00    +0.124 C 
BRANCH   9  22
ATOM      1  F   UNL     1     -10.394  10.200  19.474  0.00  0.00    -0.205 F 
ATOM     22  C   UNL     1     -12.956   7.413  21.122  0.00  0.00    +0.030 A 
ATOM     24  C   UNL     1     -13.098   8.764  21.441  0.00  0.00    +0.026 A 
ATOM     25  C   UNL     1     -11.950   7.004  20.248  0.00  0.00    +0.026 A 
ATOM     27  C   UNL     1     -12.232   9.705  20.885  0.00  0.00    +0.040 A 
ATOM     28  C   UNL     1     -11.085   7.946  19.692  0.00  0.00    +0.040 A 
ATOM     29  C   UNL     1     -11.226   9.296  20.009  0.00  0.00    +0.124 A 
ENDBRANCH   9  22
ENDBRANCH  15  17
ENDBRANCH  11  15
BRANCH  14  16
ATOM     16  C   UNL     1     -17.669   3.496  28.670  0.00  0.00    +0.138 C 
BRANCH  16  10
ATOM      6  O   UNL     1     -15.224   4.300  29.943  0.00  0.00    -0.267 OA
ATOM     10  N   UNL     1     -17.096   2.932  29.855  0.00  0.00    -0.306 N 
ATOM     23  C   UNL     1     -15.900   3.385  30.406  0.00  0.00    +0.279 C 
ATOM     35  H   UNL     1     -17.587   2.167  30.309  0.00  0.00    +0.149 HD
BRANCH  23  26
ATOM      7  O   UNL     1     -15.084   1.367  31.503  0.00  0.00    -0.458 OA
ATOM     26  C   UNL     1     -15.427   2.676  31.622  0.00  0.00    +0.189 A 
ATOM     30  C   UNL     1     -15.256   3.105  32.919  0.00  0.00    +0.054 A 
ATOM     31  C   UNL     1     -14.776   1.987  33.642  0.00  0.00    +0.042 A 
ATOM     32  C   UNL     1     -14.689   0.955  32.737  0.00  0.00    +0.196 A 
ENDBRANCH  23  26
ENDBRANCH  16  10
ENDBRANCH  14  16
TORSDOF 8
ENDMDL
MODEL 7
REMARK VINA RESULT:      -6.9     28.315     30.191
REMARK  Name = 40778241
REMARK  8 active torsions:
REMARK  status: ('A' for Active; 'I' for Inactive)
REMARK    1  A    between atoms: O_3  and  C_12
REMARK    2  A    between atoms: O_4  and  C_13
REMARK    3  A    between atoms: N_9  and  C_22
REMARK    4  A    between atoms: N_10  and  C_16
REMARK    5  A    between atoms: C_11  and  C_15
REMARK    6  A    between atoms: C_14  and  C_16
REMARK    7  A    between atoms: C_15  and  C_17
REMARK    8  A    between atoms: C_23  and  C_26
REMARK                            x       y       z     vdW  Elec       q    Type
REMARK                         _______ _______ _______ _____ _____    ______ ____
ROOT
ATOM      2  O   UNL     1      -8.535 -12.236  19.058  0.00  0.00    -0.366 OA
ATOM     11  C   UNL     1      -7.094 -12.121  19.040  0.00  0.00    +0.159 C 
ATOM     12  C   UNL     1      -6.784 -10.646  18.805  0.00  0.00    +0.175 C 
ATOM     13  C   UNL     1      -7.994 -10.192  18.015  0.00  0.00    +0.176 C 
ATOM     14  C   UNL     1      -9.110 -10.970  18.692  0.00  0.00    +0.167 C 
ENDROOT
BRANCH  12   3
ATOM      3  O   UNL     1      -6.748  -9.994  20.073  0.00  0.00    -0.387 OA
ATOM     33  H   UNL     1      -6.728 -10.685  20.756  0.00  0.00    +0.210 HD
ENDBRANCH  12   3
BRANCH  13   4
ATOM      4  O   UNL     1      -8.208  -8.799  18.072  0.00  0.00    -0.387 OA
ATOM     34  H   UNL     1      -8.532  -8.517  17.199  0.00  0.00    +0.210 HD
ENDBRANCH  13   4
BRANCH  11  15
ATOM     15  C   UNL     1      -6.568 -13.024  17.933  0.00  0.00    +0.130 C 
BRANCH  15  17
ATOM      5  O   UNL     1      -4.233 -12.901  18.341  0.00  0.00    -0.276 OA
ATOM      8  N   UNL     1      -4.996 -11.956  16.361  0.00  0.00    -0.298 N 
ATOM      9  N   UNL     1      -4.520 -10.752  13.772  0.00  0.00    -0.327 N 
ATOM     17  C   UNL     1      -5.157 -12.628  17.573  0.00  0.00    +0.218 C 
ATOM     18  C   UNL     1      -6.096 -11.632  15.450  0.00  0.00    +0.126 C 
ATOM     19  C   UNL     1      -3.660 -11.545  15.938  0.00  0.00    +0.126 C 
ATOM     20  C   UNL     1      -5.761 -10.480  14.503  0.00  0.00    +0.124 C 
ATOM     21  C   UNL     1      -3.503 -11.585  14.420  0.00  0.00    +0.124 C 
BRANCH   9  22
ATOM      1  F   UNL     1      -3.621  -8.591   8.770  0.00  0.00    -0.205 F 
ATOM     22  C   UNL     1      -4.294 -10.206  12.510  0.00  0.00    +0.030 A 
ATOM     24  C   UNL     1      -3.030 -10.301  11.927  0.00  0.00    +0.026 A 
ATOM     25  C   UNL     1      -5.330  -9.566  11.831  0.00  0.00    +0.026 A 
ATOM     27  C   UNL     1      -2.803  -9.756  10.663  0.00  0.00    +0.040 A 
ATOM     28  C   UNL     1      -5.102  -9.021  10.567  0.00  0.00    +0.040 A 
ATOM     29  C   UNL     1      -3.840  -9.115   9.984  0.00  0.00    +0.124 A 
ENDBRANCH   9  22
ENDBRANCH  15  17
ENDBRANCH  11  15
BRANCH  14  16
ATOM     16  C   UNL     1     -10.316 -11.194  17.798  0.00  0.00    +0.138 C 
BRANCH  16  10
ATOM      6  O   UNL     1     -12.246  -9.210  18.562  0.00  0.00    -0.267 OA
ATOM     10  N   UNL     1     -10.653 -10.005  17.074  0.00  0.00    -0.306 N 
ATOM     23  C   UNL     1     -11.607  -9.093  17.520  0.00  0.00    +0.279 C 
ATOM     35  H   UNL     1     -10.173  -9.824  16.197  0.00  0.00    +0.149 HD
BRANCH  23  26
ATOM      7  O   UNL     1     -11.028  -6.855  16.747  0.00  0.00    -0.458 OA
ATOM     26  C   UNL     1     -11.859  -7.924  16.639  0.00  0.00    +0.189 A 
ATOM     30  C   UNL     1     -12.820  -7.695  15.681  0.00  0.00    +0.054 A 
ATOM     31  C   UNL     1     -12.562  -6.402  15.167  0.00  0.00    +0.042 A 
ATOM     32  C   UNL     1     -11.463  -5.932  15.847  0.00  0.00    +0.196 A 
ENDBRANCH  23  26
ENDBRANCH  16  10
ENDBRANCH  14  16
TORSDOF 8
ENDMDL
MODEL 8
REMARK VINA RESULT:      -6.8     27.522     29.816
REMARK  Name = 40778241
REMARK  8 active torsions:
REMARK  status: ('A' for Active; 'I' for Inactive)
REMARK    1  A    between atoms: O_3  and  C_12
REMARK    2  A    between atoms: O_4  and  C_13
REMARK    3  A    between atoms: N_9  and  C_22
REMARK    4  A    between atoms: N_10  and  C_16
REMARK    5  A    between atoms: C_11  and  C_15
REMARK    6  A    between atoms: C_14  and  C_16
REMARK    7  A    between atoms: C_15  and  C_17
REMARK    8  A    between atoms: C_23  and  C_26
REMARK                            x       y       z     vdW  Elec       q    Type
REMARK                         _______ _______ _______ _____ _____    ______ ____
ROOT
ATOM      2  O   UNL     1      -5.016 -12.736  17.275  0.00  0.00    -0.366 OA
ATOM     11  C   UNL     1      -4.032 -11.731  17.610  0.00  0.00    +0.159 C 
ATOM     12  C   UNL     1      -4.360 -11.264  19.024  0.00  0.00    +0.175 C 
ATOM     13  C   UNL     1      -5.857 -11.491  19.092  0.00  0.00    +0.176 C 
ATOM     14  C   UNL     1      -6.003 -12.792  18.320  0.00  0.00    +0.167 C 
ENDROOT
BRANCH  12   3
ATOM      3  O   UNL     1      -3.687 -12.124  19.942  0.00  0.00    -0.387 OA
ATOM     33  H   UNL     1      -2.848 -11.696  20.180  0.00  0.00    +0.210 HD
ENDBRANCH  12   3
BRANCH  13   4
ATOM      4  O   UNL     1      -6.346 -11.600  20.411  0.00  0.00    -0.387 OA
ATOM     34  H   UNL     1      -7.221 -12.022  20.364  0.00  0.00    +0.210 HD
ENDBRANCH  13   4
BRANCH  11  15
ATOM     15  C   UNL     1      -4.133 -10.618  16.576  0.00  0.00    +0.130 C 
BRANCH  15  17
ATOM      5  O   UNL     1      -1.829 -10.797  16.036  0.00  0.00    -0.276 OA
ATOM      8  N   UNL     1      -3.313 -10.690  14.251  0.00  0.00    -0.298 N 
ATOM      9  N   UNL     1      -3.902 -10.872  11.423  0.00  0.00    -0.327 N 
ATOM     17  C   UNL     1      -2.981 -10.712  15.607  0.00  0.00    +0.218 C 
ATOM     18  C   UNL     1      -4.682 -10.588  13.743  0.00  0.00    +0.126 C 
ATOM     19  C   UNL     1      -2.254 -10.783  13.249  0.00  0.00    +0.126 C 
ATOM     20  C   UNL     1      -4.745 -10.065  12.309  0.00  0.00    +0.124 C 
ATOM     21  C   UNL     1      -2.718 -11.519  11.994  0.00  0.00    +0.124 C 
BRANCH   9  22
ATOM      1  F   UNL     1      -5.063 -11.365   6.047  0.00  0.00    -0.205 F 
ATOM     22  C   UNL     1      -4.195 -10.996  10.066  0.00  0.00    +0.030 A 
ATOM     24  C   UNL     1      -4.115 -12.244   9.448  0.00  0.00    +0.026 A 
ATOM     25  C   UNL     1      -4.567  -9.873   9.327  0.00  0.00    +0.026 A 
ATOM     27  C   UNL     1      -4.410 -12.369   8.091  0.00  0.00    +0.040 A 
ATOM     28  C   UNL     1      -4.860  -9.999   7.969  0.00  0.00    +0.040 A 
ATOM     29  C   UNL     1      -4.781 -11.246   7.351  0.00  0.00    +0.124 A 
ENDBRANCH   9  22
ENDBRANCH  15  17
ENDBRANCH  11  15
BRANCH  14  16
ATOM     16  C   UNL     1      -7.381 -12.979  17.713  0.00  0.00    +0.138 C 
BRANCH  16  10
ATOM      6  O   UNL     1      -7.798 -11.262  15.450  0.00  0.00    -0.267 OA
ATOM     10  N   UNL     1      -8.113 -11.747  17.697  0.00  0.00    -0.306 N 
ATOM     23  C   UNL     1      -8.265 -10.974  16.549  0.00  0.00    +0.279 C 
ATOM     35  H   UNL     1      -8.536 -11.428  18.564  0.00  0.00    +0.149 HD
BRANCH  23  26
ATOM      7  O   UNL     1      -9.059  -8.849  15.655  0.00  0.00    -0.458 OA
ATOM     26  C   UNL     1      -9.029  -9.710  16.705  0.00  0.00    +0.189 A 
ATOM     30  C   UNL     1      -9.756  -9.209  17.761  0.00  0.00    +0.054 A 
ATOM     31  C   UNL     1     -10.265  -7.961  17.331  0.00  0.00    +0.042 A 
ATOM     32  C   UNL     1      -9.812  -7.787  16.043  0.00  0.00    +0.196 A 
ENDBRANCH  23  26
ENDBRANCH  16  10
ENDBRANCH  14  16
TORSDOF 8
ENDMDL
MODEL 9
REMARK VINA RESULT:      -6.7      4.713     10.346
REMARK  Name = 40778241
REMARK  8 active torsions:
REMARK  status: ('A' for Active; 'I' for Inactive)
REMARK    1  A    between atoms: O_3  and  C_12
REMARK    2  A    between atoms: O_4  and  C_13
REMARK    3  A    between atoms: N_9  and  C_22
REMARK    4  A    between atoms: N_10  and  C_16
REMARK    5  A    between atoms: C_11  and  C_15
REMARK    6  A    between atoms: C_14  and  C_16
REMARK    7  A    between atoms: C_15  and  C_17
REMARK    8  A    between atoms: C_23  and  C_26
REMARK                            x       y       z     vdW  Elec       q    Type
REMARK                         _______ _______ _______ _____ _____    ______ ____
ROOT
ATOM      2  O   UNL     1      18.199   6.567  19.854  0.00  0.00    -0.366 OA
ATOM     11  C   UNL     1      17.479   7.502  20.689  0.00  0.00    +0.159 C 
ATOM     12  C   UNL     1      18.452   7.944  21.777  0.00  0.00    +0.175 C 
ATOM     13  C   UNL     1      19.355   6.734  21.902  0.00  0.00    +0.176 C 
ATOM     14  C   UNL     1      19.478   6.295  20.452  0.00  0.00    +0.167 C 
ENDROOT
BRANCH  12   3
ATOM      3  O   UNL     1      19.188   9.063  21.285  0.00  0.00    -0.387 OA
ATOM     33  H   UNL     1      18.835   9.279  20.406  0.00  0.00    +0.210 HD
ENDBRANCH  12   3
BRANCH  13   4
ATOM      4  O   UNL     1      20.611   7.031  22.474  0.00  0.00    -0.387 OA
ATOM     34  H   UNL     1      21.289   6.848  21.802  0.00  0.00    +0.210 HD
ENDBRANCH  13   4
BRANCH  11  15
ATOM     15  C   UNL     1      16.254   6.786  21.240  0.00  0.00    +0.130 C 
BRANCH  15  17
ATOM      5  O   UNL     1      14.670   6.678  19.475  0.00  0.00    -0.276 OA
ATOM      8  N   UNL     1      14.335   8.327  21.076  0.00  0.00    -0.298 N 
ATOM      9  N   UNL     1      12.726  10.413  22.277  0.00  0.00    -0.327 N 
ATOM     17  C   UNL     1      15.017   7.249  20.510  0.00  0.00    +0.218 C 
ATOM     18  C   UNL     1      14.748   9.005  22.306  0.00  0.00    +0.126 C 
ATOM     19  C   UNL     1      13.124   8.830  20.433  0.00  0.00    +0.126 C 
ATOM     20  C   UNL     1      14.184  10.421  22.421  0.00  0.00    +0.124 C 
ATOM     21  C   UNL     1      12.118   9.367  21.449  0.00  0.00    +0.124 C 
BRANCH   9  22
ATOM      1  F   UNL     1       9.601  14.290  24.664  0.00  0.00    -0.205 F 
ATOM     22  C   UNL     1      11.937  11.391  22.878  0.00  0.00    +0.030 A 
ATOM     24  C   UNL     1      11.755  11.384  24.261  0.00  0.00    +0.026 A 
ATOM     25  C   UNL     1      11.331  12.376  22.099  0.00  0.00    +0.026 A 
ATOM     27  C   UNL     1      10.967  12.364  24.865  0.00  0.00    +0.040 A 
ATOM     28  C   UNL     1      10.542  13.355  22.703  0.00  0.00    +0.040 A 
ATOM     29  C   UNL     1      10.360  13.349  24.085  0.00  0.00    +0.124 A 
ENDBRANCH   9  22
ENDBRANCH  15  17
ENDBRANCH  11  15
BRANCH  14  16
ATOM     16  C   UNL     1      19.813   4.823  20.296  0.00  0.00    +0.138 C 
BRANCH  16  10
ATOM      6  O   UNL     1      21.597   4.052  22.410  0.00  0.00    -0.267 OA
ATOM     10  N   UNL     1      21.228   4.621  20.191  0.00  0.00    -0.306 N 
ATOM     23  C   UNL     1      22.020   4.246  21.274  0.00  0.00    +0.279 C 
ATOM     35  H   UNL     1      21.667   4.760  19.285  0.00  0.00    +0.149 HD
BRANCH  23  26
ATOM      7  O   UNL     1      23.945   4.539  19.808  0.00  0.00    -0.458 OA
ATOM     26  C   UNL     1      23.474   4.104  21.005  0.00  0.00    +0.189 A 
ATOM     30  C   UNL     1      24.497   3.593  21.771  0.00  0.00    +0.054 A 
ATOM     31  C   UNL     1      25.672   3.723  20.993  0.00  0.00    +0.042 A 
ATOM     32  C   UNL     1      25.284   4.303  19.808  0.00  0.00    +0.196 A 
ENDBRANCH  23  26
ENDBRANCH  16  10
ENDBRANCH  14  16
TORSDOF 8
ENDMDL
MODEL 10
REMARK VINA RESULT:      -6.6     15.522     19.424
REMARK  Name = 40778241
REMARK  8 active torsions:
REMARK  status: ('A' for Active; 'I' for Inactive)
REMARK    1  A    between atoms: O_3  and  C_12
REMARK    2  A    between atoms: O_4  and  C_13
REMARK    3  A    between atoms: N_9  and  C_22
REMARK    4  A    between atoms: N_10  and  C_16
REMARK    5  A    between atoms: C_11  and  C_15
REMARK    6  A    between atoms: C_14  and  C_16
REMARK    7  A    between atoms: C_15  and  C_17
REMARK    8  A    between atoms: C_23  and  C_26
REMARK                            x       y       z     vdW  Elec       q    Type
REMARK                         _______ _______ _______ _____ _____    ______ ____
ROOT
ATOM      2  O   UNL     1      11.082   6.941   7.244  0.00  0.00    -0.366 OA
ATOM     11  C   UNL     1      10.059   6.424   8.124  0.00  0.00    +0.159 C 
ATOM     12  C   UNL     1       9.700   5.038   7.599  0.00  0.00    +0.175 C 
ATOM     13  C   UNL     1       9.997   5.175   6.120  0.00  0.00    +0.176 C 
ATOM     14  C   UNL     1      11.249   6.035   6.138  0.00  0.00    +0.167 C 
ENDROOT
BRANCH  12   3
ATOM      3  O   UNL     1      10.589   4.094   8.197  0.00  0.00    -0.387 OA
ATOM     33  H   UNL     1      11.152   4.580   8.822  0.00  0.00    +0.210 HD
ENDBRANCH  12   3
BRANCH  13   4
ATOM      4  O   UNL     1      10.213   3.938   5.476  0.00  0.00    -0.387 OA
ATOM     34  H   UNL     1      10.356   4.121   4.531  0.00  0.00    +0.210 HD
ENDBRANCH  13   4
BRANCH  11  15
ATOM     15  C   UNL     1       8.886   7.394   8.095  0.00  0.00    +0.130 C 
BRANCH  15  17
ATOM      5  O   UNL     1      10.025   9.463   8.334  0.00  0.00    -0.276 OA
ATOM      8  N   UNL     1       8.958   9.089   6.305  0.00  0.00    -0.298 N 
ATOM      9  N   UNL     1       8.391   9.817   3.561  0.00  0.00    -0.327 N 
ATOM     17  C   UNL     1       9.347   8.742   7.599  0.00  0.00    +0.218 C 
ATOM     18  C   UNL     1       8.152   8.232   5.433  0.00  0.00    +0.126 C 
ATOM     19  C   UNL     1       9.370  10.376   5.749  0.00  0.00    +0.126 C 
ATOM     20  C   UNL     1       7.438   9.013   4.330  0.00  0.00    +0.124 C 
ATOM     21  C   UNL     1       9.595  10.301   4.241  0.00  0.00    +0.124 C 
BRANCH   9  22
ATOM      1  F   UNL     1       7.423  11.116  -1.718  0.00  0.00    -0.205 F 
ATOM     22  C   UNL     1       8.146  10.145   2.229  0.00  0.00    +0.030 A 
ATOM     24  C   UNL     1       9.052  10.943   1.531  0.00  0.00    +0.026 A 
ATOM     25  C   UNL     1       6.996   9.675   1.595  0.00  0.00    +0.026 A 
ATOM     27  C   UNL     1       8.808  11.270   0.197  0.00  0.00    +0.040 A 
ATOM     28  C   UNL     1       6.752  10.003   0.261  0.00  0.00    +0.040 A 
ATOM     29  C   UNL     1       7.657  10.801  -0.437  0.00  0.00    +0.124 A 
ENDBRANCH   9  22
ENDBRANCH  15  17
ENDBRANCH  11  15
BRANCH  14  16
ATOM     16  C   UNL     1      11.457   6.823   4.858  0.00  0.00    +0.138 C 
BRANCH  16  10
ATOM      6  O   UNL     1      10.415   5.406   2.589  0.00  0.00    -0.267 OA
ATOM     10  N   UNL     1      12.210   6.068   3.901  0.00  0.00    -0.306 N 
ATOM     23  C   UNL     1      11.619   5.409   2.826  0.00  0.00    +0.279 C 
ATOM     35  H   UNL     1      13.218   6.015   4.017  0.00  0.00    +0.149 HD
BRANCH  23  26
ATOM      7  O   UNL     1      11.995   3.712   1.116  0.00  0.00    -0.458 OA
ATOM     26  C   UNL     1      12.536   4.647   1.940  0.00  0.00    +0.189 A 
ATOM     30  C   UNL     1      13.902   4.704   1.776  0.00  0.00    +0.054 A 
ATOM     31  C   UNL     1      14.219   3.741   0.787  0.00  0.00    +0.042 A 
ATOM     32  C   UNL     1      13.025   3.165   0.418  0.00  0.00    +0.196 A 
ENDBRANCH  23  26
ENDBRANCH  16  10
ENDBRANCH  14  16
TORSDOF 8
ENDMDL
