REMARK  Name = 45783893
REMARK  9 active torsions:
REMARK  status: ('A' for Active; 'I' for Inactive)
REMARK    1  A    between atoms: N_2  and  C_13
REMARK    2  A    between atoms: C_8  and  C_12
REMARK    3  A    between atoms: C_9  and  C_13
REMARK    4  A    between atoms: C_11  and  C_16
REMARK    5  A    between atoms: C_12  and  C_17
REMARK    6  A    between atoms: C_12  and  C_18
REMARK    7  A    between atoms: C_15  and  C_21
REMARK    8  A    between atoms: C_16  and  C_24
REMARK    9  A    between atoms: C_26  and  C_27
REMARK                            x       y       z     vdW  Elec       q    Type
REMARK                         _______ _______ _______ _____ _____    ______ ____
ROOT
ATOM      8  C   UNL     1       1.117  -0.806  -0.774  0.00  0.00    +0.000 C 
ATOM      9  C   UNL     1       0.601  -1.979   0.093  0.00  0.00    +0.029 C 
ATOM     10  C   UNL     1       2.255  -0.067  -0.056  0.00  0.00    +0.012 C 
ATOM     11  C   UNL     1       3.437  -0.984   0.324  0.00  0.00    +0.024 C 
ATOM     14  C   UNL     1       1.719  -2.774   0.717  0.00  0.00    -0.023 C 
ATOM     15  C   UNL     1       2.993  -2.353   0.819  0.00  0.00    -0.073 C 
ATOM     21  C   UNL     1       4.049  -3.263   1.383  0.00  0.00    +0.039 C 
ENDROOT
BRANCH   8  12
ATOM     12  C   UNL     1       1.558  -1.289  -2.162  0.00  0.00    -0.013 C 
ATOM     17  C   UNL     1       2.448  -0.246  -2.830  0.00  0.00    +0.007 C 
ATOM     18  C   UNL     1       0.343  -1.598  -3.030  0.00  0.00    +0.007 C 
ENDBRANCH   8  12
BRANCH   9  13
ATOM     13  C   UNL     1      -0.348  -1.493   1.194  0.00  0.00    +0.092 C 
BRANCH  13   2
ATOM      2  N   UNL     1      -1.461  -0.737   0.621  0.00  0.00    -0.299 NA
ATOM      3  N   UNL     1      -4.176   0.112   0.358  0.00  0.00    -0.297 N 
ATOM      6  N   UNL     1      -6.316  -0.261  -0.498  0.00  0.00    -0.223 NA
ATOM      7  N   UNL     1      -5.739   1.837   0.537  0.00  0.00    -0.223 NA
ATOM     19  C   UNL     1      -2.473  -1.648   0.071  0.00  0.00    +0.103 C 
ATOM     20  C   UNL     1      -2.069   0.133   1.634  0.00  0.00    +0.103 C 
ATOM     22  C   UNL     1      -3.616  -0.868  -0.582  0.00  0.00    +0.123 C 
ATOM     23  C   UNL     1      -3.199   0.972   1.033  0.00  0.00    +0.123 C 
ATOM     25  C   UNL     1      -5.471   0.585   0.121  0.00  0.00    +0.218 A 
ATOM     28  C   UNL     1      -7.556   0.227  -0.710  0.00  0.00    +0.116 A 
ATOM     29  C   UNL     1      -6.997   2.261   0.293  0.00  0.00    +0.116 A 
ATOM     30  C   UNL     1      -7.957   1.493  -0.333  0.00  0.00    +0.039 A 
ENDBRANCH  13   2
ENDBRANCH   9  13
BRANCH  11  16
ATOM     16  C   UNL     1       4.326  -0.245   1.332  0.00  0.00    +0.105 C 
BRANCH  16  24
ATOM      1  O   UNL     1       5.732   1.112  -0.130  0.00  0.00    -0.425 OA
ATOM      4  N   UNL     1       4.307   2.294   1.125  0.00  0.00    -0.112 NA
ATOM      5  N   UNL     1       5.035   3.181   0.354  0.00  0.00    -0.113 NA
ATOM     24  C   UNL     1       4.747   1.099   0.809  0.00  0.00    +0.218 A 
ATOM     26  C   UNL     1       5.854   2.447  -0.362  0.00  0.00    +0.214 A 
ATOM     27  C   UNL     1       6.857   2.859  -1.352  0.00  0.00    +0.111 C 
ENDBRANCH  16  24
ENDBRANCH  11  16
TORSDOF 5
