REMARK  Name = 7142696
REMARK  3 active torsions:
REMARK  status: ('A' for Active; 'I' for Inactive)
REMARK    1  A    between atoms: N_7  and  C_18
REMARK    2  A    between atoms: C_17  and  C_20
REMARK    3  A    between atoms: C_23  and  C_27
REMARK                            x       y       z     vdW  Elec       q    Type
REMARK                         _______ _______ _______ _____ _____    ______ ____
ROOT
ATOM      2  O   UNL     1       0.550   2.321   1.333  0.00  0.00    -0.266 OA
ATOM      3  O   UNL     1      -3.492  -0.658   2.581  0.00  0.00    -0.270 OA
ATOM      5  N   UNL     1      -3.966   0.358   0.528  0.00  0.00    -0.297 N 
ATOM      6  N   UNL     1      -1.288   1.953  -0.062  0.00  0.00    -0.310 N 
ATOM      8  C   UNL     1      -3.635   2.825   0.480  0.00  0.00    +0.027 C 
ATOM      9  C   UNL     1      -3.262   1.501  -1.562  0.00  0.00    +0.054 C 
ATOM     10  C   UNL     1      -3.834   2.815  -1.031  0.00  0.00    +0.018 C 
ATOM     11  C   UNL     1      -4.365   1.633   1.126  0.00  0.00    +0.113 C 
ATOM     12  C   UNL     1      -2.131   2.812   0.781  0.00  0.00    +0.130 C 
ATOM     13  C   UNL     1      -4.030   0.316  -0.942  0.00  0.00    +0.117 C 
ATOM     14  C   UNL     1      -1.785   1.379  -1.237  0.00  0.00    +0.027 A 
ATOM     15  C   UNL     1      -0.967   0.693  -2.053  0.00  0.00    +0.024 A 
ATOM     16  C   UNL     1       0.063   1.821   0.318  0.00  0.00    +0.273 A 
ATOM     17  C   UNL     1      -3.547  -0.688   1.353  0.00  0.00    +0.247 C 
ATOM     18  C   UNL     1       0.934   1.026  -0.604  0.00  0.00    +0.099 A 
ATOM     19  C   UNL     1       0.419   0.513  -1.726  0.00  0.00    +0.030 A 
ENDROOT
BRANCH  17  20
ATOM     20  C   UNL     1      -3.112  -1.934   0.715  0.00  0.00    +0.037 A 
ATOM     21  C   UNL     1      -1.774  -2.106   0.367  0.00  0.00    +0.013 A 
ATOM     22  C   UNL     1      -4.039  -2.941   0.460  0.00  0.00    +0.013 A 
ATOM     24  C   UNL     1      -1.361  -3.293  -0.238  0.00  0.00    +0.001 A 
ATOM     25  C   UNL     1      -3.627  -4.128  -0.145  0.00  0.00    +0.001 A 
ATOM     26  C   UNL     1      -2.288  -4.304  -0.494  0.00  0.00    +0.000 A 
ENDBRANCH  17  20
BRANCH  18   7
ATOM      4  O   UNL     1       2.558  -1.158  -1.334  0.00  0.00    -0.270 OA
ATOM      7  N   UNL     1       2.244   0.859  -0.262  0.00  0.00    -0.277 N 
ATOM     23  C   UNL     1       3.012  -0.241  -0.647  0.00  0.00    +0.248 C 
ATOM     33  H   UNL     1       2.596   1.521   0.420  0.00  0.00    +0.155 HD
BRANCH  23  27
ATOM      1  F   UNL     1       8.336  -0.162   1.031  0.00  0.00    -0.205 F 
ATOM     27  C   UNL     1       4.414  -0.222  -0.204  0.00  0.00    +0.037 A 
ATOM     28  C   UNL     1       5.372  -0.898  -0.945  0.00  0.00    +0.016 A 
ATOM     29  C   UNL     1       4.755   0.474   0.946  0.00  0.00    +0.016 A 
ATOM     30  C   UNL     1       6.702  -0.878  -0.525  0.00  0.00    +0.039 A 
ATOM     31  C   UNL     1       6.086   0.494   1.365  0.00  0.00    +0.039 A 
ATOM     32  C   UNL     1       7.059  -0.182   0.629  0.00  0.00    +0.123 A 
ENDBRANCH  23  27
ENDBRANCH  18   7
TORSDOF 3
