MODEL 1
REMARK VINA RESULT:      -6.6      0.000      0.000
REMARK  Name = 51138082
REMARK  10 active torsions:
REMARK  status: ('A' for Active; 'I' for Inactive)
REMARK    1  A    between atoms: N_3  and  C_21
REMARK    2  A    between atoms: N_4  and  C_22
REMARK    3  A    between atoms: C_5  and  C_9
REMARK    4  A    between atoms: C_8  and  C_16
REMARK    5  A    between atoms: C_9  and  C_12
REMARK    6  A    between atoms: C_12  and  C_19
REMARK    7  A    between atoms: C_12  and  C_20
REMARK    8  A    between atoms: C_21  and  C_23
REMARK    9  A    between atoms: C_22  and  C_25
REMARK   10  A    between atoms: C_24  and  C_26
REMARK                            x       y       z     vdW  Elec       q    Type
REMARK                         _______ _______ _______ _____ _____    ______ ____
ROOT
ATOM      2  N   UNL     1      -6.681 -10.856  16.207  0.00  0.00    -0.299 NA
ATOM      3  N   UNL     1      -3.869 -10.215  12.061  0.00  0.00    -0.335 N 
ATOM      5  C   UNL     1      -5.296 -10.728  16.681  0.00  0.00    +0.085 C 
ATOM      6  C   UNL     1      -4.217 -10.705  15.595  0.00  0.00    -0.021 A 
ATOM      7  C   UNL     1      -4.450 -10.461  14.210  0.00  0.00    +0.008 A 
ATOM      8  C   UNL     1      -7.154  -9.740  15.399  0.00  0.00    +0.145 C 
ATOM     10  C   UNL     1      -7.030 -10.037  13.906  0.00  0.00    +0.065 C 
ATOM     11  C   UNL     1      -5.623 -10.170  13.430  0.00  0.00    -0.020 A 
ATOM     13  C   UNL     1      -3.370 -10.454  13.320  0.00  0.00    +0.050 A 
ATOM     14  C   UNL     1      -5.220 -10.036  12.117  0.00  0.00    +0.091 A 
ATOM     15  C   UNL     1      -2.861 -10.863  15.982  0.00  0.00    +0.006 A 
ATOM     17  C   UNL     1      -2.047 -10.657  13.715  0.00  0.00    +0.026 A 
ATOM     18  C   UNL     1      -1.808 -10.849  15.069  0.00  0.00    +0.002 A 
ATOM     28  H   UNL     1      -6.821 -11.744  15.726  0.00  0.00    +0.123 HD
ENDROOT
BRANCH   8  16
ATOM      1  O   UNL     1      -9.483 -10.189  15.145  0.00  0.00    -0.274 OA
ATOM      4  N   UNL     1      -8.796  -8.693  16.791  0.00  0.00    -0.303 N 
ATOM     16  C   UNL     1      -8.602  -9.586  15.751  0.00  0.00    +0.231 C 
ATOM     29  H   UNL     1      -7.990  -8.266  17.240  0.00  0.00    +0.150 HD
BRANCH   4  22
ATOM     22  C   UNL     1     -10.102  -8.351  17.306  0.00  0.00    +0.193 C 
BRANCH  22  25
ATOM     25  C   UNL     1     -10.645  -7.175  16.627  0.00  0.00    -0.087 C 
ATOM     27  C   UNL     1     -11.089  -6.207  16.072  0.00  0.00    +0.005 C 
ENDBRANCH  22  25
ENDBRANCH   4  22
ENDBRANCH   8  16
BRANCH   5   9
ATOM      9  C   UNL     1      -5.115 -11.892  17.670  0.00  0.00    +0.026 C 
BRANCH   9  12
ATOM     12  C   UNL     1      -4.711 -11.429  19.073  0.00  0.00    -0.015 C 
ATOM     19  C   UNL     1      -3.579 -12.318  19.593  0.00  0.00    +0.007 C 
ATOM     20  C   UNL     1      -5.880 -11.451  20.060  0.00  0.00    +0.007 C 
ENDBRANCH   9  12
ENDBRANCH   5   9
BRANCH   3  21
ATOM     21  C   UNL     1      -3.087 -10.136  10.847  0.00  0.00    +0.210 C 
BRANCH  21  23
ATOM     23  C   UNL     1      -3.934 -10.035   9.651  0.00  0.00    -0.081 C 
ATOM     24  C   UNL     1      -4.625  -9.953   8.673  0.00  0.00    -0.104 C 
ATOM     26  C   UNL     1      -5.467  -9.851   7.481  0.00  0.00    +0.106 C 
ENDBRANCH  21  23
ENDBRANCH   3  21
TORSDOF 7
ENDMDL
MODEL 2
REMARK VINA RESULT:      -6.5      1.780      6.808
REMARK  Name = 51138082
REMARK  10 active torsions:
REMARK  status: ('A' for Active; 'I' for Inactive)
REMARK    1  A    between atoms: N_3  and  C_21
REMARK    2  A    between atoms: N_4  and  C_22
REMARK    3  A    between atoms: C_5  and  C_9
REMARK    4  A    between atoms: C_8  and  C_16
REMARK    5  A    between atoms: C_9  and  C_12
REMARK    6  A    between atoms: C_12  and  C_19
REMARK    7  A    between atoms: C_12  and  C_20
REMARK    8  A    between atoms: C_21  and  C_23
REMARK    9  A    between atoms: C_22  and  C_25
REMARK   10  A    between atoms: C_24  and  C_26
REMARK                            x       y       z     vdW  Elec       q    Type
REMARK                         _______ _______ _______ _____ _____    ______ ____
ROOT
ATOM      2  N   UNL     1      -4.084 -10.438  14.633  0.00  0.00    -0.299 NA
ATOM      3  N   UNL     1      -8.431  -9.719  17.102  0.00  0.00    -0.335 N 
ATOM      5  C   UNL     1      -3.900 -11.059  15.952  0.00  0.00    +0.085 C 
ATOM      6  C   UNL     1      -5.021 -10.817  16.967  0.00  0.00    -0.021 A 
ATOM      7  C   UNL     1      -6.330 -10.353  16.649  0.00  0.00    +0.008 A 
ATOM      8  C   UNL     1      -5.224 -10.939  13.879  0.00  0.00    +0.145 C 
ATOM     10  C   UNL     1      -6.443 -10.033  14.039  0.00  0.00    +0.065 C 
ATOM     11  C   UNL     1      -6.997 -10.003  15.424  0.00  0.00    -0.020 A 
ATOM     13  C   UNL     1      -7.270 -10.187  17.673  0.00  0.00    +0.050 A 
ATOM     14  C   UNL     1      -8.279  -9.611  15.750  0.00  0.00    +0.091 A 
ATOM     15  C   UNL     1      -4.787 -11.145  18.327  0.00  0.00    +0.006 A 
ATOM     17  C   UNL     1      -7.006 -10.472  19.013  0.00  0.00    +0.026 A 
ATOM     18  C   UNL     1      -5.747 -10.969  19.322  0.00  0.00    +0.002 A 
ATOM     28  H   UNL     1      -4.109  -9.422  14.709  0.00  0.00    +0.123 HD
ENDROOT
BRANCH   8  16
ATOM      1  O   UNL     1      -5.440 -11.467  11.562  0.00  0.00    -0.274 OA
ATOM      4  N   UNL     1      -3.580 -10.261  12.275  0.00  0.00    -0.303 N 
ATOM     16  C   UNL     1      -4.785 -10.923  12.446  0.00  0.00    +0.231 C 
ATOM     29  H   UNL     1      -3.133  -9.825  13.076  0.00  0.00    +0.150 HD
BRANCH   4  22
ATOM     22  C   UNL     1      -2.929 -10.125  10.993  0.00  0.00    +0.193 C 
BRANCH  22  25
ATOM     25  C   UNL     1      -1.642  -9.442  11.125  0.00  0.00    -0.087 C 
ATOM     27  C   UNL     1      -0.587  -8.879  11.230  0.00  0.00    +0.005 C 
ENDBRANCH  22  25
ENDBRANCH   4  22
ENDBRANCH   8  16
BRANCH   5   9
ATOM      9  C   UNL     1      -2.538 -10.536  16.441  0.00  0.00    +0.026 C 
BRANCH   9  12
ATOM     12  C   UNL     1      -1.377 -10.944  15.529  0.00  0.00    -0.015 C 
ATOM     19  C   UNL     1      -0.927  -9.732  14.711  0.00  0.00    +0.007 C 
ATOM     20  C   UNL     1      -1.742 -12.095  14.590  0.00  0.00    +0.007 C 
ENDBRANCH   9  12
ENDBRANCH   5   9
BRANCH   3  21
ATOM     21  C   UNL     1      -9.651  -9.404  17.811  0.00  0.00    +0.210 C 
BRANCH  21  23
ATOM     23  C   UNL     1     -10.309  -8.206  17.274  0.00  0.00    -0.081 C 
ATOM     24  C   UNL     1     -10.845  -7.226  16.834  0.00  0.00    -0.104 C 
ATOM     26  C   UNL     1     -11.499  -6.032  16.300  0.00  0.00    +0.106 C 
ENDBRANCH  21  23
ENDBRANCH   3  21
TORSDOF 7
ENDMDL
MODEL 3
REMARK VINA RESULT:      -6.2     22.794     25.802
REMARK  Name = 51138082
REMARK  10 active torsions:
REMARK  status: ('A' for Active; 'I' for Inactive)
REMARK    1  A    between atoms: N_3  and  C_21
REMARK    2  A    between atoms: N_4  and  C_22
REMARK    3  A    between atoms: C_5  and  C_9
REMARK    4  A    between atoms: C_8  and  C_16
REMARK    5  A    between atoms: C_9  and  C_12
REMARK    6  A    between atoms: C_12  and  C_19
REMARK    7  A    between atoms: C_12  and  C_20
REMARK    8  A    between atoms: C_21  and  C_23
REMARK    9  A    between atoms: C_22  and  C_25
REMARK   10  A    between atoms: C_24  and  C_26
REMARK                            x       y       z     vdW  Elec       q    Type
REMARK                         _______ _______ _______ _____ _____    ______ ____
ROOT
ATOM      2  N   UNL     1      10.295   5.555   4.451  0.00  0.00    -0.299 NA
ATOM      3  N   UNL     1       7.283   9.427   3.250  0.00  0.00    -0.335 N 
ATOM      5  C   UNL     1      10.737   6.007   3.125  0.00  0.00    +0.085 C 
ATOM      6  C   UNL     1       9.858   7.066   2.452  0.00  0.00    -0.021 A 
ATOM      7  C   UNL     1       8.884   7.867   3.115  0.00  0.00    +0.008 A 
ATOM      8  C   UNL     1      10.303   6.587   5.479  0.00  0.00    +0.145 C 
ATOM     10  C   UNL     1       8.920   7.206   5.663  0.00  0.00    +0.065 C 
ATOM     11  C   UNL     1       8.438   7.975   4.478  0.00  0.00    -0.020 A 
ATOM     13  C   UNL     1       8.155   8.811   2.384  0.00  0.00    +0.050 A 
ATOM     14  C   UNL     1       7.450   8.936   4.512  0.00  0.00    +0.091 A 
ATOM     15  C   UNL     1      10.063   7.341   1.075  0.00  0.00    +0.006 A 
ATOM     17  C   UNL     1       8.339   9.036   1.018  0.00  0.00    +0.026 A 
ATOM     18  C   UNL     1       9.319   8.291   0.377  0.00  0.00    +0.002 A 
ATOM     28  H   UNL     1       9.387   5.097   4.395  0.00  0.00    +0.123 HD
ENDROOT
BRANCH   8  16
ATOM      1  O   UNL     1      11.666   6.235   7.406  0.00  0.00    -0.274 OA
ATOM      4  N   UNL     1       9.866   4.808   7.021  0.00  0.00    -0.303 N 
ATOM     16  C   UNL     1      10.697   5.880   6.740  0.00  0.00    +0.231 C 
ATOM     29  H   UNL     1       9.075   4.617   6.413  0.00  0.00    +0.150 HD
BRANCH   4  22
ATOM     22  C   UNL     1      10.046   3.949   8.170  0.00  0.00    +0.193 C 
BRANCH  22  25
ATOM     25  C   UNL     1       9.305   4.454   9.326  0.00  0.00    -0.087 C 
ATOM     27  C   UNL     1       8.694   4.867  10.273  0.00  0.00    +0.005 C 
ENDBRANCH  22  25
ENDBRANCH   4  22
ENDBRANCH   8  16
BRANCH   5   9
ATOM      9  C   UNL     1      10.851   4.718   2.293  0.00  0.00    +0.026 C 
BRANCH   9  12
ATOM     12  C   UNL     1      12.199   4.585   1.576  0.00  0.00    -0.015 C 
ATOM     19  C   UNL     1      12.727   3.159   1.753  0.00  0.00    +0.007 C 
ATOM     20  C   UNL     1      13.237   5.587   2.083  0.00  0.00    +0.007 C 
ENDBRANCH   9  12
ENDBRANCH   5   9
BRANCH   3  21
ATOM     21  C   UNL     1       6.337  10.463   2.899  0.00  0.00    +0.210 C 
BRANCH  21  23
ATOM     23  C   UNL     1       5.450  10.052   1.803  0.00  0.00    -0.081 C 
ATOM     24  C   UNL     1       4.726   9.717   0.906  0.00  0.00    -0.104 C 
ATOM     26  C   UNL     1       3.842   9.308  -0.185  0.00  0.00    +0.106 C 
ENDBRANCH  21  23
ENDBRANCH   3  21
TORSDOF 7
ENDMDL
MODEL 4
REMARK VINA RESULT:      -6.1      2.611      4.731
REMARK  Name = 51138082
REMARK  10 active torsions:
REMARK  status: ('A' for Active; 'I' for Inactive)
REMARK    1  A    between atoms: N_3  and  C_21
REMARK    2  A    between atoms: N_4  and  C_22
REMARK    3  A    between atoms: C_5  and  C_9
REMARK    4  A    between atoms: C_8  and  C_16
REMARK    5  A    between atoms: C_9  and  C_12
REMARK    6  A    between atoms: C_12  and  C_19
REMARK    7  A    between atoms: C_12  and  C_20
REMARK    8  A    between atoms: C_21  and  C_23
REMARK    9  A    between atoms: C_22  and  C_25
REMARK   10  A    between atoms: C_24  and  C_26
REMARK                            x       y       z     vdW  Elec       q    Type
REMARK                         _______ _______ _______ _____ _____    ______ ____
ROOT
ATOM      2  N   UNL     1      -5.759 -10.951  13.672  0.00  0.00    -0.299 NA
ATOM      3  N   UNL     1      -7.144  -8.628   9.406  0.00  0.00    -0.335 N 
ATOM      5  C   UNL     1      -4.511 -10.508  13.036  0.00  0.00    +0.085 C 
ATOM      6  C   UNL     1      -4.647  -9.930  11.624  0.00  0.00    -0.021 A 
ATOM      7  C   UNL     1      -5.865  -9.485  11.034  0.00  0.00    +0.008 A 
ATOM      8  C   UNL     1      -6.724  -9.889  13.922  0.00  0.00    +0.145 C 
ATOM     10  C   UNL     1      -7.774  -9.815  12.816  0.00  0.00    +0.065 C 
ATOM     11  C   UNL     1      -7.228  -9.409  11.488  0.00  0.00    -0.020 A 
ATOM     13  C   UNL     1      -5.851  -8.962   9.736  0.00  0.00    +0.050 A 
ATOM     14  C   UNL     1      -7.978  -8.887  10.454  0.00  0.00    +0.091 A 
ATOM     15  C   UNL     1      -3.473  -9.743  10.851  0.00  0.00    +0.006 A 
ATOM     17  C   UNL     1      -4.690  -8.829   8.972  0.00  0.00    +0.026 A 
ATOM     18  C   UNL     1      -3.494  -9.218   9.560  0.00  0.00    +0.002 A 
ATOM     28  H   UNL     1      -6.181 -11.718  13.150  0.00  0.00    +0.123 HD
ENDROOT
BRANCH   8  16
ATOM      1  O   UNL     1      -8.110 -11.254  15.304  0.00  0.00    -0.274 OA
ATOM      4  N   UNL     1      -7.119  -9.358  16.223  0.00  0.00    -0.303 N 
ATOM     16  C   UNL     1      -7.393 -10.262  15.210  0.00  0.00    +0.231 C 
ATOM     29  H   UNL     1      -6.491  -8.581  16.042  0.00  0.00    +0.150 HD
BRANCH   4  22
ATOM     22  C   UNL     1      -7.662  -9.478  17.557  0.00  0.00    +0.193 C 
BRANCH  22  25
ATOM     25  C   UNL     1      -6.734 -10.182  18.442  0.00  0.00    -0.087 C 
ATOM     27  C   UNL     1      -5.970 -10.756  19.169  0.00  0.00    +0.005 C 
ENDBRANCH  22  25
ENDBRANCH   4  22
ENDBRANCH   8  16
BRANCH   5   9
ATOM      9  C   UNL     1      -3.592 -11.741  13.083  0.00  0.00    +0.026 C 
BRANCH   9  12
ATOM     12  C   UNL     1      -2.555 -11.673  14.209  0.00  0.00    -0.015 C 
ATOM     19  C   UNL     1      -1.896 -10.292  14.207  0.00  0.00    +0.007 C 
ATOM     20  C   UNL     1      -1.483 -12.757  14.089  0.00  0.00    +0.007 C 
ENDBRANCH   9  12
ENDBRANCH   5   9
BRANCH   3  21
ATOM     21  C   UNL     1      -7.573  -8.063   8.146  0.00  0.00    +0.210 C 
BRANCH  21  23
ATOM     23  C   UNL     1      -8.415  -6.874   8.332  0.00  0.00    -0.081 C 
ATOM     24  C   UNL     1      -9.102  -5.901   8.484  0.00  0.00    -0.104 C 
ATOM     26  C   UNL     1      -9.940  -4.717   8.670  0.00  0.00    +0.106 C 
ENDBRANCH  21  23
ENDBRANCH   3  21
TORSDOF 7
ENDMDL
MODEL 5
REMARK VINA RESULT:      -6.1      2.289      3.895
REMARK  Name = 51138082
REMARK  10 active torsions:
REMARK  status: ('A' for Active; 'I' for Inactive)
REMARK    1  A    between atoms: N_3  and  C_21
REMARK    2  A    between atoms: N_4  and  C_22
REMARK    3  A    between atoms: C_5  and  C_9
REMARK    4  A    between atoms: C_8  and  C_16
REMARK    5  A    between atoms: C_9  and  C_12
REMARK    6  A    between atoms: C_12  and  C_19
REMARK    7  A    between atoms: C_12  and  C_20
REMARK    8  A    between atoms: C_21  and  C_23
REMARK    9  A    between atoms: C_22  and  C_25
REMARK   10  A    between atoms: C_24  and  C_26
REMARK                            x       y       z     vdW  Elec       q    Type
REMARK                         _______ _______ _______ _____ _____    ______ ____
ROOT
ATOM      2  N   UNL     1      -8.447 -10.569  18.183  0.00  0.00    -0.299 NA
ATOM      3  N   UNL     1      -3.977 -10.630  15.833  0.00  0.00    -0.335 N 
ATOM      5  C   UNL     1      -7.459 -10.909  19.215  0.00  0.00    +0.085 C 
ATOM      6  C   UNL     1      -6.035 -11.170  18.718  0.00  0.00    -0.021 A 
ATOM      7  C   UNL     1      -5.529 -10.793  17.441  0.00  0.00    +0.008 A 
ATOM      8  C   UNL     1      -8.187  -9.320  17.479  0.00  0.00    +0.145 C 
ATOM     10  C   UNL     1      -7.468  -9.561  16.155  0.00  0.00    +0.065 C 
ATOM     11  C   UNL     1      -6.087 -10.107  16.307  0.00  0.00    -0.020 A 
ATOM     13  C   UNL     1      -4.199 -11.080  17.114  0.00  0.00    +0.050 A 
ATOM     14  C   UNL     1      -5.103 -10.038  15.342  0.00  0.00    +0.091 A 
ATOM     15  C   UNL     1      -5.105 -11.768  19.607  0.00  0.00    +0.006 A 
ATOM     17  C   UNL     1      -3.311 -11.711  17.987  0.00  0.00    +0.026 A 
ATOM     18  C   UNL     1      -3.785 -12.038  19.250  0.00  0.00    +0.002 A 
ATOM     28  H   UNL     1      -8.571 -11.340  17.529  0.00  0.00    +0.123 HD
ENDROOT
BRANCH   8  16
ATOM      1  O   UNL     1      -9.677  -7.679  16.595  0.00  0.00    -0.274 OA
ATOM      4  N   UNL     1     -10.561  -9.507  17.733  0.00  0.00    -0.303 N 
ATOM     16  C   UNL     1      -9.539  -8.735  17.205  0.00  0.00    +0.231 C 
ATOM     29  H   UNL     1     -10.336 -10.380  18.201  0.00  0.00    +0.150 HD
BRANCH   4  22
ATOM     22  C   UNL     1     -11.957  -9.151  17.625  0.00  0.00    +0.193 C 
BRANCH  22  25
ATOM     25  C   UNL     1     -12.703  -9.577  18.809  0.00  0.00    -0.087 C 
ATOM     27  C   UNL     1     -13.317  -9.923  19.781  0.00  0.00    +0.005 C 
ENDBRANCH  22  25
ENDBRANCH   4  22
ENDBRANCH   8  16
BRANCH   5   9
ATOM      9  C   UNL     1      -8.062 -12.121  19.946  0.00  0.00    +0.026 C 
BRANCH   9  12
ATOM     12  C   UNL     1      -9.341 -12.644  19.284  0.00  0.00    -0.015 C 
ATOM     19  C   UNL     1     -10.494 -12.578  20.288  0.00  0.00    +0.007 C 
ATOM     20  C   UNL     1      -9.191 -14.075  18.764  0.00  0.00    +0.007 C 
ENDBRANCH   9  12
ENDBRANCH   5   9
BRANCH   3  21
ATOM     21  C   UNL     1      -2.731 -10.739  15.106  0.00  0.00    +0.210 C 
BRANCH  21  23
ATOM     23  C   UNL     1      -2.925 -10.602  13.657  0.00  0.00    -0.081 C 
ATOM     24  C   UNL     1      -3.081 -10.492  12.471  0.00  0.00    -0.104 C 
ATOM     26  C   UNL     1      -3.273 -10.356  11.028  0.00  0.00    +0.106 C 
ENDBRANCH  21  23
ENDBRANCH   3  21
TORSDOF 7
ENDMDL
MODEL 6
REMARK VINA RESULT:      -6.1      1.996      7.058
REMARK  Name = 51138082
REMARK  10 active torsions:
REMARK  status: ('A' for Active; 'I' for Inactive)
REMARK    1  A    between atoms: N_3  and  C_21
REMARK    2  A    between atoms: N_4  and  C_22
REMARK    3  A    between atoms: C_5  and  C_9
REMARK    4  A    between atoms: C_8  and  C_16
REMARK    5  A    between atoms: C_9  and  C_12
REMARK    6  A    between atoms: C_12  and  C_19
REMARK    7  A    between atoms: C_12  and  C_20
REMARK    8  A    between atoms: C_21  and  C_23
REMARK    9  A    between atoms: C_22  and  C_25
REMARK   10  A    between atoms: C_24  and  C_26
REMARK                            x       y       z     vdW  Elec       q    Type
REMARK                         _______ _______ _______ _____ _____    ______ ____
ROOT
ATOM      2  N   UNL     1      -5.669  -9.681  15.060  0.00  0.00    -0.299 NA
ATOM      3  N   UNL     1      -8.870 -10.646  18.845  0.00  0.00    -0.335 N 
ATOM      5  C   UNL     1      -4.953 -10.592  15.964  0.00  0.00    +0.085 C 
ATOM      6  C   UNL     1      -5.648 -10.894  17.295  0.00  0.00    -0.021 A 
ATOM      7  C   UNL     1      -7.024 -10.656  17.576  0.00  0.00    +0.008 A 
ATOM      8  C   UNL     1      -6.946 -10.186  14.574  0.00  0.00    +0.145 C 
ATOM     10  C   UNL     1      -8.112  -9.649  15.401  0.00  0.00    +0.065 C 
ATOM     11  C   UNL     1      -8.124 -10.129  16.813  0.00  0.00    -0.020 A 
ATOM     13  C   UNL     1      -7.539 -10.992  18.833  0.00  0.00    +0.050 A 
ATOM     14  C   UNL     1      -9.233 -10.133  17.634  0.00  0.00    +0.091 A 
ATOM     15  C   UNL     1      -4.901 -11.532  18.320  0.00  0.00    +0.006 A 
ATOM     17  C   UNL     1      -6.777 -11.577  19.846  0.00  0.00    +0.026 A 
ATOM     18  C   UNL     1      -5.446 -11.855  19.561  0.00  0.00    +0.002 A 
ATOM     28  H   UNL     1      -5.773  -8.758  15.479  0.00  0.00    +0.123 HD
ENDROOT
BRANCH   8  16
ATOM      1  O   UNL     1      -8.131  -9.678  12.566  0.00  0.00    -0.274 OA
ATOM      4  N   UNL     1      -5.847  -9.238  12.670  0.00  0.00    -0.303 N 
ATOM     16  C   UNL     1      -7.062  -9.673  13.171  0.00  0.00    +0.231 C 
ATOM     29  H   UNL     1      -5.025  -9.256  13.267  0.00  0.00    +0.150 HD
BRANCH   4  22
ATOM     22  C   UNL     1      -5.684  -8.719  11.331  0.00  0.00    +0.193 C 
BRANCH  22  25
ATOM     25  C   UNL     1      -4.393  -9.110  10.767  0.00  0.00    -0.087 C 
ATOM     27  C   UNL     1      -3.331  -9.430  10.307  0.00  0.00    +0.005 C 
ENDBRANCH  22  25
ENDBRANCH   4  22
ENDBRANCH   8  16
BRANCH   5   9
ATOM      9  C   UNL     1      -3.570  -9.945  16.152  0.00  0.00    +0.026 C 
BRANCH   9  12
ATOM     12  C   UNL     1      -2.414 -10.893  15.819  0.00  0.00    -0.015 C 
ATOM     19  C   UNL     1      -1.159 -10.073  15.516  0.00  0.00    +0.007 C 
ATOM     20  C   UNL     1      -2.729 -11.811  14.636  0.00  0.00    +0.007 C 
ENDBRANCH   9  12
ENDBRANCH   5   9
BRANCH   3  21
ATOM     21  C   UNL     1      -9.775 -10.816  19.961  0.00  0.00    +0.210 C 
BRANCH  21  23
ATOM     23  C   UNL     1     -11.142 -10.394  19.632  0.00  0.00    -0.081 C 
ATOM     24  C   UNL     1     -12.261 -10.050  19.364  0.00  0.00    -0.104 C 
ATOM     26  C   UNL     1     -13.623  -9.631  19.037  0.00  0.00    +0.106 C 
ENDBRANCH  21  23
ENDBRANCH   3  21
TORSDOF 7
ENDMDL
MODEL 7
REMARK VINA RESULT:      -6.0      2.166      3.953
REMARK  Name = 51138082
REMARK  10 active torsions:
REMARK  status: ('A' for Active; 'I' for Inactive)
REMARK    1  A    between atoms: N_3  and  C_21
REMARK    2  A    between atoms: N_4  and  C_22
REMARK    3  A    between atoms: C_5  and  C_9
REMARK    4  A    between atoms: C_8  and  C_16
REMARK    5  A    between atoms: C_9  and  C_12
REMARK    6  A    between atoms: C_12  and  C_19
REMARK    7  A    between atoms: C_12  and  C_20
REMARK    8  A    between atoms: C_21  and  C_23
REMARK    9  A    between atoms: C_22  and  C_25
REMARK   10  A    between atoms: C_24  and  C_26
REMARK                            x       y       z     vdW  Elec       q    Type
REMARK                         _______ _______ _______ _____ _____    ______ ____
ROOT
ATOM      2  N   UNL     1      -9.079 -10.117  18.011  0.00  0.00    -0.299 NA
ATOM      3  N   UNL     1      -4.512 -10.543  15.898  0.00  0.00    -0.335 N 
ATOM      5  C   UNL     1      -8.180 -10.552  19.089  0.00  0.00    +0.085 C 
ATOM      6  C   UNL     1      -6.759 -10.931  18.663  0.00  0.00    -0.021 A 
ATOM      7  C   UNL     1      -6.155 -10.587  17.419  0.00  0.00    +0.008 A 
ATOM      8  C   UNL     1      -8.676  -8.889  17.341  0.00  0.00    +0.145 C 
ATOM     10  C   UNL     1      -7.910  -9.179  16.052  0.00  0.00    +0.065 C 
ATOM     11  C   UNL     1      -6.591  -9.843  16.268  0.00  0.00    -0.020 A 
ATOM     13  C   UNL     1      -4.839 -10.985  17.158  0.00  0.00    +0.050 A 
ATOM     14  C   UNL     1      -5.555  -9.851  15.357  0.00  0.00    +0.091 A 
ATOM     15  C   UNL     1      -5.932 -11.616  19.591  0.00  0.00    +0.006 A 
ATOM     17  C   UNL     1      -4.057 -11.698  18.067  0.00  0.00    +0.026 A 
ATOM     18  C   UNL     1      -4.624 -11.996  19.299  0.00  0.00    +0.002 A 
ATOM     28  H   UNL     1      -9.234 -10.869  17.341  0.00  0.00    +0.123 HD
ENDROOT
BRANCH   8  16
ATOM      1  O   UNL     1     -11.034  -8.547  17.470  0.00  0.00    -0.274 OA
ATOM      4  N   UNL     1      -9.763  -7.141  16.117  0.00  0.00    -0.303 N 
ATOM     16  C   UNL     1      -9.956  -8.187  17.004  0.00  0.00    +0.231 C 
ATOM     29  H   UNL     1      -8.821  -6.913  15.812  0.00  0.00    +0.150 HD
BRANCH   4  22
ATOM     22  C   UNL     1     -10.841  -6.320  15.617  0.00  0.00    +0.193 C 
BRANCH  22  25
ATOM     25  C   UNL     1     -11.640  -7.043  14.628  0.00  0.00    -0.087 C 
ATOM     27  C   UNL     1     -12.298  -7.635  13.817  0.00  0.00    +0.005 C 
ENDBRANCH  22  25
ENDBRANCH   4  22
ENDBRANCH   8  16
BRANCH   5   9
ATOM      9  C   UNL     1      -8.923 -11.715  19.770  0.00  0.00    +0.026 C 
BRANCH   9  12
ATOM     12  C   UNL     1      -9.590 -12.666  18.771  0.00  0.00    -0.015 C 
ATOM     19  C   UNL     1     -11.004 -12.996  19.254  0.00  0.00    +0.007 C 
ATOM     20  C   UNL     1      -8.798 -13.960  18.572  0.00  0.00    +0.007 C 
ENDBRANCH   9  12
ENDBRANCH   5   9
BRANCH   3  21
ATOM     21  C   UNL     1      -3.243 -10.752  15.235  0.00  0.00    +0.210 C 
BRANCH  21  23
ATOM     23  C   UNL     1      -3.341 -10.560  13.782  0.00  0.00    -0.081 C 
ATOM     24  C   UNL     1      -3.419 -10.404  12.594  0.00  0.00    -0.104 C 
ATOM     26  C   UNL     1      -3.516 -10.213  11.148  0.00  0.00    +0.106 C 
ENDBRANCH  21  23
ENDBRANCH   3  21
TORSDOF 7
ENDMDL
MODEL 8
REMARK VINA RESULT:      -6.0     23.361     27.151
REMARK  Name = 51138082
REMARK  10 active torsions:
REMARK  status: ('A' for Active; 'I' for Inactive)
REMARK    1  A    between atoms: N_3  and  C_21
REMARK    2  A    between atoms: N_4  and  C_22
REMARK    3  A    between atoms: C_5  and  C_9
REMARK    4  A    between atoms: C_8  and  C_16
REMARK    5  A    between atoms: C_9  and  C_12
REMARK    6  A    between atoms: C_12  and  C_19
REMARK    7  A    between atoms: C_12  and  C_20
REMARK    8  A    between atoms: C_21  and  C_23
REMARK    9  A    between atoms: C_22  and  C_25
REMARK   10  A    between atoms: C_24  and  C_26
REMARK                            x       y       z     vdW  Elec       q    Type
REMARK                         _______ _______ _______ _____ _____    ______ ____
ROOT
ATOM      2  N   UNL     1      10.741   5.382   1.133  0.00  0.00    -0.299 NA
ATOM      3  N   UNL     1       8.995   6.930   5.612  0.00  0.00    -0.335 N 
ATOM      5  C   UNL     1      10.255   6.752   0.919  0.00  0.00    +0.085 C 
ATOM      6  C   UNL     1       9.504   7.386   2.093  0.00  0.00    -0.021 A 
ATOM      7  C   UNL     1       9.533   6.914   3.437  0.00  0.00    +0.008 A 
ATOM      8  C   UNL     1      11.744   5.249   2.181  0.00  0.00    +0.145 C 
ATOM     10  C   UNL     1      11.118   4.814   3.503  0.00  0.00    +0.065 C 
ATOM     11  C   UNL     1      10.200   5.827   4.101  0.00  0.00    -0.020 A 
ATOM     13  C   UNL     1       8.810   7.596   4.423  0.00  0.00    +0.050 A 
ATOM     14  C   UNL     1       9.834   5.869   5.431  0.00  0.00    +0.091 A 
ATOM     15  C   UNL     1       8.774   8.581   1.866  0.00  0.00    +0.006 A 
ATOM     17  C   UNL     1       8.059   8.745   4.170  0.00  0.00    +0.026 A 
ATOM     18  C   UNL     1       8.065   9.236   2.871  0.00  0.00    +0.002 A 
ATOM     28  H   UNL     1       9.965   4.739   1.282  0.00  0.00    +0.123 HD
ENDROOT
BRANCH   8  16
ATOM      1  O   UNL     1      12.266   3.190   1.094  0.00  0.00    -0.274 OA
ATOM      4  N   UNL     1      13.991   4.433   2.043  0.00  0.00    -0.303 N 
ATOM     16  C   UNL     1      12.674   4.177   1.700  0.00  0.00    +0.231 C 
ATOM     29  H   UNL     1      14.222   5.296   2.527  0.00  0.00    +0.150 HD
BRANCH   4  22
ATOM     22  C   UNL     1      15.080   3.541   1.716  0.00  0.00    +0.193 C 
BRANCH  22  25
ATOM     25  C   UNL     1      15.726   3.935   0.464  0.00  0.00    -0.087 C 
ATOM     27  C   UNL     1      16.256   4.254  -0.564  0.00  0.00    +0.005 C 
ENDBRANCH  22  25
ENDBRANCH   4  22
ENDBRANCH   8  16
BRANCH   5   9
ATOM      9  C   UNL     1       9.396   6.665  -0.355  0.00  0.00    +0.026 C 
BRANCH   9  12
ATOM     12  C   UNL     1      10.079   5.892  -1.487  0.00  0.00    -0.015 C 
ATOM     19  C   UNL     1      11.054   6.819  -2.216  0.00  0.00    +0.007 C 
ATOM     20  C   UNL     1       9.080   5.304  -2.485  0.00  0.00    +0.007 C 
ENDBRANCH   9  12
ENDBRANCH   5   9
BRANCH   3  21
ATOM     21  C   UNL     1       8.412   7.298   6.883  0.00  0.00    +0.210 C 
BRANCH  21  23
ATOM     23  C   UNL     1       8.812   6.383   7.960  0.00  0.00    -0.081 C 
ATOM     24  C   UNL     1       9.140   5.635   8.840  0.00  0.00    -0.104 C 
ATOM     26  C   UNL     1       9.538   4.723   9.911  0.00  0.00    +0.106 C 
ENDBRANCH  21  23
ENDBRANCH   3  21
TORSDOF 7
ENDMDL
MODEL 9
REMARK VINA RESULT:      -6.0     29.004     31.615
REMARK  Name = 51138082
REMARK  10 active torsions:
REMARK  status: ('A' for Active; 'I' for Inactive)
REMARK    1  A    between atoms: N_3  and  C_21
REMARK    2  A    between atoms: N_4  and  C_22
REMARK    3  A    between atoms: C_5  and  C_9
REMARK    4  A    between atoms: C_8  and  C_16
REMARK    5  A    between atoms: C_9  and  C_12
REMARK    6  A    between atoms: C_12  and  C_19
REMARK    7  A    between atoms: C_12  and  C_20
REMARK    8  A    between atoms: C_21  and  C_23
REMARK    9  A    between atoms: C_22  and  C_25
REMARK   10  A    between atoms: C_24  and  C_26
REMARK                            x       y       z     vdW  Elec       q    Type
REMARK                         _______ _______ _______ _____ _____    ______ ____
ROOT
ATOM      2  N   UNL     1      20.850   6.784  20.636  0.00  0.00    -0.299 NA
ATOM      3  N   UNL     1      15.883   6.996  19.750  0.00  0.00    -0.335 N 
ATOM      5  C   UNL     1      20.345   7.887  21.465  0.00  0.00    +0.085 C 
ATOM      6  C   UNL     1      18.881   8.278  21.238  0.00  0.00    -0.021 A 
ATOM      7  C   UNL     1      17.912   7.476  20.570  0.00  0.00    +0.008 A 
ATOM      8  C   UNL     1      20.203   5.501  20.871  0.00  0.00    +0.145 C 
ATOM     10  C   UNL     1      19.096   5.237  19.853  0.00  0.00    +0.065 C 
ATOM     11  C   UNL     1      17.940   6.174  19.959  0.00  0.00    -0.020 A 
ATOM     13  C   UNL     1      16.600   7.945  20.441  0.00  0.00    +0.050 A 
ATOM     14  C   UNL     1      16.677   5.925  19.461  0.00  0.00    +0.091 A 
ATOM     15  C   UNL     1      18.411   9.496  21.792  0.00  0.00    +0.006 A 
ATOM     17  C   UNL     1      16.166   9.169  20.953  0.00  0.00    +0.026 A 
ATOM     18  C   UNL     1      17.096   9.933  21.646  0.00  0.00    +0.002 A 
ATOM     28  H   UNL     1      20.830   7.032  19.648  0.00  0.00    +0.123 HD
ENDROOT
BRANCH   8  16
ATOM      1  O   UNL     1      21.074   3.279  20.856  0.00  0.00    -0.274 OA
ATOM      4  N   UNL     1      22.502   5.053  20.372  0.00  0.00    -0.303 N 
ATOM     16  C   UNL     1      21.285   4.478  20.697  0.00  0.00    +0.231 C 
ATOM     29  H   UNL     1      22.559   6.059  20.241  0.00  0.00    +0.150 HD
BRANCH   4  22
ATOM     22  C   UNL     1      23.710   4.286  20.173  0.00  0.00    +0.193 C 
BRANCH  22  25
ATOM     25  C   UNL     1      24.876   5.161  20.052  0.00  0.00    -0.087 C 
ATOM     27  C   UNL     1      25.832   5.881  19.955  0.00  0.00    +0.005 C 
ENDBRANCH  22  25
ENDBRANCH   4  22
ENDBRANCH   8  16
BRANCH   5   9
ATOM      9  C   UNL     1      21.315   9.051  21.198  0.00  0.00    +0.026 C 
BRANCH   9  12
ATOM     12  C   UNL     1      22.601   8.609  20.491  0.00  0.00    -0.015 C 
ATOM     19  C   UNL     1      23.764   8.655  21.484  0.00  0.00    +0.007 C 
ATOM     20  C   UNL     1      22.928   9.471  19.271  0.00  0.00    +0.007 C 
ENDBRANCH   9  12
ENDBRANCH   5   9
BRANCH   3  21
ATOM     21  C   UNL     1      14.485   7.091  19.393  0.00  0.00    +0.210 C 
BRANCH  21  23
ATOM     23  C   UNL     1      14.287   7.787  18.115  0.00  0.00    -0.081 C 
ATOM     24  C   UNL     1      14.124   8.356  17.071  0.00  0.00    -0.104 C 
ATOM     26  C   UNL     1      13.927   9.049  15.798  0.00  0.00    +0.106 C 
ENDBRANCH  21  23
ENDBRANCH   3  21
TORSDOF 7
ENDMDL
MODEL 10
REMARK VINA RESULT:      -6.0     23.745     26.516
REMARK  Name = 51138082
REMARK  10 active torsions:
REMARK  status: ('A' for Active; 'I' for Inactive)
REMARK    1  A    between atoms: N_3  and  C_21
REMARK    2  A    between atoms: N_4  and  C_22
REMARK    3  A    between atoms: C_5  and  C_9
REMARK    4  A    between atoms: C_8  and  C_16
REMARK    5  A    between atoms: C_9  and  C_12
REMARK    6  A    between atoms: C_12  and  C_19
REMARK    7  A    between atoms: C_12  and  C_20
REMARK    8  A    between atoms: C_21  and  C_23
REMARK    9  A    between atoms: C_22  and  C_25
REMARK   10  A    between atoms: C_24  and  C_26
REMARK                            x       y       z     vdW  Elec       q    Type
REMARK                         _______ _______ _______ _____ _____    ______ ____
ROOT
ATOM      2  N   UNL     1      11.871   6.355   5.243  0.00  0.00    -0.299 NA
ATOM      3  N   UNL     1      12.529   3.968   0.842  0.00  0.00    -0.335 N 
ATOM      5  C   UNL     1      12.815   7.181   4.479  0.00  0.00    +0.085 C 
ATOM      6  C   UNL     1      13.324   6.576   3.167  0.00  0.00    -0.021 A 
ATOM      7  C   UNL     1      12.724   5.481   2.481  0.00  0.00    +0.008 A 
ATOM      8  C   UNL     1      10.604   6.099   4.571  0.00  0.00    +0.145 C 
ATOM     10  C   UNL     1      10.608   4.746   3.864  0.00  0.00    +0.065 C 
ATOM     11  C   UNL     1      11.568   4.660   2.725  0.00  0.00    -0.020 A 
ATOM     13  C   UNL     1      13.282   5.032   1.279  0.00  0.00    +0.050 A 
ATOM     14  C   UNL     1      11.493   3.740   1.700  0.00  0.00    +0.091 A 
ATOM     15  C   UNL     1      14.434   7.184   2.525  0.00  0.00    +0.006 A 
ATOM     17  C   UNL     1      14.403   5.614   0.686  0.00  0.00    +0.026 A 
ATOM     18  C   UNL     1      14.964   6.712   1.326  0.00  0.00    +0.002 A 
ATOM     28  H   UNL     1      12.309   5.486   5.546  0.00  0.00    +0.123 HD
ENDROOT
BRANCH   8  16
ATOM      1  O   UNL     1       8.415   5.746   5.452  0.00  0.00    -0.274 OA
ATOM      4  N   UNL     1      10.096   6.499   6.876  0.00  0.00    -0.303 N 
ATOM     16  C   UNL     1       9.578   6.081   5.662  0.00  0.00    +0.231 C 
ATOM     29  H   UNL     1      11.083   6.731   6.944  0.00  0.00    +0.150 HD
BRANCH   4  22
ATOM     22  C   UNL     1       9.306   6.593   8.082  0.00  0.00    +0.193 C 
BRANCH  22  25
ATOM     25  C   UNL     1       9.365   5.350   8.850  0.00  0.00    -0.087 C 
ATOM     27  C   UNL     1       9.417   4.329   9.479  0.00  0.00    +0.005 C 
ENDBRANCH  22  25
ENDBRANCH   4  22
ENDBRANCH   8  16
BRANCH   5   9
ATOM      9  C   UNL     1      13.953   7.487   5.469  0.00  0.00    +0.026 C 
BRANCH   9  12
ATOM     12  C   UNL     1      14.053   8.973   5.827  0.00  0.00    -0.015 C 
ATOM     19  C   UNL     1      15.496   9.304   6.214  0.00  0.00    +0.007 C 
ATOM     20  C   UNL     1      13.109   9.369   6.964  0.00  0.00    +0.007 C 
ENDBRANCH   9  12
ENDBRANCH   5   9
BRANCH   3  21
ATOM     21  C   UNL     1      12.770   3.203  -0.363  0.00  0.00    +0.210 C 
BRANCH  21  23
ATOM     23  C   UNL     1      11.750   3.453  -1.389  0.00  0.00    -0.081 C 
ATOM     24  C   UNL     1      10.918   3.660  -2.229  0.00  0.00    -0.104 C 
ATOM     26  C   UNL     1       9.902   3.910  -3.251  0.00  0.00    +0.106 C 
ENDBRANCH  21  23
ENDBRANCH   3  21
TORSDOF 7
ENDMDL
