REMARK  Name = 45783636
REMARK  11 active torsions:
REMARK  status: ('A' for Active; 'I' for Inactive)
REMARK    1  A    between atoms: O_2  and  C_26
REMARK    2  A    between atoms: O_2  and  C_27
REMARK    3  A    between atoms: N_4  and  C_12
REMARK    4  A    between atoms: N_8  and  C_24
REMARK    5  A    between atoms: C_9  and  C_15
REMARK    6  A    between atoms: C_12  and  C_14
REMARK    7  A    between atoms: C_14  and  C_16
REMARK    8  A    between atoms: C_14  and  C_17
REMARK    9  A    between atoms: C_14  and  C_18
REMARK   10  A    between atoms: C_19  and  C_20
REMARK   11  A    between atoms: C_25  and  C_26
REMARK                            x       y       z     vdW  Elec       q    Type
REMARK                         _______ _______ _______ _____ _____    ______ ____
ROOT
ATOM      1  O   UNL     1       2.340  -2.459  -0.700  0.00  0.00    -0.336 OA
ATOM      5  N   UNL     1       1.330  -0.830   0.459  0.00  0.00    -0.190 NA
ATOM      6  N   UNL     1       0.986  -2.512  -1.052  0.00  0.00    -0.056 NA
ATOM     15  C   UNL     1       2.457  -1.442   0.194  0.00  0.00    +0.245 A 
ATOM     19  C   UNL     1       0.456  -1.522  -0.329  0.00  0.00    +0.204 A 
ENDROOT
BRANCH  19  20
ATOM      7  N   UNL     1      -3.142  -1.655  -1.256  0.00  0.00    -0.239 NA
ATOM     20  C   UNL     1      -0.940  -1.198  -0.368  0.00  0.00    +0.041 A 
ATOM     21  C   UNL     1      -1.458  -0.161   0.400  0.00  0.00    +0.016 A 
ATOM     22  C   UNL     1      -1.816  -1.909  -1.173  0.00  0.00    +0.124 A 
ATOM     23  C   UNL     1      -2.816   0.130   0.341  0.00  0.00    +0.044 A 
ATOM     24  C   UNL     1      -3.608  -0.640  -0.495  0.00  0.00    +0.125 A 
BRANCH  24   8
ATOM      3  O   UNL     1      -5.199   1.469   0.945  0.00  0.00    -0.273 OA
ATOM      8  N   UNL     1      -4.974  -0.339  -0.548  0.00  0.00    -0.268 N 
ATOM     25  C   UNL     1      -5.663   0.659   0.148  0.00  0.00    +0.244 C 
ATOM     28  H   UNL     1      -5.512  -0.932  -1.175  0.00  0.00    +0.156 HD
BRANCH  25  26
ATOM     26  C   UNL     1      -7.142   0.661  -0.174  0.00  0.00    +0.255 C 
BRANCH  26   2
ATOM      2  O   UNL     1      -7.769   1.687   0.567  0.00  0.00    -0.374 OA
ATOM     27  C   UNL     1      -9.169   1.747   0.311  0.00  0.00    +0.194 C 
ENDBRANCH  26   2
ENDBRANCH  25  26
ENDBRANCH  24   8
ENDBRANCH  19  20
BRANCH  15   9
ATOM      4  N   UNL     1       4.380   0.190   0.560  0.00  0.00    -0.291 NA
ATOM      9  C   UNL     1       3.853  -1.173   0.738  0.00  0.00    +0.146 C 
ATOM     10  C   UNL     1       3.990  -1.357   2.256  0.00  0.00    +0.030 C 
ATOM     11  C   UNL     1       3.894   1.001   1.669  0.00  0.00    +0.085 C 
ATOM     13  C   UNL     1       3.936   0.049   2.854  0.00  0.00    +0.017 C 
BRANCH   4  12
ATOM     12  C   UNL     1       4.183   0.800  -0.741  0.00  0.00    +0.091 C 
BRANCH  12  14
ATOM     14  C   UNL     1       5.200   1.922  -1.074  0.00  0.00    -0.025 C 
ATOM     16  C   UNL     1       5.412   2.037  -2.594  0.00  0.00    +0.012 C 
ATOM     17  C   UNL     1       4.732   3.281  -0.523  0.00  0.00    +0.012 C 
ATOM     18  C   UNL     1       6.546   1.565  -0.415  0.00  0.00    +0.012 C 
ENDBRANCH  12  14
ENDBRANCH   4  12
ENDBRANCH  15   9
TORSDOF 7
