REMARK  Name = 9424320
REMARK  4 active torsions:
REMARK  status: ('A' for Active; 'I' for Inactive)
REMARK    1  A    between atoms: N_6  and  C_10
REMARK    2  A    between atoms: N_8  and  C_24
REMARK    3  A    between atoms: C_21  and  C_23
REMARK    4  A    between atoms: C_24  and  C_27
REMARK                            x       y       z     vdW  Elec       q    Type
REMARK                         _______ _______ _______ _____ _____    ______ ____
ROOT
ATOM      2  O   UNL     1       1.592   1.462  -1.898  0.00  0.00    -0.273 OA
ATOM      3  O   UNL     1      -1.797  -2.406  -1.033  0.00  0.00    -0.270 OA
ATOM      5  N   UNL     1       0.118  -1.158  -0.628  0.00  0.00    -0.286 N 
ATOM      7  N   UNL     1      -0.669   1.534  -1.569  0.00  0.00    -0.283 N 
ATOM      9  C   UNL     1       0.696   0.084  -0.131  0.00  0.00    +0.164 C 
ATOM     10  C   UNL     1       3.018  -0.993  -0.334  0.00  0.00    +0.078 C 
ATOM     11  C   UNL     1       2.106  -0.056   0.456  0.00  0.00    +0.054 C 
ATOM     12  C   UNL     1       2.316  -2.332  -0.534  0.00  0.00    +0.041 C 
ATOM     13  C   UNL     1       1.000  -2.136  -1.269  0.00  0.00    +0.111 C 
ATOM     14  C   UNL     1       0.600   1.062  -1.288  0.00  0.00    +0.238 C 
ATOM     15  C   UNL     1      -1.262  -1.343  -0.718  0.00  0.00    +0.249 C 
ATOM     16  C   UNL     1      -2.154  -0.173  -0.493  0.00  0.00    +0.059 A 
ATOM     17  C   UNL     1      -1.893   1.113  -1.001  0.00  0.00    +0.046 A 
ATOM     19  C   UNL     1      -3.405  -0.452   0.084  0.00  0.00    +0.023 A 
ATOM     20  C   UNL     1      -2.920   2.071  -0.979  0.00  0.00    +0.024 A 
ATOM     21  C   UNL     1      -4.394   0.529   0.143  0.00  0.00    -0.017 A 
ATOM     22  C   UNL     1      -4.157   1.786  -0.401  0.00  0.00    +0.010 A 
ATOM     31  H   UNL     1      -0.714   2.346  -2.180  0.00  0.00    +0.155 HD
ENDROOT
BRANCH  10   6
ATOM      4  O   UNL     1       5.397   0.612  -0.638  0.00  0.00    -0.253 OA
ATOM      6  N   UNL     1       4.280  -1.171   0.344  0.00  0.00    -0.296 N 
ATOM      8  N   UNL     1       6.466  -0.740   0.915  0.00  0.00    -0.296 N 
ATOM     18  C   UNL     1       5.383  -0.345   0.135  0.00  0.00    +0.300 C 
ATOM     30  H   UNL     1       4.348  -1.889   1.058  0.00  0.00    +0.151 HD
ATOM     32  H   UNL     1       6.355  -1.532   1.540  0.00  0.00    +0.151 HD
BRANCH   8  24
ATOM     24  C   UNL     1       7.737  -0.055   0.893  0.00  0.00    +0.132 C 
BRANCH  24  27
ATOM     27  C   UNL     1       7.728   1.024   1.925  0.00  0.00    -0.016 C 
ATOM     29  C   UNL     1       7.924   2.319   1.651  0.00  0.00    +0.005 C 
ENDBRANCH  24  27
ENDBRANCH   8  24
ENDBRANCH  10   6
BRANCH  21  23
ATOM      1  S   UNL     1      -7.386  -0.855   2.312  0.00  0.00    -0.104 S 
ATOM     23  C   UNL     1      -5.667   0.232   0.738  0.00  0.00    -0.011 A 
ATOM     25  C   UNL     1      -6.934   0.782   0.385  0.00  0.00    +0.016 A 
ATOM     26  C   UNL     1      -5.771  -0.673   1.774  0.00  0.00    +0.053 A 
ATOM     28  C   UNL     1      -7.954   0.278   1.161  0.00  0.00    +0.046 A 
ENDBRANCH  21  23
TORSDOF 4
