MODEL 1
REMARK VINA RESULT:      -6.7      0.000      0.000
REMARK  Name = 56774213
REMARK  10 active torsions:
REMARK  status: ('A' for Active; 'I' for Inactive)
REMARK    1  A    between atoms: N_4  and  C_10
REMARK    2  A    between atoms: N_6  and  C_20
REMARK    3  A    between atoms: N_7  and  C_19
REMARK    4  A    between atoms: C_8  and  C_13
REMARK    5  A    between atoms: C_8  and  C_14
REMARK    6  A    between atoms: C_9  and  C_12
REMARK    7  A    between atoms: C_12  and  C_15
REMARK    8  A    between atoms: C_18  and  C_19
REMARK    9  A    between atoms: C_20  and  C_23
REMARK   10  A    between atoms: C_20  and  C_24
REMARK                            x       y       z     vdW  Elec       q    Type
REMARK                         _______ _______ _______ _____ _____    ______ ____
ROOT
ATOM      8  C   UNL     1      21.179   6.330  21.044  0.00  0.00    -0.013 C 
ATOM      9  C   UNL     1      19.833   6.131  20.315  0.00  0.00    +0.004 C 
ATOM     10  C   UNL     1      21.598   4.955  20.484  0.00  0.00    +0.081 C 
ATOM     11  C   UNL     1      20.096   4.613  20.407  0.00  0.00    +0.027 C 
ATOM     13  C   UNL     1      21.044   6.426  22.548  0.00  0.00    +0.013 C 
ATOM     14  C   UNL     1      22.048   7.464  20.532  0.00  0.00    +0.013 C 
ENDROOT
BRANCH  10   4
ATOM      2  O   UNL     1      24.177   3.741  20.018  0.00  0.00    -0.253 OA
ATOM      4  N   UNL     1      22.352   4.095  21.405  0.00  0.00    -0.296 N 
ATOM      6  N   UNL     1      24.099   2.776  22.129  0.00  0.00    -0.297 N 
ATOM     16  C   UNL     1      23.599   3.553  21.088  0.00  0.00    +0.300 C 
ATOM     27  H   UNL     1      21.967   3.865  22.317  0.00  0.00    +0.151 HD
ATOM     28  H   UNL     1      23.581   2.745  23.001  0.00  0.00    +0.150 HD
BRANCH   6  20
ATOM     20  C   UNL     1      25.374   2.102  22.055  0.00  0.00    +0.068 C 
ATOM     23  C   UNL     1      26.175   2.333  23.330  0.00  0.00    +0.027 C 
ATOM     24  C   UNL     1      25.172   0.615  21.791  0.00  0.00    +0.027 C 
ENDBRANCH   6  20
ENDBRANCH  10   4
BRANCH   9  12
ATOM     12  C   UNL     1      18.566   6.611  21.035  0.00  0.00    +0.063 C 
BRANCH  12  15
ATOM      1  O   UNL     1      16.168   6.061  18.447  0.00  0.00    -0.358 OA
ATOM      5  N   UNL     1      17.372   5.786  19.085  0.00  0.00    -0.083 NA
ATOM     15  C   UNL     1      17.411   6.626  20.123  0.00  0.00    +0.084 A 
ATOM     17  C   UNL     1      16.272   7.447  20.189  0.00  0.00    +0.072 A 
ATOM     18  C   UNL     1      15.522   7.051  19.113  0.00  0.00    +0.151 A 
BRANCH  18  19
ATOM     19  C   UNL     1      14.191   7.479  18.556  0.00  0.00    +0.161 C 
BRANCH  19   7
ATOM      3  O   UNL     1      10.603   7.631  20.727  0.00  0.00    -0.377 OA
ATOM      7  N   UNL     1      13.220   7.750  19.614  0.00  0.00    -0.291 NA
ATOM     21  C   UNL     1      12.668   6.497  20.148  0.00  0.00    +0.113 C 
ATOM     22  C   UNL     1      12.134   8.607  19.118  0.00  0.00    +0.113 C 
ATOM     25  C   UNL     1      11.648   6.804  21.241  0.00  0.00    +0.175 C 
ATOM     26  C   UNL     1      11.127   8.865  20.236  0.00  0.00    +0.175 C 
ENDBRANCH  19   7
ENDBRANCH  18  19
ENDBRANCH  12  15
ENDBRANCH   9  12
TORSDOF 6
ENDMDL
MODEL 2
REMARK VINA RESULT:      -6.4      4.027      7.348
REMARK  Name = 56774213
REMARK  10 active torsions:
REMARK  status: ('A' for Active; 'I' for Inactive)
REMARK    1  A    between atoms: N_4  and  C_10
REMARK    2  A    between atoms: N_6  and  C_20
REMARK    3  A    between atoms: N_7  and  C_19
REMARK    4  A    between atoms: C_8  and  C_13
REMARK    5  A    between atoms: C_8  and  C_14
REMARK    6  A    between atoms: C_9  and  C_12
REMARK    7  A    between atoms: C_12  and  C_15
REMARK    8  A    between atoms: C_18  and  C_19
REMARK    9  A    between atoms: C_20  and  C_23
REMARK   10  A    between atoms: C_20  and  C_24
REMARK                            x       y       z     vdW  Elec       q    Type
REMARK                         _______ _______ _______ _____ _____    ______ ____
ROOT
ATOM      8  C   UNL     1      14.078   8.028  18.480  0.00  0.00    -0.013 C 
ATOM      9  C   UNL     1      12.741   7.490  19.031  0.00  0.00    +0.004 C 
ATOM     10  C   UNL     1      14.779   7.144  19.533  0.00  0.00    +0.081 C 
ATOM     11  C   UNL     1      13.481   7.232  20.360  0.00  0.00    +0.027 C 
ATOM     13  C   UNL     1      14.243   9.523  18.646  0.00  0.00    +0.013 C 
ATOM     14  C   UNL     1      14.417   7.628  17.056  0.00  0.00    +0.013 C 
ENDROOT
BRANCH  10   4
ATOM      2  O   UNL     1      17.431   6.021  19.758  0.00  0.00    -0.253 OA
ATOM      4  N   UNL     1      15.943   7.746  20.196  0.00  0.00    -0.296 N 
ATOM      6  N   UNL     1      18.121   7.899  20.936  0.00  0.00    -0.297 N 
ATOM     16  C   UNL     1      17.191   7.122  20.252  0.00  0.00    +0.300 C 
ATOM     27  H   UNL     1      15.859   8.652  20.647  0.00  0.00    +0.151 HD
ATOM     28  H   UNL     1      17.846   8.828  21.241  0.00  0.00    +0.150 HD
BRANCH   6  20
ATOM     20  C   UNL     1      19.489   7.482  21.136  0.00  0.00    +0.068 C 
ATOM     23  C   UNL     1      20.410   8.693  21.219  0.00  0.00    +0.027 C 
ATOM     24  C   UNL     1      19.602   6.616  22.383  0.00  0.00    +0.027 C 
ENDBRANCH   6  20
ENDBRANCH  10   4
BRANCH   9  12
ATOM     12  C   UNL     1      11.571   8.478  19.125  0.00  0.00    +0.063 C 
BRANCH  12  15
ATOM      1  O   UNL     1      10.440   8.469  22.513  0.00  0.00    -0.358 OA
ATOM      5  N   UNL     1      10.583   7.877  21.263  0.00  0.00    -0.083 NA
ATOM     15  C   UNL     1      11.241   8.777  20.528  0.00  0.00    +0.084 A 
ATOM     17  C   UNL     1      11.537   9.946  21.252  0.00  0.00    +0.072 A 
ATOM     18  C   UNL     1      11.012   9.700  22.494  0.00  0.00    +0.151 A 
BRANCH  18  19
ATOM     19  C   UNL     1      10.950  10.490  23.774  0.00  0.00    +0.161 C 
BRANCH  19   7
ATOM      3  O   UNL     1      12.386  14.334  24.650  0.00  0.00    -0.377 OA
ATOM      7  N   UNL     1      11.613  11.786  23.646  0.00  0.00    -0.291 NA
ATOM     21  C   UNL     1      12.683  11.926  24.643  0.00  0.00    +0.113 C 
ATOM     22  C   UNL     1      10.644  12.882  23.789  0.00  0.00    +0.113 C 
ATOM     25  C   UNL     1      13.350  13.291  24.499  0.00  0.00    +0.175 C 
ATOM     26  C   UNL     1      11.361  14.225  23.664  0.00  0.00    +0.175 C 
ENDBRANCH  19   7
ENDBRANCH  18  19
ENDBRANCH  12  15
ENDBRANCH   9  12
TORSDOF 6
ENDMDL
MODEL 3
REMARK VINA RESULT:      -6.2     27.773     31.230
REMARK  Name = 56774213
REMARK  10 active torsions:
REMARK  status: ('A' for Active; 'I' for Inactive)
REMARK    1  A    between atoms: N_4  and  C_10
REMARK    2  A    between atoms: N_6  and  C_20
REMARK    3  A    between atoms: N_7  and  C_19
REMARK    4  A    between atoms: C_8  and  C_13
REMARK    5  A    between atoms: C_8  and  C_14
REMARK    6  A    between atoms: C_9  and  C_12
REMARK    7  A    between atoms: C_12  and  C_15
REMARK    8  A    between atoms: C_18  and  C_19
REMARK    9  A    between atoms: C_20  and  C_23
REMARK   10  A    between atoms: C_20  and  C_24
REMARK                            x       y       z     vdW  Elec       q    Type
REMARK                         _______ _______ _______ _____ _____    ______ ____
ROOT
ATOM      8  C   UNL     1      -6.464 -11.483  17.901  0.00  0.00    -0.013 C 
ATOM      9  C   UNL     1      -5.578 -10.999  16.735  0.00  0.00    +0.004 C 
ATOM     10  C   UNL     1      -7.659 -10.857  17.152  0.00  0.00    +0.081 C 
ATOM     11  C   UNL     1      -6.643  -9.912  16.478  0.00  0.00    +0.027 C 
ATOM     13  C   UNL     1      -6.109 -10.859  19.232  0.00  0.00    +0.013 C 
ATOM     14  C   UNL     1      -6.590 -12.988  18.055  0.00  0.00    +0.013 C 
ENDROOT
BRANCH  10   4
ATOM      2  O   UNL     1     -10.358 -11.703  17.734  0.00  0.00    -0.253 OA
ATOM      4  N   UNL     1      -8.644 -10.163  17.991  0.00  0.00    -0.296 N 
ATOM      6  N   UNL     1     -10.664  -9.810  19.043  0.00  0.00    -0.297 N 
ATOM     16  C   UNL     1      -9.931 -10.654  18.215  0.00  0.00    +0.300 C 
ATOM     27  H   UNL     1      -8.402  -9.281  18.434  0.00  0.00    +0.151 HD
ATOM     28  H   UNL     1     -10.197  -9.006  19.450  0.00  0.00    +0.150 HD
BRANCH   6  20
ATOM     20  C   UNL     1     -12.027 -10.089  19.430  0.00  0.00    +0.068 C 
ATOM     23  C   UNL     1     -12.302  -9.565  20.834  0.00  0.00    +0.027 C 
ATOM     24  C   UNL     1     -12.998  -9.493  18.419  0.00  0.00    +0.027 C 
ENDBRANCH   6  20
ENDBRANCH  10   4
BRANCH   9  12
ATOM     12  C   UNL     1      -4.183 -10.463  17.088  0.00  0.00    +0.063 C 
BRANCH  12  15
ATOM      1  O   UNL     1      -1.375 -10.807  14.909  0.00  0.00    -0.358 OA
ATOM      5  N   UNL     1      -1.942 -10.683  16.172  0.00  0.00    -0.083 NA
ATOM     15  C   UNL     1      -3.258 -10.603  15.952  0.00  0.00    +0.084 A 
ATOM     17  C   UNL     1      -3.576 -10.669  14.584  0.00  0.00    +0.072 A 
ATOM     18  C   UNL     1      -2.357 -10.798  13.973  0.00  0.00    +0.151 A 
BRANCH  18  19
ATOM     19  C   UNL     1      -1.919 -10.923  12.538  0.00  0.00    +0.161 C 
BRANCH  19   7
ATOM      3  O   UNL     1      -4.090 -10.353   8.992  0.00  0.00    -0.377 OA
ATOM      7  N   UNL     1      -2.995 -10.583  11.609  0.00  0.00    -0.291 NA
ATOM     21  C   UNL     1      -3.419 -11.766  10.847  0.00  0.00    +0.113 C 
ATOM     22  C   UNL     1      -2.573  -9.517  10.691  0.00  0.00    +0.113 C 
ATOM     25  C   UNL     1      -4.532 -11.384   9.875  0.00  0.00    +0.175 C 
ATOM     26  C   UNL     1      -3.707  -9.189   9.723  0.00  0.00    +0.175 C 
ENDBRANCH  19   7
ENDBRANCH  18  19
ENDBRANCH  12  15
ENDBRANCH   9  12
TORSDOF 6
ENDMDL
MODEL 4
REMARK VINA RESULT:      -6.2      1.932     10.627
REMARK  Name = 56774213
REMARK  10 active torsions:
REMARK  status: ('A' for Active; 'I' for Inactive)
REMARK    1  A    between atoms: N_4  and  C_10
REMARK    2  A    between atoms: N_6  and  C_20
REMARK    3  A    between atoms: N_7  and  C_19
REMARK    4  A    between atoms: C_8  and  C_13
REMARK    5  A    between atoms: C_8  and  C_14
REMARK    6  A    between atoms: C_9  and  C_12
REMARK    7  A    between atoms: C_12  and  C_15
REMARK    8  A    between atoms: C_18  and  C_19
REMARK    9  A    between atoms: C_20  and  C_23
REMARK   10  A    between atoms: C_20  and  C_24
REMARK                            x       y       z     vdW  Elec       q    Type
REMARK                         _______ _______ _______ _____ _____    ______ ____
ROOT
ATOM      8  C   UNL     1      16.602   7.024  20.682  0.00  0.00    -0.013 C 
ATOM      9  C   UNL     1      17.853   6.144  20.472  0.00  0.00    +0.004 C 
ATOM     10  C   UNL     1      15.970   6.274  19.491  0.00  0.00    +0.081 C 
ATOM     11  C   UNL     1      17.406   5.994  19.003  0.00  0.00    +0.027 C 
ATOM     13  C   UNL     1      16.860   8.501  20.481  0.00  0.00    +0.013 C 
ATOM     14  C   UNL     1      15.850   6.805  21.981  0.00  0.00    +0.013 C 
ENDROOT
BRANCH  10   4
ATOM      2  O   UNL     1      13.099   6.587  19.445  0.00  0.00    -0.253 OA
ATOM      4  N   UNL     1      15.183   7.099  18.565  0.00  0.00    -0.296 N 
ATOM      6  N   UNL     1      13.290   8.031  17.637  0.00  0.00    -0.297 N 
ATOM     16  C   UNL     1      13.791   7.186  18.623  0.00  0.00    +0.300 C 
ATOM     27  H   UNL     1      15.650   7.633  17.837  0.00  0.00    +0.151 HD
ATOM     28  H   UNL     1      13.948   8.539  17.054  0.00  0.00    +0.150 HD
BRANCH   6  20
ATOM     20  C   UNL     1      11.879   8.295  17.479  0.00  0.00    +0.068 C 
ATOM     23  C   UNL     1      11.312   8.941  18.736  0.00  0.00    +0.027 C 
ATOM     24  C   UNL     1      11.637   9.165  16.253  0.00  0.00    +0.027 C 
ENDBRANCH   6  20
ENDBRANCH  10   4
BRANCH   9  12
ATOM     12  C   UNL     1      19.222   6.812  20.664  0.00  0.00    +0.063 C 
BRANCH  12  15
ATOM      1  O   UNL     1      21.393   4.889  22.748  0.00  0.00    -0.358 OA
ATOM      5  N   UNL     1      20.447   5.888  22.549  0.00  0.00    -0.083 NA
ATOM     15  C   UNL     1      20.196   5.869  21.237  0.00  0.00    +0.084 A 
ATOM     17  C   UNL     1      20.946   4.890  20.564  0.00  0.00    +0.072 A 
ATOM     18  C   UNL     1      21.682   4.302  21.559  0.00  0.00    +0.151 A 
BRANCH  18  19
ATOM     19  C   UNL     1      22.696   3.190  21.587  0.00  0.00    +0.161 C 
BRANCH  19   7
ATOM      3  O   UNL     1      26.822   3.297  20.824  0.00  0.00    -0.377 OA
ATOM      7  N   UNL     1      24.018   3.648  21.162  0.00  0.00    -0.291 NA
ATOM     21  C   UNL     1      24.561   2.771  20.115  0.00  0.00    +0.113 C 
ATOM     22  C   UNL     1      24.942   3.704  22.303  0.00  0.00    +0.113 C 
ATOM     25  C   UNL     1      25.945   3.261  19.697  0.00  0.00    +0.175 C 
ATOM     26  C   UNL     1      26.317   4.173  21.832  0.00  0.00    +0.175 C 
ENDBRANCH  19   7
ENDBRANCH  18  19
ENDBRANCH  12  15
ENDBRANCH   9  12
TORSDOF 6
ENDMDL
MODEL 5
REMARK VINA RESULT:      -6.2      1.652      2.136
REMARK  Name = 56774213
REMARK  10 active torsions:
REMARK  status: ('A' for Active; 'I' for Inactive)
REMARK    1  A    between atoms: N_4  and  C_10
REMARK    2  A    between atoms: N_6  and  C_20
REMARK    3  A    between atoms: N_7  and  C_19
REMARK    4  A    between atoms: C_8  and  C_13
REMARK    5  A    between atoms: C_8  and  C_14
REMARK    6  A    between atoms: C_9  and  C_12
REMARK    7  A    between atoms: C_12  and  C_15
REMARK    8  A    between atoms: C_18  and  C_19
REMARK    9  A    between atoms: C_20  and  C_23
REMARK   10  A    between atoms: C_20  and  C_24
REMARK                            x       y       z     vdW  Elec       q    Type
REMARK                         _______ _______ _______ _____ _____    ______ ____
ROOT
ATOM      8  C   UNL     1      20.590   6.009  21.238  0.00  0.00    -0.013 C 
ATOM      9  C   UNL     1      19.597   6.636  22.239  0.00  0.00    +0.004 C 
ATOM     10  C   UNL     1      21.310   5.392  22.456  0.00  0.00    +0.081 C 
ATOM     11  C   UNL     1      20.722   6.548  23.292  0.00  0.00    +0.027 C 
ATOM     13  C   UNL     1      21.375   7.029  20.444  0.00  0.00    +0.013 C 
ATOM     14  C   UNL     1      20.014   4.961  20.303  0.00  0.00    +0.013 C 
ENDROOT
BRANCH  10   4
ATOM      2  O   UNL     1      23.046   3.102  22.167  0.00  0.00    -0.253 OA
ATOM      4  N   UNL     1      22.777   5.394  22.396  0.00  0.00    -0.296 N 
ATOM      6  N   UNL     1      24.896   4.503  22.225  0.00  0.00    -0.297 N 
ATOM     16  C   UNL     1      23.532   4.229  22.254  0.00  0.00    +0.300 C 
ATOM     27  H   UNL     1      23.288   6.270  22.467  0.00  0.00    +0.151 HD
ATOM     28  H   UNL     1      25.195   5.474  22.228  0.00  0.00    +0.150 HD
BRANCH   6  20
ATOM     20  C   UNL     1      25.897   3.471  22.086  0.00  0.00    +0.068 C 
ATOM     23  C   UNL     1      26.240   3.255  20.617  0.00  0.00    +0.027 C 
ATOM     24  C   UNL     1      27.137   3.823  22.897  0.00  0.00    +0.027 C 
ENDBRANCH   6  20
ENDBRANCH  10   4
BRANCH   9  12
ATOM     12  C   UNL     1      19.103   8.058  21.941  0.00  0.00    +0.063 C 
BRANCH  12  15
ATOM      1  O   UNL     1      16.071   8.796  20.206  0.00  0.00    -0.358 OA
ATOM      5  N   UNL     1      17.270   9.173  20.798  0.00  0.00    -0.083 NA
ATOM     15  C   UNL     1      17.805   8.034  21.248  0.00  0.00    +0.084 A 
ATOM     17  C   UNL     1      16.996   6.918  20.971  0.00  0.00    +0.072 A 
ATOM     18  C   UNL     1      15.919   7.452  20.315  0.00  0.00    +0.151 A 
BRANCH  18  19
ATOM     19  C   UNL     1      14.664   6.867  19.722  0.00  0.00    +0.161 C 
BRANCH  19   7
ATOM      3  O   UNL     1      10.676   7.895  20.525  0.00  0.00    -0.377 OA
ATOM      7  N   UNL     1      13.477   7.632  20.099  0.00  0.00    -0.291 NA
ATOM     21  C   UNL     1      12.818   7.030  21.266  0.00  0.00    +0.113 C 
ATOM     22  C   UNL     1      12.534   7.717  18.976  0.00  0.00    +0.113 C 
ATOM     25  C   UNL     1      11.576   7.837  21.632  0.00  0.00    +0.175 C 
ATOM     26  C   UNL     1      11.299   8.509  19.397  0.00  0.00    +0.175 C 
ENDBRANCH  19   7
ENDBRANCH  18  19
ENDBRANCH  12  15
ENDBRANCH   9  12
TORSDOF 6
ENDMDL
MODEL 6
REMARK VINA RESULT:      -6.2     28.043     30.843
REMARK  Name = 56774213
REMARK  10 active torsions:
REMARK  status: ('A' for Active; 'I' for Inactive)
REMARK    1  A    between atoms: N_4  and  C_10
REMARK    2  A    between atoms: N_6  and  C_20
REMARK    3  A    between atoms: N_7  and  C_19
REMARK    4  A    between atoms: C_8  and  C_13
REMARK    5  A    between atoms: C_8  and  C_14
REMARK    6  A    between atoms: C_9  and  C_12
REMARK    7  A    between atoms: C_12  and  C_15
REMARK    8  A    between atoms: C_18  and  C_19
REMARK    9  A    between atoms: C_20  and  C_23
REMARK   10  A    between atoms: C_20  and  C_24
REMARK                            x       y       z     vdW  Elec       q    Type
REMARK                         _______ _______ _______ _____ _____    ______ ____
ROOT
ATOM      8  C   UNL     1      -5.032 -11.897  18.489  0.00  0.00    -0.013 C 
ATOM      9  C   UNL     1      -6.214 -11.224  19.217  0.00  0.00    +0.004 C 
ATOM     10  C   UNL     1      -4.877 -10.586  17.690  0.00  0.00    +0.081 C 
ATOM     11  C   UNL     1      -6.373 -10.329  17.969  0.00  0.00    +0.027 C 
ATOM     13  C   UNL     1      -5.427 -13.121  17.694  0.00  0.00    +0.013 C 
ATOM     14  C   UNL     1      -3.819 -12.209  19.346  0.00  0.00    +0.013 C 
ENDROOT
BRANCH  10   4
ATOM      2  O   UNL     1      -2.257 -10.811  16.497  0.00  0.00    -0.253 OA
ATOM      4  N   UNL     1      -4.563 -10.743  16.264  0.00  0.00    -0.296 N 
ATOM      6  N   UNL     1      -3.232 -10.985  14.397  0.00  0.00    -0.297 N 
ATOM     16  C   UNL     1      -3.257 -10.844  15.781  0.00  0.00    +0.300 C 
ATOM     27  H   UNL     1      -5.313 -10.775  15.578  0.00  0.00    +0.151 HD
ATOM     28  H   UNL     1      -4.115 -11.078  13.904  0.00  0.00    +0.150 HD
BRANCH   6  20
ATOM     20  C   UNL     1      -2.004 -11.110  13.648  0.00  0.00    +0.068 C 
ATOM     23  C   UNL     1      -1.622 -12.576  13.488  0.00  0.00    +0.027 C 
ATOM     24  C   UNL     1      -2.137 -10.423  12.295  0.00  0.00    +0.027 C 
ENDBRANCH   6  20
ENDBRANCH  10   4
BRANCH   9  12
ATOM     12  C   UNL     1      -7.432 -12.101  19.539  0.00  0.00    +0.063 C 
BRANCH  12  15
ATOM      1  O   UNL     1     -10.446 -10.188  19.603  0.00  0.00    -0.358 OA
ATOM      5  N   UNL     1      -9.320 -10.727  20.213  0.00  0.00    -0.083 NA
ATOM     15  C   UNL     1      -8.688 -11.394  19.244  0.00  0.00    +0.084 A 
ATOM     17  C   UNL     1      -9.362 -11.312  18.012  0.00  0.00    +0.072 A 
ATOM     18  C   UNL     1     -10.460 -10.543  18.293  0.00  0.00    +0.151 A 
BRANCH  18  19
ATOM     19  C   UNL     1     -11.619 -10.041  17.473  0.00  0.00    +0.161 C 
BRANCH  19   7
ATOM      3  O   UNL     1     -11.331  -6.683  14.972  0.00  0.00    -0.377 OA
ATOM      7  N   UNL     1     -11.182  -9.132  16.414  0.00  0.00    -0.291 NA
ATOM     21  C   UNL     1     -10.678  -7.875  16.982  0.00  0.00    +0.113 C 
ATOM     22  C   UNL     1     -12.281  -8.858  15.478  0.00  0.00    +0.113 C 
ATOM     25  C   UNL     1     -10.241  -6.938  15.860  0.00  0.00    +0.175 C 
ATOM     26  C   UNL     1     -11.806  -7.897  14.390  0.00  0.00    +0.175 C 
ENDBRANCH  19   7
ENDBRANCH  18  19
ENDBRANCH  12  15
ENDBRANCH   9  12
TORSDOF 6
ENDMDL
MODEL 7
REMARK VINA RESULT:      -6.1      1.991      2.731
REMARK  Name = 56774213
REMARK  10 active torsions:
REMARK  status: ('A' for Active; 'I' for Inactive)
REMARK    1  A    between atoms: N_4  and  C_10
REMARK    2  A    between atoms: N_6  and  C_20
REMARK    3  A    between atoms: N_7  and  C_19
REMARK    4  A    between atoms: C_8  and  C_13
REMARK    5  A    between atoms: C_8  and  C_14
REMARK    6  A    between atoms: C_9  and  C_12
REMARK    7  A    between atoms: C_12  and  C_15
REMARK    8  A    between atoms: C_18  and  C_19
REMARK    9  A    between atoms: C_20  and  C_23
REMARK   10  A    between atoms: C_20  and  C_24
REMARK                            x       y       z     vdW  Elec       q    Type
REMARK                         _______ _______ _______ _____ _____    ______ ____
ROOT
ATOM      8  C   UNL     1      20.099   7.298  21.470  0.00  0.00    -0.013 C 
ATOM      9  C   UNL     1      18.755   7.527  20.746  0.00  0.00    +0.004 C 
ATOM     10  C   UNL     1      20.246   6.013  20.628  0.00  0.00    +0.081 C 
ATOM     11  C   UNL     1      18.707   6.002  20.516  0.00  0.00    +0.027 C 
ATOM     13  C   UNL     1      19.956   7.105  22.963  0.00  0.00    +0.013 C 
ATOM     14  C   UNL     1      21.187   8.316  21.184  0.00  0.00    +0.013 C 
ENDROOT
BRANCH  10   4
ATOM      2  O   UNL     1      22.956   5.024  20.514  0.00  0.00    -0.253 OA
ATOM      4  N   UNL     1      20.794   4.848  21.334  0.00  0.00    -0.296 N 
ATOM      6  N   UNL     1      22.390   3.318  21.983  0.00  0.00    -0.297 N 
ATOM     16  C   UNL     1      22.126   4.447  21.215  0.00  0.00    +0.300 C 
ATOM     27  H   UNL     1      20.195   4.290  21.936  0.00  0.00    +0.151 HD
ATOM     28  H   UNL     1      21.657   2.960  22.587  0.00  0.00    +0.150 HD
BRANCH   6  20
ATOM     20  C   UNL     1      23.694   2.699  22.037  0.00  0.00    +0.068 C 
ATOM     23  C   UNL     1      23.833   1.853  23.297  0.00  0.00    +0.027 C 
ATOM     24  C   UNL     1      23.938   1.868  20.784  0.00  0.00    +0.027 C 
ENDBRANCH   6  20
ENDBRANCH  10   4
BRANCH   9  12
ATOM     12  C   UNL     1      17.595   8.091  21.578  0.00  0.00    +0.063 C 
BRANCH  12  15
ATOM      1  O   UNL     1      14.637   6.423  20.476  0.00  0.00    -0.358 OA
ATOM      5  N   UNL     1      15.875   6.440  21.106  0.00  0.00    -0.083 NA
ATOM     15  C   UNL     1      16.295   7.704  21.007  0.00  0.00    +0.084 A 
ATOM     17  C   UNL     1      15.374   8.522  20.331  0.00  0.00    +0.072 A 
ATOM     18  C   UNL     1      14.349   7.668  20.019  0.00  0.00    +0.151 A 
BRANCH  18  19
ATOM     19  C   UNL     1      13.034   7.835  19.304  0.00  0.00    +0.161 C 
BRANCH  19   7
ATOM      3  O   UNL     1      12.954   8.699  15.198  0.00  0.00    -0.377 OA
ATOM      7  N   UNL     1      13.193   8.532  18.029  0.00  0.00    -0.291 NA
ATOM     21  C   UNL     1      11.890   8.732  17.379  0.00  0.00    +0.113 C 
ATOM     22  C   UNL     1      14.092   7.788  17.137  0.00  0.00    +0.113 C 
ATOM     25  C   UNL     1      12.082   9.449  16.046  0.00  0.00    +0.175 C 
ATOM     26  C   UNL     1      14.232   8.529  15.809  0.00  0.00    +0.175 C 
ENDBRANCH  19   7
ENDBRANCH  18  19
ENDBRANCH  12  15
ENDBRANCH   9  12
TORSDOF 6
ENDMDL
MODEL 8
REMARK VINA RESULT:      -6.0     27.753     30.884
REMARK  Name = 56774213
REMARK  10 active torsions:
REMARK  status: ('A' for Active; 'I' for Inactive)
REMARK    1  A    between atoms: N_4  and  C_10
REMARK    2  A    between atoms: N_6  and  C_20
REMARK    3  A    between atoms: N_7  and  C_19
REMARK    4  A    between atoms: C_8  and  C_13
REMARK    5  A    between atoms: C_8  and  C_14
REMARK    6  A    between atoms: C_9  and  C_12
REMARK    7  A    between atoms: C_12  and  C_15
REMARK    8  A    between atoms: C_18  and  C_19
REMARK    9  A    between atoms: C_20  and  C_23
REMARK   10  A    between atoms: C_20  and  C_24
REMARK                            x       y       z     vdW  Elec       q    Type
REMARK                         _______ _______ _______ _____ _____    ______ ____
ROOT
ATOM      8  C   UNL     1      -4.490  -9.800  10.608  0.00  0.00    -0.013 C 
ATOM      9  C   UNL     1      -3.871 -10.947  11.434  0.00  0.00    +0.004 C 
ATOM     10  C   UNL     1      -5.125 -10.888   9.716  0.00  0.00    +0.081 C 
ATOM     11  C   UNL     1      -3.977 -11.816  10.164  0.00  0.00    +0.027 C 
ATOM     13  C   UNL     1      -3.463  -8.909   9.945  0.00  0.00    +0.013 C 
ATOM     14  C   UNL     1      -5.523  -8.950  11.324  0.00  0.00    +0.013 C 
ENDROOT
BRANCH  10   4
ATOM      2  O   UNL     1      -7.428 -10.420   8.038  0.00  0.00    -0.253 OA
ATOM      4  N   UNL     1      -5.129 -10.608   8.275  0.00  0.00    -0.296 N 
ATOM      6  N   UNL     1      -6.030 -10.151   6.203  0.00  0.00    -0.297 N 
ATOM     16  C   UNL     1      -6.300 -10.394   7.547  0.00  0.00    +0.300 C 
ATOM     27  H   UNL     1      -4.252 -10.570   7.762  0.00  0.00    +0.151 HD
ATOM     28  H   UNL     1      -5.061 -10.074   5.910  0.00  0.00    +0.150 HD
BRANCH   6  20
ATOM     20  C   UNL     1      -7.069  -9.898   5.232  0.00  0.00    +0.068 C 
ATOM     23  C   UNL     1      -7.112  -8.419   4.868  0.00  0.00    +0.027 C 
ATOM     24  C   UNL     1      -6.862 -10.765   3.998  0.00  0.00    +0.027 C 
ENDBRANCH   6  20
ENDBRANCH  10   4
BRANCH   9  12
ATOM     12  C   UNL     1      -2.443 -10.743  11.959  0.00  0.00    +0.063 C 
BRANCH  12  15
ATOM      1  O   UNL     1      -1.719 -10.147  15.405  0.00  0.00    -0.358 OA
ATOM      5  N   UNL     1      -1.434 -10.023  14.050  0.00  0.00    -0.083 NA
ATOM     15  C   UNL     1      -2.423 -10.672  13.429  0.00  0.00    +0.084 A 
ATOM     17  C   UNL     1      -3.352 -11.220  14.331  0.00  0.00    +0.072 A 
ATOM     18  C   UNL     1      -2.863 -10.861  15.559  0.00  0.00    +0.151 A 
BRANCH  18  19
ATOM     19  C   UNL     1      -3.324 -11.094  16.973  0.00  0.00    +0.161 C 
BRANCH  19   7
ATOM      3  O   UNL     1      -7.210 -11.752  18.417  0.00  0.00    -0.377 OA
ATOM      7  N   UNL     1      -4.742 -11.445  17.032  0.00  0.00    -0.291 NA
ATOM     21  C   UNL     1      -5.551 -10.283  17.427  0.00  0.00    +0.113 C 
ATOM     22  C   UNL     1      -4.965 -12.556  17.968  0.00  0.00    +0.113 C 
ATOM     25  C   UNL     1      -7.023 -10.677  17.495  0.00  0.00    +0.175 C 
ATOM     26  C   UNL     1      -6.452 -12.895  18.022  0.00  0.00    +0.175 C 
ENDBRANCH  19   7
ENDBRANCH  18  19
ENDBRANCH  12  15
ENDBRANCH   9  12
TORSDOF 6
ENDMDL
MODEL 9
REMARK VINA RESULT:      -6.0     29.326     33.767
REMARK  Name = 56774213
REMARK  10 active torsions:
REMARK  status: ('A' for Active; 'I' for Inactive)
REMARK    1  A    between atoms: N_4  and  C_10
REMARK    2  A    between atoms: N_6  and  C_20
REMARK    3  A    between atoms: N_7  and  C_19
REMARK    4  A    between atoms: C_8  and  C_13
REMARK    5  A    between atoms: C_8  and  C_14
REMARK    6  A    between atoms: C_9  and  C_12
REMARK    7  A    between atoms: C_12  and  C_15
REMARK    8  A    between atoms: C_18  and  C_19
REMARK    9  A    between atoms: C_20  and  C_23
REMARK   10  A    between atoms: C_20  and  C_24
REMARK                            x       y       z     vdW  Elec       q    Type
REMARK                         _______ _______ _______ _____ _____    ______ ____
ROOT
ATOM      8  C   UNL     1     -12.153  -8.495  15.771  0.00  0.00    -0.013 C 
ATOM      9  C   UNL     1     -11.006  -8.788  16.761  0.00  0.00    +0.004 C 
ATOM     10  C   UNL     1     -11.276  -7.355  15.212  0.00  0.00    +0.081 C 
ATOM     11  C   UNL     1     -10.585  -7.313  16.591  0.00  0.00    +0.027 C 
ATOM     13  C   UNL     1     -13.442  -8.077  16.444  0.00  0.00    +0.013 C 
ATOM     14  C   UNL     1     -12.435  -9.577  14.746  0.00  0.00    +0.013 C 
ENDROOT
BRANCH  10   4
ATOM      2  O   UNL     1     -12.322  -6.601  12.628  0.00  0.00    -0.253 OA
ATOM      4  N   UNL     1     -11.985  -6.115  14.870  0.00  0.00    -0.296 N 
ATOM      6  N   UNL     1     -13.089  -4.602  13.526  0.00  0.00    -0.297 N 
ATOM     16  C   UNL     1     -12.456  -5.840  13.585  0.00  0.00    +0.300 C 
ATOM     27  H   UNL     1     -12.145  -5.408  15.582  0.00  0.00    +0.151 HD
ATOM     28  H   UNL     1     -13.216  -4.082  14.389  0.00  0.00    +0.150 HD
BRANCH   6  20
ATOM     20  C   UNL     1     -13.666  -4.079  12.311  0.00  0.00    +0.068 C 
ATOM     23  C   UNL     1     -14.851  -3.175  12.627  0.00  0.00    +0.027 C 
ATOM     24  C   UNL     1     -12.610  -3.341  11.498  0.00  0.00    +0.027 C 
ENDBRANCH   6  20
ENDBRANCH  10   4
BRANCH   9  12
ATOM     12  C   UNL     1     -11.397  -9.186  18.191  0.00  0.00    +0.063 C 
BRANCH  12  15
ATOM      1  O   UNL     1      -9.354 -11.170  20.346  0.00  0.00    -0.358 OA
ATOM      5  N   UNL     1     -10.513 -10.454  20.066  0.00  0.00    -0.083 NA
ATOM     15  C   UNL     1     -10.344  -9.998  18.822  0.00  0.00    +0.084 A 
ATOM     17  C   UNL     1      -9.111 -10.390  18.271  0.00  0.00    +0.072 A 
ATOM     18  C   UNL     1      -8.528 -11.125  19.270  0.00  0.00    +0.151 A 
BRANCH  18  19
ATOM     19  C   UNL     1      -7.217 -11.853  19.398  0.00  0.00    +0.161 C 
BRANCH  19   7
ATOM      3  O   UNL     1      -3.897 -11.765  16.831  0.00  0.00    -0.377 OA
ATOM      7  N   UNL     1      -6.392 -11.702  18.201  0.00  0.00    -0.291 NA
ATOM     21  C   UNL     1      -5.737 -12.971  17.855  0.00  0.00    +0.113 C 
ATOM     22  C   UNL     1      -5.383 -10.651  18.393  0.00  0.00    +0.113 C 
ATOM     25  C   UNL     1      -4.872 -12.786  16.612  0.00  0.00    +0.175 C 
ATOM     26  C   UNL     1      -4.527 -10.521  17.135  0.00  0.00    +0.175 C 
ENDBRANCH  19   7
ENDBRANCH  18  19
ENDBRANCH  12  15
ENDBRANCH   9  12
TORSDOF 6
ENDMDL
MODEL 10
REMARK VINA RESULT:      -5.9      1.712      2.161
REMARK  Name = 56774213
REMARK  10 active torsions:
REMARK  status: ('A' for Active; 'I' for Inactive)
REMARK    1  A    between atoms: N_4  and  C_10
REMARK    2  A    between atoms: N_6  and  C_20
REMARK    3  A    between atoms: N_7  and  C_19
REMARK    4  A    between atoms: C_8  and  C_13
REMARK    5  A    between atoms: C_8  and  C_14
REMARK    6  A    between atoms: C_9  and  C_12
REMARK    7  A    between atoms: C_12  and  C_15
REMARK    8  A    between atoms: C_18  and  C_19
REMARK    9  A    between atoms: C_20  and  C_23
REMARK   10  A    between atoms: C_20  and  C_24
REMARK                            x       y       z     vdW  Elec       q    Type
REMARK                         _______ _______ _______ _____ _____    ______ ____
ROOT
ATOM      8  C   UNL     1      20.715   6.081  21.278  0.00  0.00    -0.013 C 
ATOM      9  C   UNL     1      19.425   6.556  21.979  0.00  0.00    +0.004 C 
ATOM     10  C   UNL     1      21.260   5.738  22.681  0.00  0.00    +0.081 C 
ATOM     11  C   UNL     1      20.289   6.802  23.233  0.00  0.00    +0.027 C 
ATOM     13  C   UNL     1      21.438   7.180  20.531  0.00  0.00    +0.013 C 
ATOM     14  C   UNL     1      20.574   4.860  20.388  0.00  0.00    +0.013 C 
ENDROOT
BRANCH  10   4
ATOM      2  O   UNL     1      23.507   3.937  22.465  0.00  0.00    -0.253 OA
ATOM      4  N   UNL     1      22.675   6.056  22.909  0.00  0.00    -0.296 N 
ATOM      6  N   UNL     1      24.943   5.666  23.050  0.00  0.00    -0.297 N 
ATOM     16  C   UNL     1      23.695   5.112  22.779  0.00  0.00    +0.300 C 
ATOM     27  H   UNL     1      22.948   6.996  23.182  0.00  0.00    +0.151 HD
ATOM     28  H   UNL     1      25.001   6.664  23.226  0.00  0.00    +0.150 HD
BRANCH   6  20
ATOM     20  C   UNL     1      26.166   4.901  22.987  0.00  0.00    +0.068 C 
ATOM     23  C   UNL     1      26.928   5.217  21.706  0.00  0.00    +0.027 C 
ATOM     24  C   UNL     1      27.021   5.167  24.218  0.00  0.00    +0.027 C 
ENDBRANCH   6  20
ENDBRANCH  10   4
BRANCH   9  12
ATOM     12  C   UNL     1      18.738   7.806  21.414  0.00  0.00    +0.063 C 
BRANCH  12  15
ATOM      1  O   UNL     1      16.242   6.207  19.423  0.00  0.00    -0.358 OA
ATOM      5  N   UNL     1      17.440   6.203  20.128  0.00  0.00    -0.083 NA
ATOM     15  C   UNL     1      17.564   7.446  20.603  0.00  0.00    +0.084 A 
ATOM     17  C   UNL     1      16.486   8.270  20.233  0.00  0.00    +0.072 A 
ATOM     18  C   UNL     1      15.684   7.442  19.492  0.00  0.00    +0.151 A 
BRANCH  18  19
ATOM     19  C   UNL     1      14.372   7.628  18.778  0.00  0.00    +0.161 C 
BRANCH  19   7
ATOM      3  O   UNL     1      10.712   7.449  20.824  0.00  0.00    -0.377 OA
ATOM      7  N   UNL     1      13.285   7.932  19.708  0.00  0.00    -0.291 NA
ATOM     21  C   UNL     1      13.039   6.798  20.610  0.00  0.00    +0.113 C 
ATOM     22  C   UNL     1      12.055   8.270  18.978  0.00  0.00    +0.113 C 
ATOM     25  C   UNL     1      11.893   7.133  21.561  0.00  0.00    +0.175 C 
ATOM     26  C   UNL     1      10.933   8.570  19.968  0.00  0.00    +0.175 C 
ENDBRANCH  19   7
ENDBRANCH  18  19
ENDBRANCH  12  15
ENDBRANCH   9  12
TORSDOF 6
ENDMDL
