REMARK  Name = 25390186
REMARK  9 active torsions:
REMARK  status: ('A' for Active; 'I' for Inactive)
REMARK    1  A    between atoms: O_3  and  C_10
REMARK    2  A    between atoms: O_4  and  C_11
REMARK    3  A    between atoms: N_7  and  C_15
REMARK    4  A    between atoms: N_8  and  C_18
REMARK    5  A    between atoms: N_9  and  C_20
REMARK    6  A    between atoms: C_12  and  C_14
REMARK    7  A    between atoms: C_13  and  C_15
REMARK    8  A    between atoms: C_14  and  C_16
REMARK    9  A    between atoms: C_18  and  C_19
REMARK                            x       y       z     vdW  Elec       q    Type
REMARK                         _______ _______ _______ _____ _____    ______ ____
ROOT
ATOM      2  O   UNL     1      -2.745   0.314  -0.600  0.00  0.00    -0.366 OA
ATOM     10  C   UNL     1      -4.608  -0.400   0.656  0.00  0.00    +0.175 C 
ATOM     11  C   UNL     1      -5.040   0.784  -0.185  0.00  0.00    +0.176 C 
ATOM     12  C   UNL     1      -3.378  -0.876  -0.097  0.00  0.00    +0.158 C 
ATOM     13  C   UNL     1      -3.701   1.399  -0.578  0.00  0.00    +0.167 C 
ENDROOT
BRANCH  10   3
ATOM      3  O   UNL     1      -5.593  -1.406   0.753  0.00  0.00    -0.387 OA
ATOM     31  H   UNL     1      -6.388  -1.000   1.139  0.00  0.00    +0.210 HD
ENDBRANCH  10   3
BRANCH  11   4
ATOM      4  O   UNL     1      -5.688   0.335  -1.375  0.00  0.00    -0.387 OA
ATOM     32  H   UNL     1      -5.913   1.124  -1.898  0.00  0.00    +0.210 HD
ENDBRANCH  11   4
BRANCH  12  14
ATOM     14  C   UNL     1      -2.400  -1.646   0.773  0.00  0.00    +0.130 C 
BRANCH  14  16
ATOM      5  O   UNL     1      -1.393  -2.461  -1.270  0.00  0.00    -0.276 OA
ATOM      8  N   UNL     1      -0.490  -3.103   0.773  0.00  0.00    -0.311 N 
ATOM     16  C   UNL     1      -1.391  -2.434  -0.042  0.00  0.00    +0.216 C 
ATOM     34  H   UNL     1      -0.563  -3.001   1.781  0.00  0.00    +0.149 HD
BRANCH   8  18
ATOM     18  C   UNL     1       0.577  -3.930   0.257  0.00  0.00    +0.139 C 
BRANCH  18  19
ATOM      1  F   UNL     1       5.301  -0.988  -0.594  0.00  0.00    -0.205 F 
ATOM     19  C   UNL     1       1.837  -3.146   0.030  0.00  0.00    -0.030 A 
ATOM     21  C   UNL     1       2.066  -2.537  -1.203  0.00  0.00    +0.008 A 
ATOM     22  C   UNL     1       2.778  -3.026   1.053  0.00  0.00    +0.008 A 
ATOM     23  C   UNL     1       3.237  -1.808  -1.415  0.00  0.00    +0.038 A 
ATOM     24  C   UNL     1       3.948  -2.297   0.842  0.00  0.00    +0.038 A 
ATOM     27  C   UNL     1       4.178  -1.688  -0.392  0.00  0.00    +0.123 A 
ENDBRANCH  18  19
ENDBRANCH   8  18
ENDBRANCH  14  16
ENDBRANCH  12  14
BRANCH  13  15
ATOM     15  C   UNL     1      -3.205   2.436   0.420  0.00  0.00    +0.140 C 
BRANCH  15   7
ATOM      6  O   UNL     1      -0.607   1.444   1.104  0.00  0.00    -0.253 OA
ATOM      7  N   UNL     1      -1.945   2.984   0.014  0.00  0.00    -0.297 N 
ATOM      9  N   UNL     1       0.345   3.183  -0.152  0.00  0.00    -0.269 N 
ATOM     17  C   UNL     1      -0.706   2.440   0.391  0.00  0.00    +0.304 C 
ATOM     33  H   UNL     1      -1.950   3.803  -0.587  0.00  0.00    +0.150 HD
ATOM     35  H   UNL     1       0.090   3.985  -0.723  0.00  0.00    +0.156 HD
BRANCH   9  20
ATOM     20  C   UNL     1       1.734   2.959  -0.005  0.00  0.00    +0.035 A 
ATOM     25  C   UNL     1       2.647   3.812  -0.625  0.00  0.00    +0.023 A 
ATOM     26  C   UNL     1       2.191   1.884   0.758  0.00  0.00    +0.023 A 
ATOM     28  C   UNL     1       4.017   3.591  -0.480  0.00  0.00    +0.002 A 
ATOM     29  C   UNL     1       3.561   1.663   0.902  0.00  0.00    +0.002 A 
ATOM     30  C   UNL     1       4.474   2.517   0.283  0.00  0.00    +0.000 A 
ENDBRANCH   9  20
ENDBRANCH  15   7
ENDBRANCH  13  15
TORSDOF 9
