MODEL 1
REMARK VINA RESULT:      -7.5      0.000      0.000
REMARK  Name = 51137092
REMARK  5 active torsions:
REMARK  status: ('A' for Active; 'I' for Inactive)
REMARK    1  A    between atoms: S_2  and  C_18
REMARK    2  A    between atoms: S_2  and  C_25
REMARK    3  A    between atoms: N_5  and  C_11
REMARK    4  A    between atoms: C_7  and  C_12
REMARK    5  A    between atoms: C_11  and  C_13
REMARK                            x       y       z     vdW  Elec       q    Type
REMARK                         _______ _______ _______ _____ _____    ______ ____
ROOT
ATOM      5  N   UNL     1      13.952   7.205  20.024  0.00  0.00    -0.297 NA
ATOM      7  C   UNL     1      12.630   8.282  21.634  0.00  0.00    +0.060 C 
ATOM      8  C   UNL     1      13.967   8.388  20.888  0.00  0.00    +0.095 C 
ATOM      9  C   UNL     1      11.732   7.444  20.707  0.00  0.00    +0.027 C 
ATOM     10  C   UNL     1      12.593   7.147  19.486  0.00  0.00    +0.085 C 
ENDROOT
BRANCH   7  12
ATOM      1  S   UNL     1      11.972  10.863  20.838  0.00  0.00    -0.072 S 
ATOM      6  N   UNL     1      11.626   9.933  23.219  0.00  0.00    -0.244 NA
ATOM     12  C   UNL     1      12.062   9.629  22.019  0.00  0.00    +0.084 A 
ATOM     14  C   UNL     1      11.284  11.923  22.012  0.00  0.00    +0.039 A 
ATOM     15  C   UNL     1      11.175  11.246  23.231  0.00  0.00    +0.078 A 
ATOM     21  C   UNL     1      10.870  13.256  21.864  0.00  0.00    +0.017 A 
ATOM     22  C   UNL     1      10.633  11.931  24.340  0.00  0.00    +0.029 A 
ATOM     23  C   UNL     1      10.338  13.912  22.979  0.00  0.00    +0.001 A 
ATOM     24  C   UNL     1      10.220  13.259  24.200  0.00  0.00    +0.002 A 
ENDBRANCH   7  12
BRANCH   5  11
ATOM     11  C   UNL     1      14.961   7.270  18.977  0.00  0.00    +0.119 C 
BRANCH  11  13
ATOM     13  C   UNL     1      16.327   6.902  19.491  0.00  0.00    -0.033 A 
ATOM     16  C   UNL     1      16.899   7.629  20.535  0.00  0.00    +0.007 A 
ATOM     17  C   UNL     1      17.021   5.833  18.923  0.00  0.00    +0.007 A 
ATOM     18  C   UNL     1      18.859   6.220  20.443  0.00  0.00    +0.088 A 
ATOM     19  C   UNL     1      18.164   7.288  21.010  0.00  0.00    +0.027 A 
ATOM     20  C   UNL     1      18.287   5.492  19.399  0.00  0.00    +0.027 A 
BRANCH  18   2
ATOM      2  S   UNL     1      20.441   5.791  21.041  0.00  0.00    -0.006 S 
ATOM      3  O   UNL     1      20.418   5.815  22.498  0.00  0.00    -0.170 OA
ATOM      4  O   UNL     1      20.872   4.586  20.346  0.00  0.00    -0.170 OA
ATOM     25  C   UNL     1      21.490   7.128  20.518  0.00  0.00    +0.200 C 
ENDBRANCH  18   2
ENDBRANCH  11  13
ENDBRANCH   5  11
TORSDOF 4
ENDMDL
MODEL 2
REMARK VINA RESULT:      -7.2      4.247     10.454
REMARK  Name = 51137092
REMARK  5 active torsions:
REMARK  status: ('A' for Active; 'I' for Inactive)
REMARK    1  A    between atoms: S_2  and  C_18
REMARK    2  A    between atoms: S_2  and  C_25
REMARK    3  A    between atoms: N_5  and  C_11
REMARK    4  A    between atoms: C_7  and  C_12
REMARK    5  A    between atoms: C_11  and  C_13
REMARK                            x       y       z     vdW  Elec       q    Type
REMARK                         _______ _______ _______ _____ _____    ______ ____
ROOT
ATOM      5  N   UNL     1      18.721   7.664  21.988  0.00  0.00    -0.297 NA
ATOM      7  C   UNL     1      20.246   5.929  22.397  0.00  0.00    +0.060 C 
ATOM      8  C   UNL     1      19.277   6.475  21.338  0.00  0.00    +0.095 C 
ATOM      9  C   UNL     1      20.615   7.152  23.254  0.00  0.00    +0.027 C 
ATOM     10  C   UNL     1      19.865   8.318  22.623  0.00  0.00    +0.085 C 
ENDROOT
BRANCH   7  12
ATOM      1  S   UNL     1      22.480   6.037  20.747  0.00  0.00    -0.072 S 
ATOM      6  N   UNL     1      21.701   3.933  22.019  0.00  0.00    -0.244 NA
ATOM     12  C   UNL     1      21.422   5.196  21.795  0.00  0.00    +0.084 A 
ATOM     14  C   UNL     1      23.416   4.601  20.556  0.00  0.00    +0.039 A 
ATOM     15  C   UNL     1      22.842   3.577  21.315  0.00  0.00    +0.078 A 
ATOM     21  C   UNL     1      24.574   4.397  19.789  0.00  0.00    +0.017 A 
ATOM     22  C   UNL     1      23.452   2.303  21.304  0.00  0.00    +0.029 A 
ATOM     23  C   UNL     1      25.157   3.126  19.795  0.00  0.00    +0.001 A 
ATOM     24  C   UNL     1      24.604   2.093  20.543  0.00  0.00    +0.002 A 
ENDBRANCH   7  12
BRANCH   5  11
ATOM     11  C   UNL     1      18.032   8.539  21.051  0.00  0.00    +0.119 C 
BRANCH  11  13
ATOM     13  C   UNL     1      16.581   8.167  20.901  0.00  0.00    -0.033 A 
ATOM     16  C   UNL     1      16.191   7.264  19.912  0.00  0.00    +0.007 A 
ATOM     17  C   UNL     1      15.626   8.726  21.751  0.00  0.00    +0.007 A 
ATOM     18  C   UNL     1      13.892   7.480  20.623  0.00  0.00    +0.088 A 
ATOM     19  C   UNL     1      14.846   6.921  19.773  0.00  0.00    +0.027 A 
ATOM     20  C   UNL     1      14.282   8.382  21.612  0.00  0.00    +0.027 A 
BRANCH  18   2
ATOM      2  S   UNL     1      12.209   7.046  20.451  0.00  0.00    -0.006 S 
ATOM      3  O   UNL     1      11.970   6.613  19.081  0.00  0.00    -0.170 OA
ATOM      4  O   UNL     1      11.858   6.167  21.557  0.00  0.00    -0.170 OA
ATOM     25  C   UNL     1      11.333   8.578  20.670  0.00  0.00    +0.200 C 
ENDBRANCH  18   2
ENDBRANCH  11  13
ENDBRANCH   5  11
TORSDOF 4
ENDMDL
MODEL 3
REMARK VINA RESULT:      -7.0     17.799     19.624
REMARK  Name = 51137092
REMARK  5 active torsions:
REMARK  status: ('A' for Active; 'I' for Inactive)
REMARK    1  A    between atoms: S_2  and  C_18
REMARK    2  A    between atoms: S_2  and  C_25
REMARK    3  A    between atoms: N_5  and  C_11
REMARK    4  A    between atoms: C_7  and  C_12
REMARK    5  A    between atoms: C_11  and  C_13
REMARK                            x       y       z     vdW  Elec       q    Type
REMARK                         _______ _______ _______ _____ _____    ______ ____
ROOT
ATOM      5  N   UNL     1      11.971   4.248   1.733  0.00  0.00    -0.297 NA
ATOM      7  C   UNL     1      10.447   5.255   3.204  0.00  0.00    +0.060 C 
ATOM      8  C   UNL     1      11.120   3.914   2.877  0.00  0.00    +0.095 C 
ATOM      9  C   UNL     1      11.413   6.319   2.656  0.00  0.00    +0.027 C 
ATOM     10  C   UNL     1      12.582   5.532   2.078  0.00  0.00    +0.085 C 
ENDROOT
BRANCH   7  12
ATOM      1  S   UNL     1       9.546   6.909   5.248  0.00  0.00    -0.072 S 
ATOM      6  N   UNL     1      10.212   4.436   5.553  0.00  0.00    -0.244 NA
ATOM     12  C   UNL     1      10.106   5.400   4.669  0.00  0.00    +0.084 A 
ATOM     14  C   UNL     1       9.421   6.243   6.834  0.00  0.00    +0.039 A 
ATOM     15  C   UNL     1       9.822   4.904   6.800  0.00  0.00    +0.078 A 
ATOM     21  C   UNL     1       8.999   6.862   8.021  0.00  0.00    +0.017 A 
ATOM     22  C   UNL     1       9.798   4.160   8.000  0.00  0.00    +0.029 A 
ATOM     23  C   UNL     1       8.986   6.102   9.195  0.00  0.00    +0.001 A 
ATOM     24  C   UNL     1       9.380   4.769   9.185  0.00  0.00    +0.002 A 
ENDBRANCH   7  12
BRANCH   5  11
ATOM     11  C   UNL     1      12.963   3.219   1.459  0.00  0.00    +0.119 C 
BRANCH  11  13
ATOM     13  C   UNL     1      13.955   3.660   0.416  0.00  0.00    -0.033 A 
ATOM     16  C   UNL     1      15.298   3.824   0.757  0.00  0.00    +0.007 A 
ATOM     17  C   UNL     1      13.532   3.904  -0.890  0.00  0.00    +0.007 A 
ATOM     18  C   UNL     1      15.794   4.477  -1.516  0.00  0.00    +0.088 A 
ATOM     19  C   UNL     1      16.217   4.233  -0.209  0.00  0.00    +0.027 A 
ATOM     20  C   UNL     1      14.451   4.312  -1.856  0.00  0.00    +0.027 A 
BRANCH  18   2
ATOM      2  S   UNL     1      16.945   4.985  -2.726  0.00  0.00    -0.006 S 
ATOM      3  O   UNL     1      18.196   4.267  -2.518  0.00  0.00    -0.170 OA
ATOM      4  O   UNL     1      16.287   4.926  -4.023  0.00  0.00    -0.170 OA
ATOM     25  C   UNL     1      17.259   6.694  -2.349  0.00  0.00    +0.200 C 
ENDBRANCH  18   2
ENDBRANCH  11  13
ENDBRANCH   5  11
TORSDOF 4
ENDMDL
MODEL 4
REMARK VINA RESULT:      -7.0      4.013      9.997
REMARK  Name = 51137092
REMARK  5 active torsions:
REMARK  status: ('A' for Active; 'I' for Inactive)
REMARK    1  A    between atoms: S_2  and  C_18
REMARK    2  A    between atoms: S_2  and  C_25
REMARK    3  A    between atoms: N_5  and  C_11
REMARK    4  A    between atoms: C_7  and  C_12
REMARK    5  A    between atoms: C_11  and  C_13
REMARK                            x       y       z     vdW  Elec       q    Type
REMARK                         _______ _______ _______ _____ _____    ______ ____
ROOT
ATOM      5  N   UNL     1      17.578   6.337  20.374  0.00  0.00    -0.297 NA
ATOM      7  C   UNL     1      19.722   6.276  21.324  0.00  0.00    +0.060 C 
ATOM      8  C   UNL     1      18.892   5.726  20.156  0.00  0.00    +0.095 C 
ATOM      9  C   UNL     1      19.024   7.591  21.712  0.00  0.00    +0.027 C 
ATOM     10  C   UNL     1      17.864   7.726  20.735  0.00  0.00    +0.085 C 
ENDROOT
BRANCH   7  12
ATOM      1  S   UNL     1      21.813   7.953  20.586  0.00  0.00    -0.072 S 
ATOM      6  N   UNL     1      22.043   5.414  20.982  0.00  0.00    -0.244 NA
ATOM     12  C   UNL     1      21.190   6.412  20.989  0.00  0.00    +0.084 A 
ATOM     14  C   UNL     1      23.376   7.254  20.377  0.00  0.00    +0.039 A 
ATOM     15  C   UNL     1      23.302   5.881  20.633  0.00  0.00    +0.078 A 
ATOM     21  C   UNL     1      24.581   7.877  20.012  0.00  0.00    +0.017 A 
ATOM     22  C   UNL     1      24.477   5.107  20.519  0.00  0.00    +0.029 A 
ATOM     23  C   UNL     1      25.729   7.086  19.905  0.00  0.00    +0.001 A 
ATOM     24  C   UNL     1      25.679   5.720  20.156  0.00  0.00    +0.002 A 
ENDBRANCH   7  12
BRANCH   5  11
ATOM     11  C   UNL     1      16.716   6.233  19.207  0.00  0.00    +0.119 C 
BRANCH  11  13
ATOM     13  C   UNL     1      15.329   6.745  19.487  0.00  0.00    -0.033 A 
ATOM     16  C   UNL     1      14.747   6.535  20.738  0.00  0.00    +0.007 A 
ATOM     17  C   UNL     1      14.623   7.428  18.496  0.00  0.00    +0.007 A 
ATOM     18  C   UNL     1      12.756   7.691  20.006  0.00  0.00    +0.088 A 
ATOM     19  C   UNL     1      13.462   7.008  20.997  0.00  0.00    +0.027 A 
ATOM     20  C   UNL     1      13.338   7.901  18.756  0.00  0.00    +0.027 A 
BRANCH  18   2
ATOM      2  S   UNL     1      11.148   8.287  20.332  0.00  0.00    -0.006 S 
ATOM      3  O   UNL     1      10.470   8.534  19.067  0.00  0.00    -0.170 OA
ATOM      4  O   UNL     1      10.537   7.410  21.320  0.00  0.00    -0.170 OA
ATOM     25  C   UNL     1      11.410   9.872  21.097  0.00  0.00    +0.200 C 
ENDBRANCH  18   2
ENDBRANCH  11  13
ENDBRANCH   5  11
TORSDOF 4
ENDMDL
MODEL 5
REMARK VINA RESULT:      -6.8     27.117     28.999
REMARK  Name = 51137092
REMARK  5 active torsions:
REMARK  status: ('A' for Active; 'I' for Inactive)
REMARK    1  A    between atoms: S_2  and  C_18
REMARK    2  A    between atoms: S_2  and  C_25
REMARK    3  A    between atoms: N_5  and  C_11
REMARK    4  A    between atoms: C_7  and  C_12
REMARK    5  A    between atoms: C_11  and  C_13
REMARK                            x       y       z     vdW  Elec       q    Type
REMARK                         _______ _______ _______ _____ _____    ______ ____
ROOT
ATOM      5  N   UNL     1      -1.974 -10.977  13.705  0.00  0.00    -0.297 NA
ATOM      7  C   UNL     1      -3.108 -10.171  15.593  0.00  0.00    +0.060 C 
ATOM      8  C   UNL     1      -3.332 -10.668  14.158  0.00  0.00    +0.095 C 
ATOM      9  C   UNL     1      -1.781 -10.819  16.026  0.00  0.00    +0.027 C 
ATOM     10  C   UNL     1      -1.345 -11.662  14.834  0.00  0.00    +0.085 C 
ENDROOT
BRANCH   7  12
ATOM      1  S   UNL     1      -5.787  -9.715  16.176  0.00  0.00    -0.072 S 
ATOM      6  N   UNL     1      -4.230 -11.242  17.553  0.00  0.00    -0.244 NA
ATOM     12  C   UNL     1      -4.280 -10.455  16.504  0.00  0.00    +0.084 A 
ATOM     14  C   UNL     1      -6.462 -10.504  17.553  0.00  0.00    +0.039 A 
ATOM     15  C   UNL     1      -5.474 -11.281  18.165  0.00  0.00    +0.078 A 
ATOM     21  C   UNL     1      -7.773 -10.439  18.054  0.00  0.00    +0.017 A 
ATOM     22  C   UNL     1      -5.812 -12.018  19.321  0.00  0.00    +0.029 A 
ATOM     23  C   UNL     1      -8.080 -11.179  19.200  0.00  0.00    +0.001 A 
ATOM     24  C   UNL     1      -7.114 -11.958  19.826  0.00  0.00    +0.002 A 
ENDBRANCH   7  12
BRANCH   5  11
ATOM     11  C   UNL     1      -1.963 -11.783  12.493  0.00  0.00    +0.119 C 
BRANCH  11  13
ATOM     13  C   UNL     1      -2.934 -11.264  11.467  0.00  0.00    -0.033 A 
ATOM     16  C   UNL     1      -4.004 -12.058  11.055  0.00  0.00    +0.007 A 
ATOM     17  C   UNL     1      -2.764  -9.989  10.926  0.00  0.00    +0.007 A 
ATOM     18  C   UNL     1      -4.734 -10.303   9.564  0.00  0.00    +0.088 A 
ATOM     19  C   UNL     1      -4.904 -11.578  10.104  0.00  0.00    +0.027 A 
ATOM     20  C   UNL     1      -3.663  -9.508   9.976  0.00  0.00    +0.027 A 
BRANCH  18   2
ATOM      2  S   UNL     1      -5.862  -9.700   8.377  0.00  0.00    -0.006 S 
ATOM      3  O   UNL     1      -6.384  -8.417   8.829  0.00  0.00    -0.170 OA
ATOM      4  O   UNL     1      -5.233  -9.802   7.068  0.00  0.00    -0.170 OA
ATOM     25  C   UNL     1      -7.215 -10.854   8.425  0.00  0.00    +0.200 C 
ENDBRANCH  18   2
ENDBRANCH  11  13
ENDBRANCH   5  11
TORSDOF 4
ENDMDL
MODEL 6
REMARK VINA RESULT:      -6.7      2.826      4.146
REMARK  Name = 51137092
REMARK  5 active torsions:
REMARK  status: ('A' for Active; 'I' for Inactive)
REMARK    1  A    between atoms: S_2  and  C_18
REMARK    2  A    between atoms: S_2  and  C_25
REMARK    3  A    between atoms: N_5  and  C_11
REMARK    4  A    between atoms: C_7  and  C_12
REMARK    5  A    between atoms: C_11  and  C_13
REMARK                            x       y       z     vdW  Elec       q    Type
REMARK                         _______ _______ _______ _____ _____    ______ ____
ROOT
ATOM      5  N   UNL     1      18.021   6.285  20.627  0.00  0.00    -0.297 NA
ATOM      7  C   UNL     1      15.807   6.649  21.308  0.00  0.00    +0.060 C 
ATOM      8  C   UNL     1      17.256   7.053  21.612  0.00  0.00    +0.095 C 
ATOM      9  C   UNL     1      15.826   6.209  19.834  0.00  0.00    +0.027 C 
ATOM     10  C   UNL     1      17.266   6.412  19.381  0.00  0.00    +0.085 C 
ENDROOT
BRANCH   7  12
ATOM      1  S   UNL     1      15.380   9.328  21.915  0.00  0.00    -0.072 S 
ATOM      6  N   UNL     1      13.515   7.558  21.717  0.00  0.00    -0.244 NA
ATOM     12  C   UNL     1      14.812   7.740  21.632  0.00  0.00    +0.084 A 
ATOM     14  C   UNL     1      13.758   9.851  22.178  0.00  0.00    +0.039 A 
ATOM     15  C   UNL     1      12.896   8.760  22.030  0.00  0.00    +0.078 A 
ATOM     21  C   UNL     1      13.283  11.134  22.495  0.00  0.00    +0.017 A 
ATOM     22  C   UNL     1      11.510   8.964  22.204  0.00  0.00    +0.029 A 
ATOM     23  C   UNL     1      11.907  11.308  22.663  0.00  0.00    +0.001 A 
ATOM     24  C   UNL     1      11.031  10.238  22.519  0.00  0.00    +0.002 A 
ENDBRANCH   7  12
BRANCH   5  11
ATOM     11  C   UNL     1      19.391   6.759  20.496  0.00  0.00    +0.119 C 
BRANCH  11  13
ATOM     13  C   UNL     1      20.374   5.815  21.137  0.00  0.00    -0.033 A 
ATOM     16  C   UNL     1      20.929   6.124  22.378  0.00  0.00    +0.007 A 
ATOM     17  C   UNL     1      20.730   4.632  20.488  0.00  0.00    +0.007 A 
ATOM     18  C   UNL     1      22.195   4.067  22.323  0.00  0.00    +0.088 A 
ATOM     19  C   UNL     1      21.840   5.250  22.971  0.00  0.00    +0.027 A 
ATOM     20  C   UNL     1      21.640   3.758  21.081  0.00  0.00    +0.027 A 
BRANCH  18   2
ATOM      2  S   UNL     1      23.332   2.971  23.067  0.00  0.00    -0.006 S 
ATOM      3  O   UNL     1      24.483   3.731  23.537  0.00  0.00    -0.170 OA
ATOM      4  O   UNL     1      22.597   2.126  23.997  0.00  0.00    -0.170 OA
ATOM     25  C   UNL     1      23.900   1.946  21.729  0.00  0.00    +0.200 C 
ENDBRANCH  18   2
ENDBRANCH  11  13
ENDBRANCH   5  11
TORSDOF 4
ENDMDL
MODEL 7
REMARK VINA RESULT:      -6.6      2.866      4.197
REMARK  Name = 51137092
REMARK  5 active torsions:
REMARK  status: ('A' for Active; 'I' for Inactive)
REMARK    1  A    between atoms: S_2  and  C_18
REMARK    2  A    between atoms: S_2  and  C_25
REMARK    3  A    between atoms: N_5  and  C_11
REMARK    4  A    between atoms: C_7  and  C_12
REMARK    5  A    between atoms: C_11  and  C_13
REMARK                            x       y       z     vdW  Elec       q    Type
REMARK                         _______ _______ _______ _____ _____    ______ ____
ROOT
ATOM      5  N   UNL     1      18.102   6.253  20.681  0.00  0.00    -0.297 NA
ATOM      7  C   UNL     1      15.841   6.610  21.193  0.00  0.00    +0.060 C 
ATOM      8  C   UNL     1      17.262   7.018  21.606  0.00  0.00    +0.095 C 
ATOM      9  C   UNL     1      15.974   6.170  19.725  0.00  0.00    +0.027 C 
ATOM     10  C   UNL     1      17.443   6.378  19.381  0.00  0.00    +0.085 C 
ENDROOT
BRANCH   7  12
ATOM      1  S   UNL     1      13.226   7.491  20.858  0.00  0.00    -0.072 S 
ATOM      6  N   UNL     1      15.071   8.815  22.082  0.00  0.00    -0.244 NA
ATOM     12  C   UNL     1      14.821   7.697  21.441  0.00  0.00    +0.084 A 
ATOM     14  C   UNL     1      12.800   9.029  21.511  0.00  0.00    +0.039 A 
ATOM     15  C   UNL     1      13.921   9.589  22.131  0.00  0.00    +0.078 A 
ATOM     21  C   UNL     1      11.562   9.691  21.477  0.00  0.00    +0.017 A 
ATOM     22  C   UNL     1      13.796  10.858  22.738  0.00  0.00    +0.029 A 
ATOM     23  C   UNL     1      11.466  10.946  22.084  0.00  0.00    +0.001 A 
ATOM     24  C   UNL     1      12.567  11.523  22.707  0.00  0.00    +0.002 A 
ENDBRANCH   7  12
BRANCH   5  11
ATOM     11  C   UNL     1      19.476   6.731  20.654  0.00  0.00    +0.119 C 
BRANCH  11  13
ATOM     13  C   UNL     1      20.434   5.716  21.218  0.00  0.00    -0.033 A 
ATOM     16  C   UNL     1      21.094   5.972  22.420  0.00  0.00    +0.007 A 
ATOM     17  C   UNL     1      20.662   4.519  20.539  0.00  0.00    +0.007 A 
ATOM     18  C   UNL     1      22.209   3.835  22.263  0.00  0.00    +0.088 A 
ATOM     19  C   UNL     1      21.982   5.032  22.942  0.00  0.00    +0.027 A 
ATOM     20  C   UNL     1      21.549   3.579  21.061  0.00  0.00    +0.027 A 
BRANCH  18   2
ATOM      2  S   UNL     1      23.317   2.656  22.919  0.00  0.00    -0.006 S 
ATOM      3  O   UNL     1      22.711   2.039  24.092  0.00  0.00    -0.170 OA
ATOM      4  O   UNL     1      23.781   1.818  21.822  0.00  0.00    -0.170 OA
ATOM     25  C   UNL     1      24.698   3.618  23.494  0.00  0.00    +0.200 C 
ENDBRANCH  18   2
ENDBRANCH  11  13
ENDBRANCH   5  11
TORSDOF 4
ENDMDL
MODEL 8
REMARK VINA RESULT:      -6.6     19.203     21.169
REMARK  Name = 51137092
REMARK  5 active torsions:
REMARK  status: ('A' for Active; 'I' for Inactive)
REMARK    1  A    between atoms: S_2  and  C_18
REMARK    2  A    between atoms: S_2  and  C_25
REMARK    3  A    between atoms: N_5  and  C_11
REMARK    4  A    between atoms: C_7  and  C_12
REMARK    5  A    between atoms: C_11  and  C_13
REMARK                            x       y       z     vdW  Elec       q    Type
REMARK                         _______ _______ _______ _____ _____    ______ ____
ROOT
ATOM      5  N   UNL     1      11.433   5.075   1.329  0.00  0.00    -0.297 NA
ATOM      7  C   UNL     1      10.270   6.042   3.122  0.00  0.00    +0.060 C 
ATOM      8  C   UNL     1      10.540   4.700   2.428  0.00  0.00    +0.095 C 
ATOM      9  C   UNL     1      11.485   6.916   2.765  0.00  0.00    +0.027 C 
ATOM     10  C   UNL     1      12.381   6.020   1.919  0.00  0.00    +0.085 C 
ENDROOT
BRANCH   7  12
ATOM      1  S   UNL     1       9.440   7.248   5.484  0.00  0.00    -0.072 S 
ATOM      6  N   UNL     1      10.184   4.787   5.281  0.00  0.00    -0.244 NA
ATOM     12  C   UNL     1      10.006   5.897   4.603  0.00  0.00    +0.084 A 
ATOM     14  C   UNL     1       9.418   6.291   6.919  0.00  0.00    +0.039 A 
ATOM     15  C   UNL     1       9.851   4.997   6.612  0.00  0.00    +0.078 A 
ATOM     21  C   UNL     1       9.045   6.659   8.222  0.00  0.00    +0.017 A 
ATOM     22  C   UNL     1       9.911   4.040   7.648  0.00  0.00    +0.029 A 
ATOM     23  C   UNL     1       9.115   5.692   9.228  0.00  0.00    +0.001 A 
ATOM     24  C   UNL     1       9.542   4.399   8.946  0.00  0.00    +0.002 A 
ENDBRANCH   7  12
BRANCH   5  11
ATOM     11  C   UNL     1      12.096   3.924   0.734  0.00  0.00    +0.119 C 
BRANCH  11  13
ATOM     13  C   UNL     1      11.743   3.765  -0.721  0.00  0.00    -0.033 A 
ATOM     16  C   UNL     1      10.763   4.575  -1.294  0.00  0.00    +0.007 A 
ATOM     17  C   UNL     1      12.398   2.808  -1.496  0.00  0.00    +0.007 A 
ATOM     18  C   UNL     1      11.091   3.469  -3.417  0.00  0.00    +0.088 A 
ATOM     19  C   UNL     1      10.437   4.427  -2.641  0.00  0.00    +0.027 A 
ATOM     20  C   UNL     1      12.071   2.660  -2.844  0.00  0.00    +0.027 A 
BRANCH  18   2
ATOM      2  S   UNL     1      10.685   3.287  -5.105  0.00  0.00    -0.006 S 
ATOM      3  O   UNL     1      11.910   3.082  -5.866  0.00  0.00    -0.170 OA
ATOM      4  O   UNL     1       9.603   2.318  -5.204  0.00  0.00    -0.170 OA
ATOM     25  C   UNL     1      10.041   4.876  -5.579  0.00  0.00    +0.200 C 
ENDBRANCH  18   2
ENDBRANCH  11  13
ENDBRANCH   5  11
TORSDOF 4
ENDMDL
MODEL 9
REMARK VINA RESULT:      -6.4     27.962     31.052
REMARK  Name = 51137092
REMARK  5 active torsions:
REMARK  status: ('A' for Active; 'I' for Inactive)
REMARK    1  A    between atoms: S_2  and  C_18
REMARK    2  A    between atoms: S_2  and  C_25
REMARK    3  A    between atoms: N_5  and  C_11
REMARK    4  A    between atoms: C_7  and  C_12
REMARK    5  A    between atoms: C_11  and  C_13
REMARK                            x       y       z     vdW  Elec       q    Type
REMARK                         _______ _______ _______ _____ _____    ______ ____
ROOT
ATOM      5  N   UNL     1      -9.377  -9.412  17.044  0.00  0.00    -0.297 NA
ATOM      7  C   UNL     1      -7.642 -10.676  16.099  0.00  0.00    +0.060 C 
ATOM      8  C   UNL     1      -8.247  -9.265  16.123  0.00  0.00    +0.095 C 
ATOM      9  C   UNL     1      -8.069 -11.306  17.436  0.00  0.00    +0.027 C 
ATOM     10  C   UNL     1      -8.861 -10.218  18.150  0.00  0.00    +0.085 C 
ENDROOT
BRANCH   7  12
ATOM      1  S   UNL     1      -5.081 -10.718  17.178  0.00  0.00    -0.072 S 
ATOM      6  N   UNL     1      -5.604 -10.634  14.653  0.00  0.00    -0.244 NA
ATOM     12  C   UNL     1      -6.152 -10.672  15.845  0.00  0.00    +0.084 A 
ATOM     14  C   UNL     1      -3.743 -10.686  16.090  0.00  0.00    +0.039 A 
ATOM     15  C   UNL     1      -4.222 -10.642  14.777  0.00  0.00    +0.078 A 
ATOM     21  C   UNL     1      -2.368 -10.699  16.378  0.00  0.00    +0.017 A 
ATOM     22  C   UNL     1      -3.289 -10.610  13.717  0.00  0.00    +0.029 A 
ATOM     23  C   UNL     1      -1.468 -10.666  15.310  0.00  0.00    +0.001 A 
ATOM     24  C   UNL     1      -1.921 -10.622  13.997  0.00  0.00    +0.002 A 
ENDBRANCH   7  12
BRANCH   5  11
ATOM     11  C   UNL     1      -9.901  -8.130  17.490  0.00  0.00    +0.119 C 
BRANCH  11  13
ATOM     13  C   UNL     1     -10.927  -7.580  16.535  0.00  0.00    -0.033 A 
ATOM     16  C   UNL     1     -12.148  -8.234  16.372  0.00  0.00    +0.007 A 
ATOM     17  C   UNL     1     -10.656  -6.418  15.813  0.00  0.00    +0.007 A 
ATOM     18  C   UNL     1     -12.828  -6.563  14.765  0.00  0.00    +0.088 A 
ATOM     19  C   UNL     1     -13.098  -7.725  15.487  0.00  0.00    +0.027 A 
ATOM     20  C   UNL     1     -11.606  -5.909  14.929  0.00  0.00    +0.027 A 
BRANCH  18   2
ATOM      2  S   UNL     1     -14.019  -5.924  13.661  0.00  0.00    -0.006 S 
ATOM      3  O   UNL     1     -13.955  -6.671  12.412  0.00  0.00    -0.170 OA
ATOM      4  O   UNL     1     -15.283  -5.820  14.376  0.00  0.00    -0.170 OA
ATOM     25  C   UNL     1     -13.455  -4.274  13.307  0.00  0.00    +0.200 C 
ENDBRANCH  18   2
ENDBRANCH  11  13
ENDBRANCH   5  11
TORSDOF 4
ENDMDL
MODEL 10
REMARK VINA RESULT:      -6.3     27.967     31.437
REMARK  Name = 51137092
REMARK  5 active torsions:
REMARK  status: ('A' for Active; 'I' for Inactive)
REMARK    1  A    between atoms: S_2  and  C_18
REMARK    2  A    between atoms: S_2  and  C_25
REMARK    3  A    between atoms: N_5  and  C_11
REMARK    4  A    between atoms: C_7  and  C_12
REMARK    5  A    between atoms: C_11  and  C_13
REMARK                            x       y       z     vdW  Elec       q    Type
REMARK                         _______ _______ _______ _____ _____    ______ ____
ROOT
ATOM      5  N   UNL     1     -14.019   7.097  33.925  0.00  0.00    -0.297 NA
ATOM      7  C   UNL     1     -15.301   5.277  33.184  0.00  0.00    +0.060 C 
ATOM      8  C   UNL     1     -14.246   6.292  32.722  0.00  0.00    +0.095 C 
ATOM      9  C   UNL     1     -15.115   5.190  34.709  0.00  0.00    +0.027 C 
ATOM     10  C   UNL     1     -13.958   6.130  35.020  0.00  0.00    +0.085 C 
ENDROOT
BRANCH   7  12
ATOM      1  S   UNL     1     -14.932   2.528  33.356  0.00  0.00    -0.072 S 
ATOM      6  N   UNL     1     -15.318   3.817  31.156  0.00  0.00    -0.244 NA
ATOM     12  C   UNL     1     -15.206   3.956  32.456  0.00  0.00    +0.084 A 
ATOM     14  C   UNL     1     -14.962   1.613  31.894  0.00  0.00    +0.039 A 
ATOM     15  C   UNL     1     -15.181   2.479  30.818  0.00  0.00    +0.078 A 
ATOM     21  C   UNL     1     -14.803   0.230  31.713  0.00  0.00    +0.017 A 
ATOM     22  C   UNL     1     -15.243   1.937  29.515  0.00  0.00    +0.029 A 
ATOM     23  C   UNL     1     -14.867  -0.280  30.413  0.00  0.00    +0.001 A 
ATOM     24  C   UNL     1     -15.084   0.561  29.328  0.00  0.00    +0.002 A 
ENDBRANCH   7  12
BRANCH   5  11
ATOM     11  C   UNL     1     -12.814   7.907  33.832  0.00  0.00    +0.119 C 
BRANCH  11  13
ATOM     13  C   UNL     1     -12.781   8.720  32.565  0.00  0.00    -0.033 A 
ATOM     16  C   UNL     1     -13.918   9.415  32.152  0.00  0.00    +0.007 A 
ATOM     17  C   UNL     1     -11.614   8.777  31.803  0.00  0.00    +0.007 A 
ATOM     18  C   UNL     1     -12.720  10.224  30.217  0.00  0.00    +0.088 A 
ATOM     19  C   UNL     1     -13.887  10.167  30.979  0.00  0.00    +0.027 A 
ATOM     20  C   UNL     1     -11.583   9.529  30.630  0.00  0.00    +0.027 A 
BRANCH  18   2
ATOM      2  S   UNL     1     -12.680  11.169  28.750  0.00  0.00    -0.006 S 
ATOM      3  O   UNL     1     -13.645  10.619  27.807  0.00  0.00    -0.170 OA
ATOM      4  O   UNL     1     -12.755  12.576  29.121  0.00  0.00    -0.170 OA
ATOM     25  C   UNL     1     -11.064  10.868  28.072  0.00  0.00    +0.200 C 
ENDBRANCH  18   2
ENDBRANCH  11  13
ENDBRANCH   5  11
TORSDOF 4
ENDMDL
