MODEL 1
REMARK VINA RESULT:      -6.7      0.000      0.000
REMARK  Name = 11884081
REMARK  10 active torsions:
REMARK  status: ('A' for Active; 'I' for Inactive)
REMARK    1  A    between atoms: S_1  and  N_9
REMARK    2  A    between atoms: S_1  and  C_17
REMARK    3  A    between atoms: O_4  and  C_14
REMARK    4  A    between atoms: O_4  and  C_18
REMARK    5  A    between atoms: O_8  and  C_26
REMARK    6  A    between atoms: O_8  and  C_27
REMARK    7  A    between atoms: N_9  and  C_13
REMARK    8  A    between atoms: N_10  and  C_21
REMARK    9  A    between atoms: C_17  and  C_19
REMARK   10  A    between atoms: C_19  and  C_20
REMARK                            x       y       z     vdW  Elec       q    Type
REMARK                         _______ _______ _______ _____ _____    ______ ____
ROOT
ATOM      2  O   UNL     1      16.172   8.666  20.781  0.00  0.00    -0.369 OA
ATOM      3  O   UNL     1      15.602   6.094  19.192  0.00  0.00    -0.368 OA
ATOM     11  C   UNL     1      14.968   6.666  20.355  0.00  0.00    +0.171 C 
ATOM     12  C   UNL     1      16.067   7.293  21.191  0.00  0.00    +0.191 C 
ATOM     13  C   UNL     1      14.106   7.835  19.949  0.00  0.00    +0.133 C 
ATOM     14  C   UNL     1      17.283   6.493  20.788  0.00  0.00    +0.235 C 
ATOM     15  C   UNL     1      15.101   8.977  19.875  0.00  0.00    +0.183 C 
ATOM     16  C   UNL     1      17.024   6.237  19.321  0.00  0.00    +0.207 C 
ENDROOT
BRANCH  13   9
ATOM      9  N   UNL     1      13.101   8.113  21.003  0.00  0.00    -0.187 NA
ATOM     28  H   UNL     1      13.444   8.200  21.967  0.00  0.00    +0.148 HD
BRANCH   9   1
ATOM      1  S   UNL     1      11.483   7.655  20.738  0.00  0.00    +0.030 S 
ATOM      5  O   UNL     1      11.341   6.221  20.897  0.00  0.00    -0.158 OA
ATOM      6  O   UNL     1      11.015   8.318  19.536  0.00  0.00    -0.158 OA
BRANCH   1  17
ATOM     17  C   UNL     1      10.688   8.441  22.121  0.00  0.00    +0.185 C 
BRANCH  17  19
ATOM     19  C   UNL     1      11.539   9.569  22.681  0.00  0.00    +0.021 C 
ATOM     20  C   UNL     1      11.161  10.908  22.071  0.00  0.00    +0.005 C 
ENDBRANCH  17  19
ENDBRANCH   1  17
ENDBRANCH   9   1
ENDBRANCH  13   9
BRANCH  14   4
ATOM      4  O   UNL     1      18.499   7.173  21.003  0.00  0.00    -0.442 OA
BRANCH   4  18
ATOM      7  O   UNL     1      19.693   6.319  22.757  0.00  0.00    -0.226 OA
ATOM     10  N   UNL     1      20.308   5.912  20.535  0.00  0.00    -0.251 N 
ATOM     18  C   UNL     1      19.535   6.443  21.548  0.00  0.00    +0.405 C 
ATOM     29  H   UNL     1      20.016   6.126  19.586  0.00  0.00    +0.158 HD
BRANCH  10  21
ATOM     21  C   UNL     1      21.463   5.103  20.655  0.00  0.00    +0.037 A 
ATOM     22  C   UNL     1      22.725   5.652  20.428  0.00  0.00    +0.027 A 
ATOM     23  C   UNL     1      21.339   3.758  21.001  0.00  0.00    +0.027 A 
ATOM     24  C   UNL     1      23.864   4.855  20.547  0.00  0.00    +0.047 A 
ATOM     25  C   UNL     1      22.477   2.961  21.120  0.00  0.00    +0.047 A 
ATOM     26  C   UNL     1      23.740   3.509  20.893  0.00  0.00    +0.120 A 
BRANCH  26   8
ATOM      8  O   UNL     1      24.851   2.733  21.011  0.00  0.00    -0.495 OA
ATOM     27  C   UNL     1      24.652   1.366  21.371  0.00  0.00    +0.277 C 
ENDBRANCH  26   8
ENDBRANCH  10  21
ENDBRANCH   4  18
ENDBRANCH  14   4
TORSDOF 8
ENDMDL
MODEL 2
REMARK VINA RESULT:      -6.3     29.190     33.143
REMARK  Name = 11884081
REMARK  10 active torsions:
REMARK  status: ('A' for Active; 'I' for Inactive)
REMARK    1  A    between atoms: S_1  and  N_9
REMARK    2  A    between atoms: S_1  and  C_17
REMARK    3  A    between atoms: O_4  and  C_14
REMARK    4  A    between atoms: O_4  and  C_18
REMARK    5  A    between atoms: O_8  and  C_26
REMARK    6  A    between atoms: O_8  and  C_27
REMARK    7  A    between atoms: N_9  and  C_13
REMARK    8  A    between atoms: N_10  and  C_21
REMARK    9  A    between atoms: C_17  and  C_19
REMARK   10  A    between atoms: C_19  and  C_20
REMARK                            x       y       z     vdW  Elec       q    Type
REMARK                         _______ _______ _______ _____ _____    ______ ____
ROOT
ATOM      2  O   UNL     1     -16.631   4.937  25.348  0.00  0.00    -0.369 OA
ATOM      3  O   UNL     1     -16.752   1.997  24.449  0.00  0.00    -0.368 OA
ATOM     11  C   UNL     1     -15.822   2.707  25.295  0.00  0.00    +0.171 C 
ATOM     12  C   UNL     1     -15.661   4.094  24.705  0.00  0.00    +0.191 C 
ATOM     13  C   UNL     1     -16.443   2.955  26.647  0.00  0.00    +0.133 C 
ATOM     14  C   UNL     1     -15.991   3.871  23.248  0.00  0.00    +0.235 C 
ATOM     15  C   UNL     1     -17.260   4.211  26.416  0.00  0.00    +0.183 C 
ATOM     16  C   UNL     1     -17.080   2.826  23.325  0.00  0.00    +0.207 C 
ENDROOT
BRANCH  13   9
ATOM      9  N   UNL     1     -15.384   3.223  27.650  0.00  0.00    -0.187 NA
ATOM     28  H   UNL     1     -14.410   3.103  27.346  0.00  0.00    +0.148 HD
BRANCH   9   1
ATOM      1  S   UNL     1     -15.761   3.077  29.303  0.00  0.00    +0.030 S 
ATOM      5  O   UNL     1     -17.031   2.397  29.464  0.00  0.00    -0.158 OA
ATOM      6  O   UNL     1     -15.520   4.358  29.938  0.00  0.00    -0.158 OA
BRANCH   1  17
ATOM     17  C   UNL     1     -14.476   1.970  29.836  0.00  0.00    +0.185 C 
BRANCH  17  19
ATOM     19  C   UNL     1     -14.899   0.518  29.690  0.00  0.00    +0.021 C 
ATOM     20  C   UNL     1     -13.710  -0.422  29.789  0.00  0.00    +0.005 C 
ENDBRANCH  17  19
ENDBRANCH   1  17
ENDBRANCH   9   1
ENDBRANCH  13   9
BRANCH  14   4
ATOM      4  O   UNL     1     -16.420   5.038  22.584  0.00  0.00    -0.442 OA
BRANCH   4  18
ATOM      7  O   UNL     1     -15.972   5.021  20.341  0.00  0.00    -0.226 OA
ATOM     10  N   UNL     1     -14.696   6.287  21.842  0.00  0.00    -0.251 N 
ATOM     18  C   UNL     1     -15.705   5.421  21.469  0.00  0.00    +0.405 C 
ATOM     29  H   UNL     1     -14.632   6.504  22.833  0.00  0.00    +0.158 HD
BRANCH  10  21
ATOM     21  C   UNL     1     -13.736   6.913  21.013  0.00  0.00    +0.037 A 
ATOM     22  C   UNL     1     -12.394   6.540  21.096  0.00  0.00    +0.027 A 
ATOM     23  C   UNL     1     -14.130   7.901  20.112  0.00  0.00    +0.027 A 
ATOM     24  C   UNL     1     -11.447   7.156  20.278  0.00  0.00    +0.047 A 
ATOM     25  C   UNL     1     -13.183   8.518  19.294  0.00  0.00    +0.047 A 
ATOM     26  C   UNL     1     -11.841   8.145  19.377  0.00  0.00    +0.120 A 
BRANCH  26   8
ATOM      8  O   UNL     1     -10.918   8.744  18.578  0.00  0.00    -0.495 OA
ATOM     27  C   UNL     1     -10.387   9.992  19.022  0.00  0.00    +0.277 C 
ENDBRANCH  26   8
ENDBRANCH  10  21
ENDBRANCH   4  18
ENDBRANCH  14   4
TORSDOF 8
ENDMDL
MODEL 3
REMARK VINA RESULT:      -6.3      3.314     10.112
REMARK  Name = 11884081
REMARK  10 active torsions:
REMARK  status: ('A' for Active; 'I' for Inactive)
REMARK    1  A    between atoms: S_1  and  N_9
REMARK    2  A    between atoms: S_1  and  C_17
REMARK    3  A    between atoms: O_4  and  C_14
REMARK    4  A    between atoms: O_4  and  C_18
REMARK    5  A    between atoms: O_8  and  C_26
REMARK    6  A    between atoms: O_8  and  C_27
REMARK    7  A    between atoms: N_9  and  C_13
REMARK    8  A    between atoms: N_10  and  C_21
REMARK    9  A    between atoms: C_17  and  C_19
REMARK   10  A    between atoms: C_19  and  C_20
REMARK                            x       y       z     vdW  Elec       q    Type
REMARK                         _______ _______ _______ _____ _____    ______ ____
ROOT
ATOM      2  O   UNL     1      21.821   7.128  20.462  0.00  0.00    -0.369 OA
ATOM      3  O   UNL     1      20.984   5.470  22.914  0.00  0.00    -0.368 OA
ATOM     11  C   UNL     1      21.314   5.088  21.562  0.00  0.00    +0.171 C 
ATOM     12  C   UNL     1      20.767   6.171  20.653  0.00  0.00    +0.191 C 
ATOM     13  C   UNL     1      22.807   5.159  21.357  0.00  0.00    +0.133 C 
ATOM     14  C   UNL     1      19.633   6.743  21.470  0.00  0.00    +0.235 C 
ATOM     15  C   UNL     1      23.033   6.626  21.045  0.00  0.00    +0.183 C 
ATOM     16  C   UNL     1      20.178   6.657  22.877  0.00  0.00    +0.207 C 
ENDROOT
BRANCH  13   9
ATOM      9  N   UNL     1      23.198   4.332  20.190  0.00  0.00    -0.187 NA
ATOM     28  H   UNL     1      22.465   4.111  19.505  0.00  0.00    +0.148 HD
BRANCH   9   1
ATOM      1  S   UNL     1      24.540   3.295  20.330  0.00  0.00    +0.030 S 
ATOM      5  O   UNL     1      25.418   3.759  21.387  0.00  0.00    -0.158 OA
ATOM      6  O   UNL     1      25.054   3.037  18.999  0.00  0.00    -0.158 OA
BRANCH   1  17
ATOM     17  C   UNL     1      23.748   1.805  20.892  0.00  0.00    +0.185 C 
BRANCH  17  19
ATOM     19  C   UNL     1      24.701   0.942  21.702  0.00  0.00    +0.021 C 
ATOM     20  C   UNL     1      24.309   0.906  23.169  0.00  0.00    +0.005 C 
ENDBRANCH  17  19
ENDBRANCH   1  17
ENDBRANCH   9   1
ENDBRANCH  13   9
BRANCH  14   4
ATOM      4  O   UNL     1      19.292   8.063  21.112  0.00  0.00    -0.442 OA
BRANCH   4  18
ATOM      7  O   UNL     1      17.559   9.438  21.692  0.00  0.00    -0.226 OA
ATOM     10  N   UNL     1      17.201   7.412  20.574  0.00  0.00    -0.251 N 
ATOM     18  C   UNL     1      17.956   8.402  21.173  0.00  0.00    +0.405 C 
ATOM     29  H   UNL     1      17.714   6.621  20.196  0.00  0.00    +0.158 HD
BRANCH  10  21
ATOM     21  C   UNL     1      15.796   7.363  20.421  0.00  0.00    +0.037 A 
ATOM     22  C   UNL     1      15.234   7.340  19.145  0.00  0.00    +0.027 A 
ATOM     23  C   UNL     1      14.972   7.335  21.546  0.00  0.00    +0.027 A 
ATOM     24  C   UNL     1      13.848   7.290  18.993  0.00  0.00    +0.047 A 
ATOM     25  C   UNL     1      13.586   7.286  21.395  0.00  0.00    +0.047 A 
ATOM     26  C   UNL     1      13.024   7.263  20.119  0.00  0.00    +0.120 A 
BRANCH  26   8
ATOM      8  O   UNL     1      11.673   7.212  19.971  0.00  0.00    -0.495 OA
ATOM     27  C   UNL     1      10.963   8.447  20.053  0.00  0.00    +0.277 C 
ENDBRANCH  26   8
ENDBRANCH  10  21
ENDBRANCH   4  18
ENDBRANCH  14   4
TORSDOF 8
ENDMDL
MODEL 4
REMARK VINA RESULT:      -6.2      1.944      3.004
REMARK  Name = 11884081
REMARK  10 active torsions:
REMARK  status: ('A' for Active; 'I' for Inactive)
REMARK    1  A    between atoms: S_1  and  N_9
REMARK    2  A    between atoms: S_1  and  C_17
REMARK    3  A    between atoms: O_4  and  C_14
REMARK    4  A    between atoms: O_4  and  C_18
REMARK    5  A    between atoms: O_8  and  C_26
REMARK    6  A    between atoms: O_8  and  C_27
REMARK    7  A    between atoms: N_9  and  C_13
REMARK    8  A    between atoms: N_10  and  C_21
REMARK    9  A    between atoms: C_17  and  C_19
REMARK   10  A    between atoms: C_19  and  C_20
REMARK                            x       y       z     vdW  Elec       q    Type
REMARK                         _______ _______ _______ _____ _____    ______ ____
ROOT
ATOM      2  O   UNL     1      15.213   6.301  20.852  0.00  0.00    -0.369 OA
ATOM      3  O   UNL     1      15.865   9.262  20.326  0.00  0.00    -0.368 OA
ATOM     11  C   UNL     1      15.275   8.243  19.490  0.00  0.00    +0.171 C 
ATOM     12  C   UNL     1      15.980   6.942  19.819  0.00  0.00    +0.191 C 
ATOM     13  C   UNL     1      13.846   8.000  19.907  0.00  0.00    +0.133 C 
ATOM     14  C   UNL     1      17.321   7.414  20.327  0.00  0.00    +0.235 C 
ATOM     15  C   UNL     1      13.993   7.029  21.062  0.00  0.00    +0.183 C 
ATOM     16  C   UNL     1      16.954   8.685  21.060  0.00  0.00    +0.207 C 
ENDROOT
BRANCH  13   9
ATOM      9  N   UNL     1      13.099   7.354  18.801  0.00  0.00    -0.187 NA
ATOM     28  H   UNL     1      13.612   6.681  18.219  0.00  0.00    +0.148 HD
BRANCH   9   1
ATOM      1  S   UNL     1      11.744   8.151  18.148  0.00  0.00    +0.030 S 
ATOM      5  O   UNL     1      10.839   8.544  19.211  0.00  0.00    -0.158 OA
ATOM      6  O   UNL     1      11.268   7.381  17.015  0.00  0.00    -0.158 OA
BRANCH   1  17
ATOM     17  C   UNL     1      12.507   9.623  17.506  0.00  0.00    +0.185 C 
BRANCH  17  19
ATOM     19  C   UNL     1      12.750   9.514  16.009  0.00  0.00    +0.021 C 
ATOM     20  C   UNL     1      14.154   9.019  15.708  0.00  0.00    +0.005 C 
ENDBRANCH  17  19
ENDBRANCH   1  17
ENDBRANCH   9   1
ENDBRANCH  13   9
BRANCH  14   4
ATOM      4  O   UNL     1      17.963   6.482  21.168  0.00  0.00    -0.442 OA
BRANCH   4  18
ATOM      7  O   UNL     1      18.880   5.066  19.624  0.00  0.00    -0.226 OA
ATOM     10  N   UNL     1      20.151   5.974  21.368  0.00  0.00    -0.251 N 
ATOM     18  C   UNL     1      19.007   5.765  20.622  0.00  0.00    +0.405 C 
ATOM     29  H   UNL     1      20.059   6.594  22.168  0.00  0.00    +0.158 HD
BRANCH  10  21
ATOM     21  C   UNL     1      21.439   5.431  21.156  0.00  0.00    +0.037 A 
ATOM     22  C   UNL     1      21.678   4.081  21.416  0.00  0.00    +0.027 A 
ATOM     23  C   UNL     1      22.471   6.244  20.686  0.00  0.00    +0.027 A 
ATOM     24  C   UNL     1      22.949   3.544  21.205  0.00  0.00    +0.047 A 
ATOM     25  C   UNL     1      23.741   5.707  20.477  0.00  0.00    +0.047 A 
ATOM     26  C   UNL     1      23.980   4.357  20.736  0.00  0.00    +0.120 A 
BRANCH  26   8
ATOM      8  O   UNL     1      25.218   3.833  20.529  0.00  0.00    -0.495 OA
ATOM     27  C   UNL     1      25.436   3.150  19.296  0.00  0.00    +0.277 C 
ENDBRANCH  26   8
ENDBRANCH  10  21
ENDBRANCH   4  18
ENDBRANCH  14   4
TORSDOF 8
ENDMDL
MODEL 5
REMARK VINA RESULT:      -5.9     29.554     33.141
REMARK  Name = 11884081
REMARK  10 active torsions:
REMARK  status: ('A' for Active; 'I' for Inactive)
REMARK    1  A    between atoms: S_1  and  N_9
REMARK    2  A    between atoms: S_1  and  C_17
REMARK    3  A    between atoms: O_4  and  C_14
REMARK    4  A    between atoms: O_4  and  C_18
REMARK    5  A    between atoms: O_8  and  C_26
REMARK    6  A    between atoms: O_8  and  C_27
REMARK    7  A    between atoms: N_9  and  C_13
REMARK    8  A    between atoms: N_10  and  C_21
REMARK    9  A    between atoms: C_17  and  C_19
REMARK   10  A    between atoms: C_19  and  C_20
REMARK                            x       y       z     vdW  Elec       q    Type
REMARK                         _______ _______ _______ _____ _____    ______ ____
ROOT
ATOM      2  O   UNL     1     -10.882  -8.452  17.807  0.00  0.00    -0.369 OA
ATOM      3  O   UNL     1      -9.666  -9.039  15.043  0.00  0.00    -0.368 OA
ATOM     11  C   UNL     1      -9.058  -8.731  16.315  0.00  0.00    +0.171 C 
ATOM     12  C   UNL     1      -9.954  -7.714  16.995  0.00  0.00    +0.191 C 
ATOM     13  C   UNL     1      -9.120  -9.936  17.221  0.00  0.00    +0.133 C 
ATOM     14  C   UNL     1     -10.639  -7.046  15.827  0.00  0.00    +0.235 C 
ATOM     15  C   UNL     1     -10.513  -9.840  17.812  0.00  0.00    +0.183 C 
ATOM     16  C   UNL     1     -10.812  -8.195  14.860  0.00  0.00    +0.207 C 
ENDROOT
BRANCH  13   9
ATOM      9  N   UNL     1      -8.108  -9.813  18.297  0.00  0.00    -0.187 NA
ATOM     28  H   UNL     1      -7.704  -8.882  18.457  0.00  0.00    +0.148 HD
BRANCH   9   1
ATOM      1  S   UNL     1      -7.218 -11.191  18.750  0.00  0.00    +0.030 S 
ATOM      5  O   UNL     1      -7.196 -12.148  17.660  0.00  0.00    -0.158 OA
ATOM      6  O   UNL     1      -7.644 -11.590  20.077  0.00  0.00    -0.158 OA
BRANCH   1  17
ATOM     17  C   UNL     1      -5.589 -10.496  18.902  0.00  0.00    +0.185 C 
BRANCH  17  19
ATOM     19  C   UNL     1      -4.541 -11.397  18.270  0.00  0.00    +0.021 C 
ATOM     20  C   UNL     1      -3.797 -12.205  19.319  0.00  0.00    +0.005 C 
ENDBRANCH  17  19
ENDBRANCH   1  17
ENDBRANCH   9   1
ENDBRANCH  13   9
BRANCH  14   4
ATOM      4  O   UNL     1     -11.869  -6.446  16.165  0.00  0.00    -0.442 OA
BRANCH   4  18
ATOM      7  O   UNL     1     -13.737  -6.833  14.903  0.00  0.00    -0.226 OA
ATOM     10  N   UNL     1     -12.281  -5.060  14.435  0.00  0.00    -0.251 N 
ATOM     18  C   UNL     1     -12.733  -6.166  15.127  0.00  0.00    +0.405 C 
ATOM     29  H   UNL     1     -11.422  -4.637  14.774  0.00  0.00    +0.158 HD
BRANCH  10  21
ATOM     21  C   UNL     1     -12.867  -4.440  13.307  0.00  0.00    +0.037 A 
ATOM     22  C   UNL     1     -12.103  -4.210  12.162  0.00  0.00    +0.027 A 
ATOM     23  C   UNL     1     -14.209  -4.061  13.337  0.00  0.00    +0.027 A 
ATOM     24  C   UNL     1     -12.681  -3.600  11.049  0.00  0.00    +0.047 A 
ATOM     25  C   UNL     1     -14.786  -3.451  12.224  0.00  0.00    +0.047 A 
ATOM     26  C   UNL     1     -14.023  -3.220  11.080  0.00  0.00    +0.120 A 
BRANCH  26   8
ATOM      8  O   UNL     1     -14.587  -2.627   9.993  0.00  0.00    -0.495 OA
ATOM     27  C   UNL     1     -15.764  -1.851  10.215  0.00  0.00    +0.277 C 
ENDBRANCH  26   8
ENDBRANCH  10  21
ENDBRANCH   4  18
ENDBRANCH  14   4
TORSDOF 8
ENDMDL
MODEL 6
REMARK VINA RESULT:      -5.8     27.081     29.581
REMARK  Name = 11884081
REMARK  10 active torsions:
REMARK  status: ('A' for Active; 'I' for Inactive)
REMARK    1  A    between atoms: S_1  and  N_9
REMARK    2  A    between atoms: S_1  and  C_17
REMARK    3  A    between atoms: O_4  and  C_14
REMARK    4  A    between atoms: O_4  and  C_18
REMARK    5  A    between atoms: O_8  and  C_26
REMARK    6  A    between atoms: O_8  and  C_27
REMARK    7  A    between atoms: N_9  and  C_13
REMARK    8  A    between atoms: N_10  and  C_21
REMARK    9  A    between atoms: C_17  and  C_19
REMARK   10  A    between atoms: C_19  and  C_20
REMARK                            x       y       z     vdW  Elec       q    Type
REMARK                         _______ _______ _______ _____ _____    ______ ____
ROOT
ATOM      2  O   UNL     1      -4.039 -12.111  14.601  0.00  0.00    -0.369 OA
ATOM      3  O   UNL     1      -2.098 -10.801  16.597  0.00  0.00    -0.368 OA
ATOM     11  C   UNL     1      -3.452 -10.476  16.218  0.00  0.00    +0.171 C 
ATOM     12  C   UNL     1      -3.573 -10.758  14.733  0.00  0.00    +0.191 C 
ATOM     13  C   UNL     1      -4.412 -11.452  16.854  0.00  0.00    +0.133 C 
ATOM     14  C   UNL     1      -2.150 -10.605  14.253  0.00  0.00    +0.235 C 
ATOM     15  C   UNL     1      -4.379 -12.627  15.897  0.00  0.00    +0.183 C 
ATOM     16  C   UNL     1      -1.360 -11.156  15.418  0.00  0.00    +0.207 C 
ENDROOT
BRANCH  13   9
ATOM      9  N   UNL     1      -5.776 -10.871  16.888  0.00  0.00    -0.187 NA
ATOM     28  H   UNL     1      -5.949 -10.047  16.300  0.00  0.00    +0.148 HD
BRANCH   9   1
ATOM      1  S   UNL     1      -6.743 -11.124  18.266  0.00  0.00    +0.030 S 
ATOM      5  O   UNL     1      -6.297 -10.269  19.349  0.00  0.00    -0.158 OA
ATOM      6  O   UNL     1      -6.890 -12.553  18.460  0.00  0.00    -0.158 OA
BRANCH   1  17
ATOM     17  C   UNL     1      -8.306 -10.504  17.688  0.00  0.00    +0.185 C 
BRANCH  17  19
ATOM     19  C   UNL     1      -8.156  -9.132  17.050  0.00  0.00    +0.021 C 
ATOM     20  C   UNL     1      -9.412  -8.296  17.227  0.00  0.00    +0.005 C 
ENDBRANCH  17  19
ENDBRANCH   1  17
ENDBRANCH   9   1
ENDBRANCH  13   9
BRANCH  14   4
ATOM      4  O   UNL     1      -1.884 -11.299  13.055  0.00  0.00    -0.442 OA
BRANCH   4  18
ATOM      7  O   UNL     1      -1.477  -9.726  11.445  0.00  0.00    -0.226 OA
ATOM     10  N   UNL     1      -3.307 -11.180  11.310  0.00  0.00    -0.251 N 
ATOM     18  C   UNL     1      -2.168 -10.642  11.876  0.00  0.00    +0.405 C 
ATOM     29  H   UNL     1      -3.745 -11.943  11.819  0.00  0.00    +0.158 HD
BRANCH  10  21
ATOM     21  C   UNL     1      -3.942 -10.801  10.104  0.00  0.00    +0.037 A 
ATOM     22  C   UNL     1      -4.099 -11.731   9.077  0.00  0.00    +0.027 A 
ATOM     23  C   UNL     1      -4.412  -9.498   9.944  0.00  0.00    +0.027 A 
ATOM     24  C   UNL     1      -4.728 -11.358   7.888  0.00  0.00    +0.047 A 
ATOM     25  C   UNL     1      -5.040  -9.125   8.755  0.00  0.00    +0.047 A 
ATOM     26  C   UNL     1      -5.197 -10.055   7.727  0.00  0.00    +0.120 A 
BRANCH  26   8
ATOM      8  O   UNL     1      -5.811  -9.692   6.569  0.00  0.00    -0.495 OA
ATOM     27  C   UNL     1      -5.945 -10.695   5.563  0.00  0.00    +0.277 C 
ENDBRANCH  26   8
ENDBRANCH  10  21
ENDBRANCH   4  18
ENDBRANCH  14   4
TORSDOF 8
ENDMDL
MODEL 7
REMARK VINA RESULT:      -5.8     27.862     29.881
REMARK  Name = 11884081
REMARK  10 active torsions:
REMARK  status: ('A' for Active; 'I' for Inactive)
REMARK    1  A    between atoms: S_1  and  N_9
REMARK    2  A    between atoms: S_1  and  C_17
REMARK    3  A    between atoms: O_4  and  C_14
REMARK    4  A    between atoms: O_4  and  C_18
REMARK    5  A    between atoms: O_8  and  C_26
REMARK    6  A    between atoms: O_8  and  C_27
REMARK    7  A    between atoms: N_9  and  C_13
REMARK    8  A    between atoms: N_10  and  C_21
REMARK    9  A    between atoms: C_17  and  C_19
REMARK   10  A    between atoms: C_19  and  C_20
REMARK                            x       y       z     vdW  Elec       q    Type
REMARK                         _______ _______ _______ _____ _____    ______ ____
ROOT
ATOM      2  O   UNL     1      -6.918 -11.989  17.488  0.00  0.00    -0.369 OA
ATOM      3  O   UNL     1      -5.999 -11.122  20.293  0.00  0.00    -0.368 OA
ATOM     11  C   UNL     1      -6.853 -10.483  19.320  0.00  0.00    +0.171 C 
ATOM     12  C   UNL     1      -6.272 -10.794  17.955  0.00  0.00    +0.191 C 
ATOM     13  C   UNL     1      -8.205 -11.153  19.303  0.00  0.00    +0.133 C 
ATOM     14  C   UNL     1      -4.813 -11.029  18.264  0.00  0.00    +0.235 C 
ATOM     15  C   UNL     1      -7.979 -12.342  18.390  0.00  0.00    +0.183 C 
ATOM     16  C   UNL     1      -4.879 -11.708  19.614  0.00  0.00    +0.207 C 
ENDROOT
BRANCH  13   9
ATOM      9  N   UNL     1      -9.212 -10.244  18.704  0.00  0.00    -0.187 NA
ATOM     28  H   UNL     1      -8.873  -9.348  18.335  0.00  0.00    +0.148 HD
BRANCH   9   1
ATOM      1  S   UNL     1     -10.836 -10.377  19.197  0.00  0.00    +0.030 S 
ATOM      5  O   UNL     1     -10.984  -9.883  20.553  0.00  0.00    -0.158 OA
ATOM      6  O   UNL     1     -11.314 -11.696  18.833  0.00  0.00    -0.158 OA
BRANCH   1  17
ATOM     17  C   UNL     1     -11.609  -9.210  18.101  0.00  0.00    +0.185 C 
BRANCH  17  19
ATOM     19  C   UNL     1     -10.660  -8.775  16.997  0.00  0.00    +0.021 C 
ATOM     20  C   UNL     1     -10.603  -7.262  16.875  0.00  0.00    +0.005 C 
ENDBRANCH  17  19
ENDBRANCH   1  17
ENDBRANCH   9   1
ENDBRANCH  13   9
BRANCH  14   4
ATOM      4  O   UNL     1      -4.156 -11.823  17.302  0.00  0.00    -0.442 OA
BRANCH   4  18
ATOM      7  O   UNL     1      -2.501 -10.504  16.434  0.00  0.00    -0.226 OA
ATOM     10  N   UNL     1      -4.219 -11.364  15.096  0.00  0.00    -0.251 N 
ATOM     18  C   UNL     1      -3.524 -11.159  16.271  0.00  0.00    +0.405 C 
ATOM     29  H   UNL     1      -5.052 -11.943  15.160  0.00  0.00    +0.158 HD
BRANCH  10  21
ATOM     21  C   UNL     1      -3.917 -10.865  13.808  0.00  0.00    +0.037 A 
ATOM     22  C   UNL     1      -2.600 -10.873  13.348  0.00  0.00    +0.027 A 
ATOM     23  C   UNL     1      -4.935 -10.365  12.996  0.00  0.00    +0.027 A 
ATOM     24  C   UNL     1      -2.301 -10.383  12.076  0.00  0.00    +0.047 A 
ATOM     25  C   UNL     1      -4.637  -9.874  11.725  0.00  0.00    +0.047 A 
ATOM     26  C   UNL     1      -3.320  -9.883  11.266  0.00  0.00    +0.120 A 
BRANCH  26   8
ATOM      8  O   UNL     1      -3.029  -9.406  10.025  0.00  0.00    -0.495 OA
ATOM     27  C   UNL     1      -4.112  -8.875   9.263  0.00  0.00    +0.277 C 
ENDBRANCH  26   8
ENDBRANCH  10  21
ENDBRANCH   4  18
ENDBRANCH  14   4
TORSDOF 8
ENDMDL
MODEL 8
REMARK VINA RESULT:      -5.8     27.649     31.473
REMARK  Name = 11884081
REMARK  10 active torsions:
REMARK  status: ('A' for Active; 'I' for Inactive)
REMARK    1  A    between atoms: S_1  and  N_9
REMARK    2  A    between atoms: S_1  and  C_17
REMARK    3  A    between atoms: O_4  and  C_14
REMARK    4  A    between atoms: O_4  and  C_18
REMARK    5  A    between atoms: O_8  and  C_26
REMARK    6  A    between atoms: O_8  and  C_27
REMARK    7  A    between atoms: N_9  and  C_13
REMARK    8  A    between atoms: N_10  and  C_21
REMARK    9  A    between atoms: C_17  and  C_19
REMARK   10  A    between atoms: C_19  and  C_20
REMARK                            x       y       z     vdW  Elec       q    Type
REMARK                         _______ _______ _______ _____ _____    ______ ____
ROOT
ATOM      2  O   UNL     1     -12.699  -8.180  14.866  0.00  0.00    -0.369 OA
ATOM      3  O   UNL     1     -11.365  -5.739  16.180  0.00  0.00    -0.368 OA
ATOM     11  C   UNL     1     -11.636  -6.060  14.799  0.00  0.00    +0.171 C 
ATOM     12  C   UNL     1     -11.425  -7.553  14.645  0.00  0.00    +0.191 C 
ATOM     13  C   UNL     1     -13.102  -5.866  14.504  0.00  0.00    +0.133 C 
ATOM     14  C   UNL     1     -10.448  -7.863  15.754  0.00  0.00    +0.235 C 
ATOM     15  C   UNL     1     -13.715  -7.171  14.973  0.00  0.00    +0.183 C 
ATOM     16  C   UNL     1     -10.898  -6.920  16.847  0.00  0.00    +0.207 C 
ENDROOT
BRANCH  13   9
ATOM      9  N   UNL     1     -13.309  -5.712  13.044  0.00  0.00    -0.187 NA
ATOM     28  H   UNL     1     -12.587  -6.099  12.425  0.00  0.00    +0.148 HD
BRANCH   9   1
ATOM      1  S   UNL     1     -14.285  -4.435  12.481  0.00  0.00    +0.030 S 
ATOM      5  O   UNL     1     -14.011  -3.230  13.241  0.00  0.00    -0.158 OA
ATOM      6  O   UNL     1     -15.640  -4.930  12.338  0.00  0.00    -0.158 OA
BRANCH   1  17
ATOM     17  C   UNL     1     -13.624  -4.213  10.845  0.00  0.00    +0.185 C 
BRANCH  17  19
ATOM     19  C   UNL     1     -12.239  -3.590  10.887  0.00  0.00    +0.021 C 
ATOM     20  C   UNL     1     -11.359  -4.112   9.764  0.00  0.00    +0.005 C 
ENDBRANCH  17  19
ENDBRANCH   1  17
ENDBRANCH   9   1
ENDBRANCH  13   9
BRANCH  14   4
ATOM      4  O   UNL     1     -10.477  -9.210  16.169  0.00  0.00    -0.442 OA
BRANCH   4  18
ATOM      7  O   UNL     1      -9.277 -10.933  15.262  0.00  0.00    -0.226 OA
ATOM     10  N   UNL     1      -8.299  -9.388  16.725  0.00  0.00    -0.251 N 
ATOM     18  C   UNL     1      -9.324  -9.945  15.986  0.00  0.00    +0.405 C 
ATOM     29  H   UNL     1      -8.534  -8.562  17.268  0.00  0.00    +0.158 HD
BRANCH  10  21
ATOM     21  C   UNL     1      -6.959  -9.827  16.823  0.00  0.00    +0.037 A 
ATOM     22  C   UNL     1      -6.486 -10.365  18.020  0.00  0.00    +0.027 A 
ATOM     23  C   UNL     1      -6.109  -9.725  15.721  0.00  0.00    +0.027 A 
ATOM     24  C   UNL     1      -5.164 -10.799  18.116  0.00  0.00    +0.047 A 
ATOM     25  C   UNL     1      -4.787 -10.159  15.817  0.00  0.00    +0.047 A 
ATOM     26  C   UNL     1      -4.314 -10.696  17.015  0.00  0.00    +0.120 A 
BRANCH  26   8
ATOM      8  O   UNL     1      -3.026 -11.122  17.108  0.00  0.00    -0.495 OA
ATOM     27  C   UNL     1      -2.138 -10.738  16.059  0.00  0.00    +0.277 C 
ENDBRANCH  26   8
ENDBRANCH  10  21
ENDBRANCH   4  18
ENDBRANCH  14   4
TORSDOF 8
ENDMDL
MODEL 9
REMARK VINA RESULT:      -5.7     27.007     31.714
REMARK  Name = 11884081
REMARK  10 active torsions:
REMARK  status: ('A' for Active; 'I' for Inactive)
REMARK    1  A    between atoms: S_1  and  N_9
REMARK    2  A    between atoms: S_1  and  C_17
REMARK    3  A    between atoms: O_4  and  C_14
REMARK    4  A    between atoms: O_4  and  C_18
REMARK    5  A    between atoms: O_8  and  C_26
REMARK    6  A    between atoms: O_8  and  C_27
REMARK    7  A    between atoms: N_9  and  C_13
REMARK    8  A    between atoms: N_10  and  C_21
REMARK    9  A    between atoms: C_17  and  C_19
REMARK   10  A    between atoms: C_19  and  C_20
REMARK                            x       y       z     vdW  Elec       q    Type
REMARK                         _______ _______ _______ _____ _____    ______ ____
ROOT
ATOM      2  O   UNL     1      -5.536 -12.323  17.959  0.00  0.00    -0.369 OA
ATOM      3  O   UNL     1      -6.113  -9.604  16.643  0.00  0.00    -0.368 OA
ATOM     11  C   UNL     1      -4.887 -10.206  17.109  0.00  0.00    +0.171 C 
ATOM     12  C   UNL     1      -5.228 -10.980  18.367  0.00  0.00    +0.191 C 
ATOM     13  C   UNL     1      -4.434 -11.268  16.138  0.00  0.00    +0.133 C 
ATOM     14  C   UNL     1      -6.449 -10.255  18.878  0.00  0.00    +0.235 C 
ATOM     15  C   UNL     1      -5.241 -12.478  16.563  0.00  0.00    +0.183 C 
ATOM     16  C   UNL     1      -7.152  -9.872  17.595  0.00  0.00    +0.207 C 
ENDROOT
BRANCH  13   9
ATOM      9  N   UNL     1      -2.988 -11.540  16.323  0.00  0.00    -0.187 NA
ATOM     28  H   UNL     1      -2.631 -11.543  17.286  0.00  0.00    +0.148 HD
BRANCH   9   1
ATOM      1  S   UNL     1      -1.917 -11.200  15.044  0.00  0.00    +0.030 S 
ATOM      5  O   UNL     1      -1.367 -12.435  14.517  0.00  0.00    -0.158 OA
ATOM      6  O   UNL     1      -1.046 -10.117  15.457  0.00  0.00    -0.158 OA
BRANCH   1  17
ATOM     17  C   UNL     1      -3.045 -10.544  13.836  0.00  0.00    +0.185 C 
BRANCH  17  19
ATOM     19  C   UNL     1      -2.679 -10.999  12.432  0.00  0.00    +0.021 C 
ATOM     20  C   UNL     1      -1.714 -10.033  11.768  0.00  0.00    +0.005 C 
ENDBRANCH  17  19
ENDBRANCH   1  17
ENDBRANCH   9   1
ENDBRANCH  13   9
BRANCH  14   4
ATOM      4  O   UNL     1      -7.263 -11.046  19.714  0.00  0.00    -0.442 OA
BRANCH   4  18
ATOM      7  O   UNL     1      -8.877 -12.301  18.687  0.00  0.00    -0.226 OA
ATOM     10  N   UNL     1      -9.360 -10.220  19.645  0.00  0.00    -0.251 N 
ATOM     18  C   UNL     1      -8.554 -11.282  19.287  0.00  0.00    +0.405 C 
ATOM     29  H   UNL     1      -8.907  -9.459  20.144  0.00  0.00    +0.158 HD
BRANCH  10  21
ATOM     21  C   UNL     1     -10.744 -10.057  19.402  0.00  0.00    +0.037 A 
ATOM     22  C   UNL     1     -11.670 -10.387  20.392  0.00  0.00    +0.027 A 
ATOM     23  C   UNL     1     -11.183  -9.565  18.173  0.00  0.00    +0.027 A 
ATOM     24  C   UNL     1     -13.034 -10.225  20.153  0.00  0.00    +0.047 A 
ATOM     25  C   UNL     1     -12.548  -9.404  17.934  0.00  0.00    +0.047 A 
ATOM     26  C   UNL     1     -13.473  -9.734  18.924  0.00  0.00    +0.120 A 
BRANCH  26   8
ATOM      8  O   UNL     1     -14.804  -9.574  18.692  0.00  0.00    -0.495 OA
ATOM     27  C   UNL     1     -15.581  -8.995  19.739  0.00  0.00    +0.277 C 
ENDBRANCH  26   8
ENDBRANCH  10  21
ENDBRANCH   4  18
ENDBRANCH  14   4
TORSDOF 8
ENDMDL
MODEL 10
REMARK VINA RESULT:      -5.7      1.969      2.646
REMARK  Name = 11884081
REMARK  10 active torsions:
REMARK  status: ('A' for Active; 'I' for Inactive)
REMARK    1  A    between atoms: S_1  and  N_9
REMARK    2  A    between atoms: S_1  and  C_17
REMARK    3  A    between atoms: O_4  and  C_14
REMARK    4  A    between atoms: O_4  and  C_18
REMARK    5  A    between atoms: O_8  and  C_26
REMARK    6  A    between atoms: O_8  and  C_27
REMARK    7  A    between atoms: N_9  and  C_13
REMARK    8  A    between atoms: N_10  and  C_21
REMARK    9  A    between atoms: C_17  and  C_19
REMARK   10  A    between atoms: C_19  and  C_20
REMARK                            x       y       z     vdW  Elec       q    Type
REMARK                         _______ _______ _______ _____ _____    ______ ____
ROOT
ATOM      2  O   UNL     1      15.940   6.379  21.362  0.00  0.00    -0.369 OA
ATOM      3  O   UNL     1      16.767   9.249  20.626  0.00  0.00    -0.368 OA
ATOM     11  C   UNL     1      16.228   8.170  19.833  0.00  0.00    +0.171 C 
ATOM     12  C   UNL     1      16.839   6.888  20.363  0.00  0.00    +0.191 C 
ATOM     13  C   UNL     1      14.753   8.014  20.111  0.00  0.00    +0.133 C 
ATOM     14  C   UNL     1      18.136   7.367  20.968  0.00  0.00    +0.235 C 
ATOM     15  C   UNL     1      14.736   7.161  21.364  0.00  0.00    +0.183 C 
ATOM     16  C   UNL     1      17.746   8.716  21.529  0.00  0.00    +0.207 C 
ENDROOT
BRANCH  13   9
ATOM      9  N   UNL     1      14.103   7.283  18.997  0.00  0.00    -0.187 NA
ATOM     28  H   UNL     1      14.661   7.128  18.149  0.00  0.00    +0.148 HD
BRANCH   9   1
ATOM      1  S   UNL     1      12.405   7.306  18.879  0.00  0.00    +0.030 S 
ATOM      5  O   UNL     1      11.830   6.344  19.799  0.00  0.00    -0.158 OA
ATOM      6  O   UNL     1      12.048   7.293  17.474  0.00  0.00    -0.158 OA
BRANCH   1  17
ATOM     17  C   UNL     1      12.054   8.935  19.501  0.00  0.00    +0.185 C 
BRANCH  17  19
ATOM     19  C   UNL     1      11.137   8.880  20.711  0.00  0.00    +0.021 C 
ATOM     20  C   UNL     1      11.399  10.035  21.661  0.00  0.00    +0.005 C 
ENDBRANCH  17  19
ENDBRANCH   1  17
ENDBRANCH   9   1
ENDBRANCH  13   9
BRANCH  14   4
ATOM      4  O   UNL     1      18.645   6.506  21.961  0.00  0.00    -0.442 OA
BRANCH   4  18
ATOM      7  O   UNL     1      20.550   6.218  23.195  0.00  0.00    -0.226 OA
ATOM     10  N   UNL     1      20.628   6.788  20.926  0.00  0.00    -0.251 N 
ATOM     18  C   UNL     1      20.015   6.481  22.124  0.00  0.00    +0.405 C 
ATOM     29  H   UNL     1      20.012   6.977  20.140  0.00  0.00    +0.158 HD
BRANCH  10  21
ATOM     21  C   UNL     1      22.013   6.872  20.653  0.00  0.00    +0.037 A 
ATOM     22  C   UNL     1      22.575   8.088  20.263  0.00  0.00    +0.027 A 
ATOM     23  C   UNL     1      22.819   5.740  20.777  0.00  0.00    +0.027 A 
ATOM     24  C   UNL     1      23.942   8.172  19.996  0.00  0.00    +0.047 A 
ATOM     25  C   UNL     1      24.185   5.824  20.509  0.00  0.00    +0.047 A 
ATOM     26  C   UNL     1      24.746   7.040  20.119  0.00  0.00    +0.120 A 
BRANCH  26   8
ATOM      8  O   UNL     1      26.080   7.122  19.860  0.00  0.00    -0.495 OA
ATOM     27  C   UNL     1      26.595   6.278  18.831  0.00  0.00    +0.277 C 
ENDBRANCH  26   8
ENDBRANCH  10  21
ENDBRANCH   4  18
ENDBRANCH  14   4
TORSDOF 8
ENDMDL
