REMARK  Name = 75536530
REMARK  12 active torsions:
REMARK  status: ('A' for Active; 'I' for Inactive)
REMARK    1  A    between atoms: O_2  and  C_8
REMARK    2  A    between atoms: N_4  and  C_7
REMARK    3  A    between atoms: N_4  and  C_13
REMARK    4  A    between atoms: N_5  and  C_11
REMARK    5  A    between atoms: C_9  and  C_11
REMARK    6  A    between atoms: C_12  and  C_14
REMARK    7  A    between atoms: C_12  and  C_16
REMARK    8  A    between atoms: C_12  and  C_17
REMARK    9  A    between atoms: C_12  and  C_18
REMARK   10  A    between atoms: C_13  and  C_19
REMARK   11  A    between atoms: C_14  and  C_15
REMARK   12  A    between atoms: C_22  and  C_25
REMARK                            x       y       z     vdW  Elec       q    Type
REMARK                         _______ _______ _______ _____ _____    ______ ____
ROOT
ATOM      1  O   UNL     1       1.694   0.031   0.155  0.00  0.00    -0.371 OA
ATOM      7  C   UNL     1      -0.416  -1.053   0.279  0.00  0.00    +0.111 C 
ATOM      8  C   UNL     1       0.402  -1.689  -0.829  0.00  0.00    +0.164 C 
ATOM      9  C   UNL     1       1.812  -1.279  -0.425  0.00  0.00    +0.165 C 
ATOM     10  C   UNL     1       0.310   0.269   0.469  0.00  0.00    +0.181 C 
ENDROOT
BRANCH   8   2
ATOM      2  O   UNL     1       0.255  -3.095  -0.878  0.00  0.00    -0.388 OA
ATOM     28  H   UNL     1       0.494  -3.458  -0.008  0.00  0.00    +0.210 HD
ENDBRANCH   8   2
BRANCH   7   4
ATOM      4  N   UNL     1      -1.821  -0.883  -0.056  0.00  0.00    -0.305 NA
ATOM     26  H   UNL     1      -2.168  -1.744  -0.481  0.00  0.00    +0.123 HD
BRANCH   4  13
ATOM     13  C   UNL     1      -2.613  -0.592   1.133  0.00  0.00    +0.116 C 
BRANCH  13  19
ATOM     19  C   UNL     1      -4.069  -0.396   0.802  0.00  0.00    -0.032 A 
ATOM     20  C   UNL     1      -4.499   0.794   0.216  0.00  0.00    +0.023 A 
ATOM     21  C   UNL     1      -4.988  -1.408   1.080  0.00  0.00    +0.005 A 
ATOM     22  C   UNL     1      -5.848   0.973  -0.091  0.00  0.00    +0.052 A 
ATOM     23  C   UNL     1      -6.337  -1.229   0.773  0.00  0.00    +0.002 A 
ATOM     24  C   UNL     1      -6.767  -0.039   0.188  0.00  0.00    +0.019 A 
BRANCH  22  25
ATOM      6  N   UNL     1      -6.648   3.183  -1.179  0.00  0.00    -0.191 NA
ATOM     25  C   UNL     1      -6.289   2.192  -0.692  0.00  0.00    +0.099 C 
ENDBRANCH  22  25
ENDBRANCH  13  19
ENDBRANCH   4  13
ENDBRANCH   7   4
BRANCH   9  11
ATOM     11  C   UNL     1       2.783  -1.239  -1.591  0.00  0.00    +0.138 C 
BRANCH  11   5
ATOM      3  O   UNL     1       3.849   1.450  -1.447  0.00  0.00    -0.276 OA
ATOM      5  N   UNL     1       4.106  -0.842  -1.165  0.00  0.00    -0.313 N 
ATOM     15  C   UNL     1       4.528   0.476  -1.129  0.00  0.00    +0.214 C 
ATOM     27  H   UNL     1       4.742  -1.576  -0.871  0.00  0.00    +0.149 HD
BRANCH  15  14
ATOM     14  C   UNL     1       5.963   0.628  -0.652  0.00  0.00    +0.102 C 
BRANCH  14  12
ATOM     12  C   UNL     1       6.117   0.859   0.870  0.00  0.00    -0.029 C 
ATOM     16  C   UNL     1       5.379   2.163   1.232  0.00  0.00    +0.011 C 
ATOM     17  C   UNL     1       7.597   1.015   1.259  0.00  0.00    +0.011 C 
ATOM     18  C   UNL     1       5.498  -0.291   1.680  0.00  0.00    +0.011 C 
ENDBRANCH  14  12
ENDBRANCH  15  14
ENDBRANCH  11   5
ENDBRANCH   9  11
TORSDOF 9
