MODEL 1
REMARK VINA RESULT:      -6.7      0.000      0.000
REMARK  Name = 7127914
REMARK  11 active torsions:
REMARK  status: ('A' for Active; 'I' for Inactive)
REMARK    1  A    between atoms: S_1  and  C_27
REMARK    2  A    between atoms: S_1  and  C_29
REMARK    3  A    between atoms: O_2  and  C_14
REMARK    4  A    between atoms: O_3  and  C_15
REMARK    5  A    between atoms: N_9  and  C_13
REMARK    6  A    between atoms: N_11  and  C_25
REMARK    7  A    between atoms: C_16  and  C_23
REMARK    8  A    between atoms: C_21  and  C_24
REMARK    9  A    between atoms: C_25  and  C_26
REMARK   10  A    between atoms: C_25  and  C_28
REMARK   11  A    between atoms: C_26  and  C_27
REMARK                            x       y       z     vdW  Elec       q    Type
REMARK                         _______ _______ _______ _____ _____    ______ ____
ROOT
ATOM     13  C   UNL     1      20.735   6.354  21.755  0.00  0.00    +0.127 C 
ATOM     14  C   UNL     1      21.064   7.858  21.801  0.00  0.00    +0.167 C 
ATOM     15  C   UNL     1      19.812   8.701  22.071  0.00  0.00    +0.149 C 
ATOM     17  C   UNL     1      18.700   8.430  21.043  0.00  0.00    +0.074 C 
ATOM     20  C   UNL     1      19.489   6.042  20.969  0.00  0.00    +0.006 C 
ATOM     21  C   UNL     1      18.589   6.984  20.651  0.00  0.00    +0.015 C 
ENDROOT
BRANCH  13   9
ATOM      4  O   UNL     1      21.839   3.883  22.804  0.00  0.00    -0.274 OA
ATOM      9  N   UNL     1      21.830   5.585  21.215  0.00  0.00    -0.305 N 
ATOM     23  C   UNL     1      22.289   4.411  21.790  0.00  0.00    +0.231 C 
ATOM     30  H   UNL     1      22.300   5.942  20.388  0.00  0.00    +0.149 HD
BRANCH  23  16
ATOM     10  N   UNL     1      23.031   2.420  20.741  0.00  0.00    -0.306 NA
ATOM     16  C   UNL     1      23.413   3.804  21.018  0.00  0.00    +0.140 C 
ATOM     18  C   UNL     1      24.702   3.739  21.830  0.00  0.00    +0.029 C 
ATOM     19  C   UNL     1      24.971   2.253  22.006  0.00  0.00    +0.017 C 
ATOM     22  C   UNL     1      24.255   1.628  20.827  0.00  0.00    +0.081 C 
ATOM     31  H   UNL     1      22.603   2.334  19.821  0.00  0.00    +0.123 HD
ENDBRANCH  23  16
ENDBRANCH  13   9
BRANCH  21  24
ATOM      5  O   UNL     1      17.510   5.754  18.966  0.00  0.00    -0.271 OA
ATOM     11  N   UNL     1      16.244   7.172  20.315  0.00  0.00    -0.300 N 
ATOM     24  C   UNL     1      17.411   6.564  19.886  0.00  0.00    +0.241 C 
ATOM     34  H   UNL     1      16.259   7.844  21.074  0.00  0.00    +0.150 HD
BRANCH  11  25
ATOM     25  C   UNL     1      14.955   6.918  19.713  0.00  0.00    +0.160 C 
BRANCH  25  28
ATOM      8  O   UNL     1      14.794   9.196  18.885  0.00  0.00    -0.274 OA
ATOM     12  N   UNL     1      14.476   7.467  17.407  0.00  0.00    -0.328 N 
ATOM     28  C   UNL     1      14.724   7.990  18.658  0.00  0.00    +0.231 C 
ATOM     35  H   UNL     1      14.464   6.470  17.222  0.00  0.00    +0.145 HD
ATOM     36  H   UNL     1      14.316   8.077  16.611  0.00  0.00    +0.145 HD
ENDBRANCH  25  28
BRANCH  25  26
ATOM     26  C   UNL     1      13.825   6.930  20.747  0.00  0.00    +0.054 C 
BRANCH  26  27
ATOM     27  C   UNL     1      12.449   6.819  20.102  0.00  0.00    +0.168 C 
BRANCH  27   1
ATOM      1  S   UNL     1      11.407   8.160  20.582  0.00  0.00    -0.034 S 
ATOM      6  O   UNL     1      12.241   9.202  21.156  0.00  0.00    -0.175 OA
ATOM      7  O   UNL     1      10.509   8.456  19.479  0.00  0.00    -0.175 OA
ATOM     29  C   UNL     1      10.430   7.470  21.898  0.00  0.00    +0.194 C 
ENDBRANCH  27   1
ENDBRANCH  26  27
ENDBRANCH  25  26
ENDBRANCH  11  25
ENDBRANCH  21  24
BRANCH  14   2
ATOM      2  O   UNL     1      21.630   8.264  20.552  0.00  0.00    -0.387 OA
ATOM     32  H   UNL     1      21.843   7.473  20.031  0.00  0.00    +0.210 HD
ENDBRANCH  14   2
BRANCH  15   3
ATOM      3  O   UNL     1      19.329   8.454  23.391  0.00  0.00    -0.389 OA
ATOM     33  H   UNL     1      19.293   7.490  23.512  0.00  0.00    +0.210 HD
ENDBRANCH  15   3
TORSDOF 10
ENDMDL
MODEL 2
REMARK VINA RESULT:      -6.6     26.914     31.211
REMARK  Name = 7127914
REMARK  11 active torsions:
REMARK  status: ('A' for Active; 'I' for Inactive)
REMARK    1  A    between atoms: S_1  and  C_27
REMARK    2  A    between atoms: S_1  and  C_29
REMARK    3  A    between atoms: O_2  and  C_14
REMARK    4  A    between atoms: O_3  and  C_15
REMARK    5  A    between atoms: N_9  and  C_13
REMARK    6  A    between atoms: N_11  and  C_25
REMARK    7  A    between atoms: C_16  and  C_23
REMARK    8  A    between atoms: C_21  and  C_24
REMARK    9  A    between atoms: C_25  and  C_26
REMARK   10  A    between atoms: C_25  and  C_28
REMARK   11  A    between atoms: C_26  and  C_27
REMARK                            x       y       z     vdW  Elec       q    Type
REMARK                         _______ _______ _______ _____ _____    ______ ____
ROOT
ATOM     13  C   UNL     1      -7.637  -9.324  17.282  0.00  0.00    +0.127 C 
ATOM     14  C   UNL     1      -8.397 -10.261  18.240  0.00  0.00    +0.167 C 
ATOM     15  C   UNL     1      -7.434 -11.106  19.082  0.00  0.00    +0.149 C 
ATOM     17  C   UNL     1      -6.457 -11.913  18.209  0.00  0.00    +0.074 C 
ATOM     20  C   UNL     1      -6.486  -9.995  16.581  0.00  0.00    +0.006 C 
ATOM     21  C   UNL     1      -5.972 -11.159  17.003  0.00  0.00    +0.015 C 
ENDROOT
BRANCH  13   9
ATOM      4  O   UNL     1      -9.907  -7.574  17.741  0.00  0.00    -0.274 OA
ATOM      9  N   UNL     1      -8.515  -8.749  16.292  0.00  0.00    -0.305 N 
ATOM     23  C   UNL     1      -9.579  -7.920  16.609  0.00  0.00    +0.231 C 
ATOM     30  H   UNL     1      -8.356  -8.990  15.317  0.00  0.00    +0.149 HD
BRANCH  23  16
ATOM     10  N   UNL     1     -10.471  -5.999  15.548  0.00  0.00    -0.306 NA
ATOM     16  C   UNL     1     -10.308  -7.445  15.397  0.00  0.00    +0.140 C 
ATOM     18  C   UNL     1     -11.714  -8.027  15.303  0.00  0.00    +0.029 C 
ATOM     19  C   UNL     1     -12.638  -6.827  15.449  0.00  0.00    +0.017 C 
ATOM     22  C   UNL     1     -11.778  -5.669  14.987  0.00  0.00    +0.081 C 
ATOM     31  H   UNL     1      -9.728  -5.494  15.068  0.00  0.00    +0.123 HD
ENDBRANCH  23  16
ENDBRANCH  13   9
BRANCH  21  24
ATOM      5  O   UNL     1      -4.681 -12.934  16.168  0.00  0.00    -0.271 OA
ATOM     11  N   UNL     1      -4.055 -10.747  15.661  0.00  0.00    -0.300 N 
ATOM     24  C   UNL     1      -4.850 -11.719  16.244  0.00  0.00    +0.241 C 
ATOM     34  H   UNL     1      -4.262  -9.763  15.791  0.00  0.00    +0.150 HD
BRANCH  11  25
ATOM     25  C   UNL     1      -2.889 -11.055  14.865  0.00  0.00    +0.160 C 
BRANCH  25  28
ATOM      8  O   UNL     1      -0.998  -9.553  15.125  0.00  0.00    -0.274 OA
ATOM     12  N   UNL     1      -1.460 -11.037  16.815  0.00  0.00    -0.328 N 
ATOM     28  C   UNL     1      -1.680 -10.468  15.579  0.00  0.00    +0.231 C 
ATOM     35  H   UNL     1      -2.056 -11.763  17.200  0.00  0.00    +0.145 HD
ATOM     36  H   UNL     1      -0.690 -10.727  17.400  0.00  0.00    +0.145 HD
ENDBRANCH  25  28
BRANCH  25  26
ATOM     26  C   UNL     1      -2.998 -10.493  13.444  0.00  0.00    +0.054 C 
BRANCH  26  27
ATOM     27  C   UNL     1      -4.041 -11.225  12.610  0.00  0.00    +0.168 C 
BRANCH  27   1
ATOM      1  S   UNL     1      -5.345 -10.141  12.121  0.00  0.00    -0.034 S 
ATOM      6  O   UNL     1      -5.987  -9.631  13.320  0.00  0.00    -0.175 OA
ATOM      7  O   UNL     1      -4.825  -9.229  11.116  0.00  0.00    -0.175 OA
ATOM     29  C   UNL     1      -6.500 -11.226  11.313  0.00  0.00    +0.194 C 
ENDBRANCH  27   1
ENDBRANCH  26  27
ENDBRANCH  25  26
ENDBRANCH  11  25
ENDBRANCH  21  24
BRANCH  14   2
ATOM      2  O   UNL     1      -9.238 -11.138  17.486  0.00  0.00    -0.387 OA
ATOM     32  H   UNL     1      -8.961 -12.055  17.647  0.00  0.00    +0.210 HD
ENDBRANCH  14   2
BRANCH  15   3
ATOM      3  O   UNL     1      -6.708 -10.272  19.984  0.00  0.00    -0.389 OA
ATOM     33  H   UNL     1      -5.781 -10.566  19.972  0.00  0.00    +0.210 HD
ENDBRANCH  15   3
TORSDOF 10
ENDMDL
MODEL 3
REMARK VINA RESULT:      -6.3     15.701     18.418
REMARK  Name = 7127914
REMARK  11 active torsions:
REMARK  status: ('A' for Active; 'I' for Inactive)
REMARK    1  A    between atoms: S_1  and  C_27
REMARK    2  A    between atoms: S_1  and  C_29
REMARK    3  A    between atoms: O_2  and  C_14
REMARK    4  A    between atoms: O_3  and  C_15
REMARK    5  A    between atoms: N_9  and  C_13
REMARK    6  A    between atoms: N_11  and  C_25
REMARK    7  A    between atoms: C_16  and  C_23
REMARK    8  A    between atoms: C_21  and  C_24
REMARK    9  A    between atoms: C_25  and  C_26
REMARK   10  A    between atoms: C_25  and  C_28
REMARK   11  A    between atoms: C_26  and  C_27
REMARK                            x       y       z     vdW  Elec       q    Type
REMARK                         _______ _______ _______ _____ _____    ______ ____
ROOT
ATOM     13  C   UNL     1      11.382   6.892   6.893  0.00  0.00    +0.127 C 
ATOM     14  C   UNL     1      10.010   6.498   7.473  0.00  0.00    +0.167 C 
ATOM     15  C   UNL     1       9.653   5.046   7.138  0.00  0.00    +0.149 C 
ATOM     17  C   UNL     1       9.690   4.775   5.623  0.00  0.00    +0.074 C 
ATOM     20  C   UNL     1      11.587   6.422   5.478  0.00  0.00    +0.006 C 
ATOM     21  C   UNL     1      10.815   5.478   4.919  0.00  0.00    +0.015 C 
ENDROOT
BRANCH  13   9
ATOM      4  O   UNL     1      13.919   8.303   6.858  0.00  0.00    -0.274 OA
ATOM      9  N   UNL     1      11.592   8.319   6.945  0.00  0.00    -0.305 N 
ATOM     23  C   UNL     1      12.849   8.902   6.922  0.00  0.00    +0.231 C 
ATOM     30  H   UNL     1      10.776   8.918   7.027  0.00  0.00    +0.149 HD
BRANCH  23  16
ATOM     10  N   UNL     1      12.675  10.770   8.370  0.00  0.00    -0.306 NA
ATOM     16  C   UNL     1      12.782  10.393   6.961  0.00  0.00    +0.140 C 
ATOM     18  C   UNL     1      11.532  10.934   6.276  0.00  0.00    +0.029 C 
ATOM     19  C   UNL     1      10.733  11.586   7.393  0.00  0.00    +0.017 C 
ATOM     22  C   UNL     1      11.790  11.931   8.422  0.00  0.00    +0.081 C 
ATOM     31  H   UNL     1      13.589  10.988   8.763  0.00  0.00    +0.123 HD
ENDBRANCH  23  16
ENDBRANCH  13   9
BRANCH  21  24
ATOM      5  O   UNL     1      10.287   4.478   2.860  0.00  0.00    -0.271 OA
ATOM     11  N   UNL     1      12.364   5.503   3.117  0.00  0.00    -0.300 N 
ATOM     24  C   UNL     1      11.108   5.096   3.534  0.00  0.00    +0.241 C 
ATOM     34  H   UNL     1      12.985   5.996   3.749  0.00  0.00    +0.150 HD
BRANCH  11  25
ATOM     25  C   UNL     1      12.879   5.240   1.792  0.00  0.00    +0.160 C 
BRANCH  25  28
ATOM      8  O   UNL     1      13.275   2.851   1.598  0.00  0.00    -0.274 OA
ATOM     12  N   UNL     1      15.021   4.205   2.225  0.00  0.00    -0.328 N 
ATOM     28  C   UNL     1      13.710   3.968   1.868  0.00  0.00    +0.231 C 
ATOM     35  H   UNL     1      15.381   5.136   2.404  0.00  0.00    +0.145 HD
ATOM     36  H   UNL     1      15.684   3.440   2.302  0.00  0.00    +0.145 HD
ENDBRANCH  25  28
BRANCH  25  26
ATOM     26  C   UNL     1      13.724   6.402   1.263  0.00  0.00    +0.054 C 
BRANCH  26  27
ATOM     27  C   UNL     1      13.552   7.668   2.093  0.00  0.00    +0.168 C 
BRANCH  27   1
ATOM      1  S   UNL     1      14.957   7.955   3.122  0.00  0.00    -0.034 S 
ATOM      6  O   UNL     1      14.825   9.275   3.714  0.00  0.00    -0.175 OA
ATOM      7  O   UNL     1      15.154   6.785   3.960  0.00  0.00    -0.175 OA
ATOM     29  C   UNL     1      16.307   8.018   1.965  0.00  0.00    +0.194 C 
ENDBRANCH  27   1
ENDBRANCH  26  27
ENDBRANCH  25  26
ENDBRANCH  11  25
ENDBRANCH  21  24
BRANCH  14   2
ATOM      2  O   UNL     1       8.999   7.355   6.937  0.00  0.00    -0.387 OA
ATOM     32  H   UNL     1       8.797   8.048   7.586  0.00  0.00    +0.210 HD
ENDBRANCH  14   2
BRANCH  15   3
ATOM      3  O   UNL     1      10.538   4.153   7.814  0.00  0.00    -0.389 OA
ATOM     33  H   UNL     1      11.400   4.201   7.366  0.00  0.00    +0.210 HD
ENDBRANCH  15   3
TORSDOF 10
ENDMDL
MODEL 4
REMARK VINA RESULT:      -6.1      5.498      8.382
REMARK  Name = 7127914
REMARK  11 active torsions:
REMARK  status: ('A' for Active; 'I' for Inactive)
REMARK    1  A    between atoms: S_1  and  C_27
REMARK    2  A    between atoms: S_1  and  C_29
REMARK    3  A    between atoms: O_2  and  C_14
REMARK    4  A    between atoms: O_3  and  C_15
REMARK    5  A    between atoms: N_9  and  C_13
REMARK    6  A    between atoms: N_11  and  C_25
REMARK    7  A    between atoms: C_16  and  C_23
REMARK    8  A    between atoms: C_21  and  C_24
REMARK    9  A    between atoms: C_25  and  C_26
REMARK   10  A    between atoms: C_25  and  C_28
REMARK   11  A    between atoms: C_26  and  C_27
REMARK                            x       y       z     vdW  Elec       q    Type
REMARK                         _______ _______ _______ _____ _____    ______ ____
ROOT
ATOM     13  C   UNL     1      15.338  11.946  22.052  0.00  0.00    +0.127 C 
ATOM     14  C   UNL     1      16.795  12.158  22.505  0.00  0.00    +0.167 C 
ATOM     15  C   UNL     1      17.788  11.777  21.401  0.00  0.00    +0.149 C 
ATOM     17  C   UNL     1      17.587  10.331  20.915  0.00  0.00    +0.074 C 
ATOM     20  C   UNL     1      15.124  10.644  21.327  0.00  0.00    +0.006 C 
ATOM     21  C   UNL     1      16.142   9.927  20.829  0.00  0.00    +0.015 C 
ENDROOT
BRANCH  13   9
ATOM      4  O   UNL     1      13.956  14.295  23.051  0.00  0.00    -0.274 OA
ATOM      9  N   UNL     1      14.420  12.016  23.163  0.00  0.00    -0.305 N 
ATOM     23  C   UNL     1      13.806  13.190  23.568  0.00  0.00    +0.231 C 
ATOM     30  H   UNL     1      14.239  11.164  23.686  0.00  0.00    +0.149 HD
BRANCH  23  16
ATOM     10  N   UNL     1      12.540  11.558  24.730  0.00  0.00    -0.306 NA
ATOM     16  C   UNL     1      12.885  12.980  24.724  0.00  0.00    +0.140 C 
ATOM     18  C   UNL     1      11.573  13.739  24.564  0.00  0.00    +0.029 C 
ATOM     19  C   UNL     1      10.513  12.655  24.447  0.00  0.00    +0.017 C 
ATOM     22  C   UNL     1      11.145  11.474  25.152  0.00  0.00    +0.081 C 
ATOM     31  H   UNL     1      13.147  11.036  25.360  0.00  0.00    +0.123 HD
ENDBRANCH  23  16
ENDBRANCH  13   9
BRANCH  21  24
ATOM      5  O   UNL     1      16.654   7.787  20.007  0.00  0.00    -0.271 OA
ATOM     11  N   UNL     1      14.509   8.638  19.681  0.00  0.00    -0.300 N 
ATOM     24  C   UNL     1      15.815   8.676  20.139  0.00  0.00    +0.241 C 
ATOM     34  H   UNL     1      13.889   9.427  19.820  0.00  0.00    +0.150 HD
BRANCH  11  25
ATOM     25  C   UNL     1      13.955   7.509  18.969  0.00  0.00    +0.160 C 
BRANCH  25  28
ATOM      8  O   UNL     1      13.604   7.478  16.565  0.00  0.00    -0.274 OA
ATOM     12  N   UNL     1      12.622   9.150  17.796  0.00  0.00    -0.328 N 
ATOM     28  C   UNL     1      13.407   8.026  17.647  0.00  0.00    +0.231 C 
ATOM     35  H   UNL     1      12.430   9.569  18.699  0.00  0.00    +0.145 HD
ATOM     36  H   UNL     1      12.186   9.589  16.991  0.00  0.00    +0.145 HD
ENDBRANCH  25  28
BRANCH  25  26
ATOM     26  C   UNL     1      12.853   6.808  19.769  0.00  0.00    +0.054 C 
BRANCH  26  27
ATOM     27  C   UNL     1      12.604   7.474  21.117  0.00  0.00    +0.168 C 
BRANCH  27   1
ATOM      1  S   UNL     1      11.033   8.277  21.154  0.00  0.00    -0.034 S 
ATOM      6  O   UNL     1      10.529   8.353  19.794  0.00  0.00    -0.175 OA
ATOM      7  O   UNL     1      10.236   7.668  22.205  0.00  0.00    -0.175 OA
ATOM     29  C   UNL     1      11.430   9.931  21.673  0.00  0.00    +0.194 C 
ENDBRANCH  27   1
ENDBRANCH  26  27
ENDBRANCH  25  26
ENDBRANCH  11  25
ENDBRANCH  21  24
BRANCH  14   2
ATOM      2  O   UNL     1      17.061  11.357  23.659  0.00  0.00    -0.387 OA
ATOM     32  H   UNL     1      17.810  10.769  23.468  0.00  0.00    +0.210 HD
ENDBRANCH  14   2
BRANCH  15   3
ATOM      3  O   UNL     1      17.675  12.682  20.304  0.00  0.00    -0.389 OA
ATOM     33  H   UNL     1      16.887  12.425  19.795  0.00  0.00    +0.210 HD
ENDBRANCH  15   3
TORSDOF 10
ENDMDL
MODEL 5
REMARK VINA RESULT:      -6.1     15.660     19.220
REMARK  Name = 7127914
REMARK  11 active torsions:
REMARK  status: ('A' for Active; 'I' for Inactive)
REMARK    1  A    between atoms: S_1  and  C_27
REMARK    2  A    between atoms: S_1  and  C_29
REMARK    3  A    between atoms: O_2  and  C_14
REMARK    4  A    between atoms: O_3  and  C_15
REMARK    5  A    between atoms: N_9  and  C_13
REMARK    6  A    between atoms: N_11  and  C_25
REMARK    7  A    between atoms: C_16  and  C_23
REMARK    8  A    between atoms: C_21  and  C_24
REMARK    9  A    between atoms: C_25  and  C_26
REMARK   10  A    between atoms: C_25  and  C_28
REMARK   11  A    between atoms: C_26  and  C_27
REMARK                            x       y       z     vdW  Elec       q    Type
REMARK                         _______ _______ _______ _____ _____    ______ ____
ROOT
ATOM     13  C   UNL     1      12.323   7.667   6.203  0.00  0.00    +0.127 C 
ATOM     14  C   UNL     1      13.602   7.513   7.049  0.00  0.00    +0.167 C 
ATOM     15  C   UNL     1      14.818   8.127   6.347  0.00  0.00    +0.149 C 
ATOM     17  C   UNL     1      15.034   7.537   4.942  0.00  0.00    +0.074 C 
ATOM     20  C   UNL     1      12.533   7.352   4.746  0.00  0.00    +0.006 C 
ATOM     21  C   UNL     1      13.754   7.290   4.196  0.00  0.00    +0.015 C 
ENDROOT
BRANCH  13   9
ATOM      4  O   UNL     1       9.988   8.537   7.692  0.00  0.00    -0.274 OA
ATOM      9  N   UNL     1      11.249   6.846   6.708  0.00  0.00    -0.305 N 
ATOM     23  C   UNL     1      10.170   7.355   7.411  0.00  0.00    +0.231 C 
ATOM     30  H   UNL     1      11.306   5.842   6.558  0.00  0.00    +0.149 HD
BRANCH  23  16
ATOM     10  N   UNL     1       9.243   6.186   9.252  0.00  0.00    -0.306 NA
ATOM     16  C   UNL     1       9.191   6.295   7.794  0.00  0.00    +0.140 C 
ATOM     18  C   UNL     1       9.579   4.926   7.248  0.00  0.00    +0.029 C 
ATOM     19  C   UNL     1       9.877   4.089   8.482  0.00  0.00    +0.017 C 
ATOM     22  C   UNL     1       9.070   4.771   9.567  0.00  0.00    +0.081 C 
ATOM     31  H   UNL     1       8.516   6.751   9.689  0.00  0.00    +0.123 HD
ENDBRANCH  23  16
ENDBRANCH  13   9
BRANCH  21  24
ATOM      5  O   UNL     1      13.344   7.727   1.925  0.00  0.00    -0.271 OA
ATOM     11  N   UNL     1      14.506   5.793   2.510  0.00  0.00    -0.300 N 
ATOM     24  C   UNL     1      13.837   6.978   2.766  0.00  0.00    +0.241 C 
ATOM     34  H   UNL     1      14.867   5.228   3.271  0.00  0.00    +0.150 HD
BRANCH  11  25
ATOM     25  C   UNL     1      14.713   5.275   1.177  0.00  0.00    +0.160 C 
BRANCH  25  28
ATOM      8  O   UNL     1      14.084   2.979   1.655  0.00  0.00    -0.274 OA
ATOM     12  N   UNL     1      16.218   3.401   0.919  0.00  0.00    -0.328 N 
ATOM     28  C   UNL     1      14.947   3.777   1.299  0.00  0.00    +0.231 C 
ATOM     35  H   UNL     1      16.909   4.063   0.585  0.00  0.00    +0.145 HD
ATOM     36  H   UNL     1      16.499   2.426   0.943  0.00  0.00    +0.145 HD
ENDBRANCH  25  28
BRANCH  25  26
ATOM     26  C   UNL     1      15.897   5.948   0.476  0.00  0.00    +0.054 C 
BRANCH  26  27
ATOM     27  C   UNL     1      15.516   6.521  -0.883  0.00  0.00    +0.168 C 
BRANCH  27   1
ATOM      1  S   UNL     1      15.932   5.407  -2.187  0.00  0.00    -0.034 S 
ATOM      6  O   UNL     1      16.159   6.183  -3.394  0.00  0.00    -0.175 OA
ATOM      7  O   UNL     1      16.946   4.490  -1.696  0.00  0.00    -0.175 OA
ATOM     29  C   UNL     1      14.436   4.474  -2.422  0.00  0.00    +0.194 C 
ENDBRANCH  27   1
ENDBRANCH  26  27
ENDBRANCH  25  26
ENDBRANCH  11  25
ENDBRANCH  21  24
BRANCH  14   2
ATOM      2  O   UNL     1      13.858   6.126   7.283  0.00  0.00    -0.387 OA
ATOM     32  H   UNL     1      13.030   5.693   7.548  0.00  0.00    +0.210 HD
ENDBRANCH  14   2
BRANCH  15   3
ATOM      3  O   UNL     1      14.675   9.544   6.265  0.00  0.00    -0.389 OA
ATOM     33  H   UNL     1      15.470   9.893   5.827  0.00  0.00    +0.210 HD
ENDBRANCH  15   3
TORSDOF 10
ENDMDL
MODEL 6
REMARK VINA RESULT:      -6.0     28.103     30.209
REMARK  Name = 7127914
REMARK  11 active torsions:
REMARK  status: ('A' for Active; 'I' for Inactive)
REMARK    1  A    between atoms: S_1  and  C_27
REMARK    2  A    between atoms: S_1  and  C_29
REMARK    3  A    between atoms: O_2  and  C_14
REMARK    4  A    between atoms: O_3  and  C_15
REMARK    5  A    between atoms: N_9  and  C_13
REMARK    6  A    between atoms: N_11  and  C_25
REMARK    7  A    between atoms: C_16  and  C_23
REMARK    8  A    between atoms: C_21  and  C_24
REMARK    9  A    between atoms: C_25  and  C_26
REMARK   10  A    between atoms: C_25  and  C_28
REMARK   11  A    between atoms: C_26  and  C_27
REMARK                            x       y       z     vdW  Elec       q    Type
REMARK                         _______ _______ _______ _____ _____    ______ ____
ROOT
ATOM     13  C   UNL     1      -2.175 -13.135  14.011  0.00  0.00    +0.127 C 
ATOM     14  C   UNL     1      -2.181 -14.663  14.215  0.00  0.00    +0.167 C 
ATOM     15  C   UNL     1      -1.777 -15.403  12.935  0.00  0.00    +0.149 C 
ATOM     17  C   UNL     1      -2.667 -15.022  11.740  0.00  0.00    +0.074 C 
ATOM     20  C   UNL     1      -2.808 -12.706  12.715  0.00  0.00    +0.006 C 
ATOM     21  C   UNL     1      -3.030 -13.564  11.708  0.00  0.00    +0.015 C 
ENDROOT
BRANCH  13   9
ATOM      4  O   UNL     1      -1.671 -10.436  14.951  0.00  0.00    -0.274 OA
ATOM      9  N   UNL     1      -2.829 -12.450  15.099  0.00  0.00    -0.305 N 
ATOM     23  C   UNL     1      -2.519 -11.154  15.475  0.00  0.00    +0.231 C 
ATOM     30  H   UNL     1      -3.534 -12.958  15.626  0.00  0.00    +0.149 HD
BRANCH  23  16
ATOM     10  N   UNL     1      -3.522 -11.812  17.519  0.00  0.00    -0.306 NA
ATOM     16  C   UNL     1      -3.361 -10.676  16.612  0.00  0.00    +0.140 C 
ATOM     18  C   UNL     1      -4.764 -10.282  16.165  0.00  0.00    +0.029 C 
ATOM     19  C   UNL     1      -5.681 -11.285  16.847  0.00  0.00    +0.017 C 
ATOM     22  C   UNL     1      -4.878 -11.726  18.053  0.00  0.00    +0.081 C 
ATOM     31  H   UNL     1      -2.831 -11.786  18.267  0.00  0.00    +0.123 HD
ENDBRANCH  23  16
ENDBRANCH  13   9
BRANCH  21  24
ATOM      5  O   UNL     1      -4.023 -13.784   9.590  0.00  0.00    -0.271 OA
ATOM     11  N   UNL     1      -3.752 -11.653  10.494  0.00  0.00    -0.300 N 
ATOM     24  C   UNL     1      -3.651 -13.033  10.490  0.00  0.00    +0.241 C 
ATOM     34  H   UNL     1      -3.401 -11.110  11.276  0.00  0.00    +0.150 HD
BRANCH  11  25
ATOM     25  C   UNL     1      -4.326 -10.901   9.402  0.00  0.00    +0.160 C 
BRANCH  25  28
ATOM      8  O   UNL     1      -2.856  -9.141  10.202  0.00  0.00    -0.274 OA
ATOM     12  N   UNL     1      -4.523  -8.589   8.722  0.00  0.00    -0.328 N 
ATOM     28  C   UNL     1      -3.819  -9.471   9.514  0.00  0.00    +0.231 C 
ATOM     35  H   UNL     1      -5.290  -8.879   8.125  0.00  0.00    +0.145 HD
ATOM     36  H   UNL     1      -4.278  -7.604   8.697  0.00  0.00    +0.145 HD
ENDBRANCH  25  28
BRANCH  25  26
ATOM     26  C   UNL     1      -5.857 -10.930   9.427  0.00  0.00    +0.054 C 
BRANCH  26  27
ATOM     27  C   UNL     1      -6.414 -10.911  10.845  0.00  0.00    +0.168 C 
BRANCH  27   1
ATOM      1  S   UNL     1      -7.116  -9.339  11.236  0.00  0.00    -0.034 S 
ATOM      6  O   UNL     1      -6.269  -8.696  12.225  0.00  0.00    -0.175 OA
ATOM      7  O   UNL     1      -7.442  -8.664   9.991  0.00  0.00    -0.175 OA
ATOM     29  C   UNL     1      -8.649  -9.761  12.033  0.00  0.00    +0.194 C 
ENDBRANCH  27   1
ENDBRANCH  26  27
ENDBRANCH  25  26
ENDBRANCH  11  25
ENDBRANCH  21  24
BRANCH  14   2
ATOM      2  O   UNL     1      -3.491 -15.090  14.598  0.00  0.00    -0.387 OA
ATOM     32  H   UNL     1      -3.811 -14.517  15.315  0.00  0.00    +0.210 HD
ENDBRANCH  14   2
BRANCH  15   3
ATOM      3  O   UNL     1      -0.408 -15.143  12.628  0.00  0.00    -0.389 OA
ATOM     33  H   UNL     1      -0.032 -15.959  12.258  0.00  0.00    +0.210 HD
ENDBRANCH  15   3
TORSDOF 10
ENDMDL
MODEL 7
REMARK VINA RESULT:      -6.0     17.724     21.333
REMARK  Name = 7127914
REMARK  11 active torsions:
REMARK  status: ('A' for Active; 'I' for Inactive)
REMARK    1  A    between atoms: S_1  and  C_27
REMARK    2  A    between atoms: S_1  and  C_29
REMARK    3  A    between atoms: O_2  and  C_14
REMARK    4  A    between atoms: O_3  and  C_15
REMARK    5  A    between atoms: N_9  and  C_13
REMARK    6  A    between atoms: N_11  and  C_25
REMARK    7  A    between atoms: C_16  and  C_23
REMARK    8  A    between atoms: C_21  and  C_24
REMARK    9  A    between atoms: C_25  and  C_26
REMARK   10  A    between atoms: C_25  and  C_28
REMARK   11  A    between atoms: C_26  and  C_27
REMARK                            x       y       z     vdW  Elec       q    Type
REMARK                         _______ _______ _______ _____ _____    ______ ____
ROOT
ATOM     13  C   UNL     1       9.711   7.359   4.886  0.00  0.00    +0.127 C 
ATOM     14  C   UNL     1       8.988   6.515   5.954  0.00  0.00    +0.167 C 
ATOM     15  C   UNL     1       9.786   5.255   6.311  0.00  0.00    +0.149 C 
ATOM     17  C   UNL     1      10.097   4.396   5.073  0.00  0.00    +0.074 C 
ATOM     20  C   UNL     1      10.276   6.536   3.760  0.00  0.00    +0.006 C 
ATOM     21  C   UNL     1      10.436   5.207   3.854  0.00  0.00    +0.015 C 
ENDROOT
BRANCH  13   9
ATOM      4  O   UNL     1       8.964   9.888   6.098  0.00  0.00    -0.274 OA
ATOM      9  N   UNL     1       8.846   8.373   4.334  0.00  0.00    -0.305 N 
ATOM     23  C   UNL     1       8.547   9.555   4.991  0.00  0.00    +0.231 C 
ATOM     30  H   UNL     1       8.419   8.194   3.430  0.00  0.00    +0.149 HD
BRANCH  23  16
ATOM     10  N   UNL     1       6.290   9.940   4.381  0.00  0.00    -0.306 NA
ATOM     16  C   UNL     1       7.651  10.439   4.188  0.00  0.00    +0.140 C 
ATOM     18  C   UNL     1       7.935  10.345   2.694  0.00  0.00    +0.029 C 
ATOM     19  C   UNL     1       6.674   9.737   2.100  0.00  0.00    +0.017 C 
ATOM     22  C   UNL     1       5.603  10.110   3.103  0.00  0.00    +0.081 C 
ATOM     31  H   UNL     1       5.814  10.449   5.124  0.00  0.00    +0.123 HD
ENDBRANCH  23  16
ENDBRANCH  13   9
BRANCH  21  24
ATOM      5  O   UNL     1      10.283   3.847   1.945  0.00  0.00    -0.271 OA
ATOM     11  N   UNL     1      12.366   4.687   2.569  0.00  0.00    -0.300 N 
ATOM     24  C   UNL     1      10.999   4.509   2.695  0.00  0.00    +0.241 C 
ATOM     34  H   UNL     1      12.880   5.238   3.246  0.00  0.00    +0.150 HD
BRANCH  11  25
ATOM     25  C   UNL     1      13.144   4.094   1.505  0.00  0.00    +0.160 C 
BRANCH  25  28
ATOM      8  O   UNL     1      15.040   5.612   1.518  0.00  0.00    -0.274 OA
ATOM     12  N   UNL     1      15.357   3.455   2.240  0.00  0.00    -0.328 N 
ATOM     28  C   UNL     1      14.597   4.485   1.728  0.00  0.00    +0.231 C 
ATOM     35  H   UNL     1      14.971   2.541   2.451  0.00  0.00    +0.145 HD
ATOM     36  H   UNL     1      16.342   3.588   2.445  0.00  0.00    +0.145 HD
ENDBRANCH  25  28
BRANCH  25  26
ATOM     26  C   UNL     1      12.671   4.553   0.123  0.00  0.00    +0.054 C 
BRANCH  26  27
ATOM     27  C   UNL     1      12.524   3.393  -0.854  0.00  0.00    +0.168 C 
BRANCH  27   1
ATOM      1  S   UNL     1      11.303   3.740  -2.081  0.00  0.00    -0.034 S 
ATOM      6  O   UNL     1      11.332   2.673  -3.066  0.00  0.00    -0.175 OA
ATOM      7  O   UNL     1      10.065   4.089  -1.405  0.00  0.00    -0.175 OA
ATOM     29  C   UNL     1      11.917   5.213  -2.866  0.00  0.00    +0.194 C 
ENDBRANCH  27   1
ENDBRANCH  26  27
ENDBRANCH  25  26
ENDBRANCH  11  25
ENDBRANCH  21  24
BRANCH  14   2
ATOM      2  O   UNL     1       7.704   6.121   5.465  0.00  0.00    -0.387 OA
ATOM     32  H   UNL     1       7.033   6.731   5.815  0.00  0.00    +0.210 HD
ENDBRANCH  14   2
BRANCH  15   3
ATOM      3  O   UNL     1      10.998   5.613   6.974  0.00  0.00    -0.389 OA
ATOM     33  H   UNL     1      11.621   4.875   6.861  0.00  0.00    +0.210 HD
ENDBRANCH  15   3
TORSDOF 10
ENDMDL
MODEL 8
REMARK VINA RESULT:      -5.9     15.604     19.018
REMARK  Name = 7127914
REMARK  11 active torsions:
REMARK  status: ('A' for Active; 'I' for Inactive)
REMARK    1  A    between atoms: S_1  and  C_27
REMARK    2  A    between atoms: S_1  and  C_29
REMARK    3  A    between atoms: O_2  and  C_14
REMARK    4  A    between atoms: O_3  and  C_15
REMARK    5  A    between atoms: N_9  and  C_13
REMARK    6  A    between atoms: N_11  and  C_25
REMARK    7  A    between atoms: C_16  and  C_23
REMARK    8  A    between atoms: C_21  and  C_24
REMARK    9  A    between atoms: C_25  and  C_26
REMARK   10  A    between atoms: C_25  and  C_28
REMARK   11  A    between atoms: C_26  and  C_27
REMARK                            x       y       z     vdW  Elec       q    Type
REMARK                         _______ _______ _______ _____ _____    ______ ____
ROOT
ATOM     13  C   UNL     1      12.447   7.555   5.925  0.00  0.00    +0.127 C 
ATOM     14  C   UNL     1      13.636   7.554   6.905  0.00  0.00    +0.167 C 
ATOM     15  C   UNL     1      14.901   8.127   6.255  0.00  0.00    +0.149 C 
ATOM     17  C   UNL     1      15.275   7.384   4.961  0.00  0.00    +0.074 C 
ATOM     20  C   UNL     1      12.812   7.077   4.545  0.00  0.00    +0.006 C 
ATOM     21  C   UNL     1      14.085   6.998   4.129  0.00  0.00    +0.015 C 
ENDROOT
BRANCH  13   9
ATOM      4  O   UNL     1      10.030   8.497   7.226  0.00  0.00    -0.274 OA
ATOM      9  N   UNL     1      11.350   6.758   6.419  0.00  0.00    -0.305 N 
ATOM     23  C   UNL     1      10.232   7.301   7.029  0.00  0.00    +0.231 C 
ATOM     30  H   UNL     1      11.420   5.748   6.335  0.00  0.00    +0.149 HD
BRANCH  23  16
ATOM     10  N   UNL     1       9.129   6.314   8.880  0.00  0.00    -0.306 NA
ATOM     16  C   UNL     1       9.238   6.259   7.422  0.00  0.00    +0.140 C 
ATOM     18  C   UNL     1       9.711   4.851   7.080  0.00  0.00    +0.029 C 
ATOM     19  C   UNL     1       9.886   4.166   8.426  0.00  0.00    +0.017 C 
ATOM     22  C   UNL     1       8.950   4.937   9.333  0.00  0.00    +0.081 C 
ATOM     31  H   UNL     1       8.347   6.899   9.168  0.00  0.00    +0.123 HD
ENDBRANCH  23  16
ENDBRANCH  13   9
BRANCH  21  24
ATOM      5  O   UNL     1      15.066   7.134   1.999  0.00  0.00    -0.271 OA
ATOM     11  N   UNL     1      13.632   5.358   2.471  0.00  0.00    -0.300 N 
ATOM     24  C   UNL     1      14.322   6.522   2.763  0.00  0.00    +0.241 C 
ATOM     34  H   UNL     1      13.025   4.929   3.160  0.00  0.00    +0.150 HD
BRANCH  11  25
ATOM     25  C   UNL     1      13.705   4.699   1.186  0.00  0.00    +0.160 C 
BRANCH  25  28
ATOM      8  O   UNL     1      15.845   4.333   0.096  0.00  0.00    -0.274 OA
ATOM     12  N   UNL     1      15.472   3.352   2.138  0.00  0.00    -0.328 N 
ATOM     28  C   UNL     1      15.103   4.114   1.051  0.00  0.00    +0.231 C 
ATOM     35  H   UNL     1      14.869   3.213   2.942  0.00  0.00    +0.145 HD
ATOM     36  H   UNL     1      16.387   2.913   2.178  0.00  0.00    +0.145 HD
ENDBRANCH  25  28
BRANCH  25  26
ATOM     26  C   UNL     1      13.411   5.659   0.030  0.00  0.00    +0.054 C 
BRANCH  26  27
ATOM     27  C   UNL     1      11.954   6.103   0.003  0.00  0.00    +0.168 C 
BRANCH  27   1
ATOM      1  S   UNL     1      10.996   5.088  -1.078  0.00  0.00    -0.034 S 
ATOM      6  O   UNL     1      10.433   3.999  -0.300  0.00  0.00    -0.175 OA
ATOM      7  O   UNL     1      10.137   5.951  -1.870  0.00  0.00    -0.175 OA
ATOM     29  C   UNL     1      12.213   4.393  -2.174  0.00  0.00    +0.194 C 
ENDBRANCH  27   1
ENDBRANCH  26  27
ENDBRANCH  25  26
ENDBRANCH  11  25
ENDBRANCH  21  24
BRANCH  14   2
ATOM      2  O   UNL     1      13.906   6.216   7.331  0.00  0.00    -0.387 OA
ATOM     32  H   UNL     1      13.240   5.956   7.989  0.00  0.00    +0.210 HD
ENDBRANCH  14   2
BRANCH  15   3
ATOM      3  O   UNL     1      14.728   9.519   5.987  0.00  0.00    -0.389 OA
ATOM     33  H   UNL     1      14.313   9.597   5.111  0.00  0.00    +0.210 HD
ENDBRANCH  15   3
TORSDOF 10
ENDMDL
MODEL 9
REMARK VINA RESULT:      -5.8     28.221     30.367
REMARK  Name = 7127914
REMARK  11 active torsions:
REMARK  status: ('A' for Active; 'I' for Inactive)
REMARK    1  A    between atoms: S_1  and  C_27
REMARK    2  A    between atoms: S_1  and  C_29
REMARK    3  A    between atoms: O_2  and  C_14
REMARK    4  A    between atoms: O_3  and  C_15
REMARK    5  A    between atoms: N_9  and  C_13
REMARK    6  A    between atoms: N_11  and  C_25
REMARK    7  A    between atoms: C_16  and  C_23
REMARK    8  A    between atoms: C_21  and  C_24
REMARK    9  A    between atoms: C_25  and  C_26
REMARK   10  A    between atoms: C_25  and  C_28
REMARK   11  A    between atoms: C_26  and  C_27
REMARK                            x       y       z     vdW  Elec       q    Type
REMARK                         _______ _______ _______ _____ _____    ______ ____
ROOT
ATOM     13  C   UNL     1      -4.036 -11.378  12.571  0.00  0.00    +0.127 C 
ATOM     14  C   UNL     1      -2.664 -11.672  11.936  0.00  0.00    +0.167 C 
ATOM     15  C   UNL     1      -1.836 -12.629  12.802  0.00  0.00    +0.149 C 
ATOM     17  C   UNL     1      -1.658 -12.104  14.237  0.00  0.00    +0.074 C 
ATOM     20  C   UNL     1      -3.962 -11.109  14.050  0.00  0.00    +0.006 C 
ATOM     21  C   UNL     1      -2.886 -11.433  14.783  0.00  0.00    +0.015 C 
ENDROOT
BRANCH  13   9
ATOM      4  O   UNL     1      -6.886 -10.837  12.464  0.00  0.00    -0.274 OA
ATOM      9  N   UNL     1      -4.693 -10.267  11.928  0.00  0.00    -0.305 N 
ATOM     23  C   UNL     1      -6.068 -10.092  11.931  0.00  0.00    +0.231 C 
ATOM     30  H   UNL     1      -4.116  -9.596  11.428  0.00  0.00    +0.149 HD
BRANCH  23  16
ATOM     10  N   UNL     1      -7.778  -9.134  10.601  0.00  0.00    -0.306 NA
ATOM     16  C   UNL     1      -6.483  -8.849  11.216  0.00  0.00    +0.140 C 
ATOM     18  C   UNL     1      -5.535  -8.493  10.077  0.00  0.00    +0.029 C 
ATOM     19  C   UNL     1      -6.376  -8.638   8.818  0.00  0.00    +0.017 C 
ATOM     22  C   UNL     1      -7.790  -8.434   9.319  0.00  0.00    +0.081 C 
ATOM     31  H   UNL     1      -8.544  -8.822  11.195  0.00  0.00    +0.123 HD
ENDBRANCH  23  16
ENDBRANCH  13   9
BRANCH  21  24
ATOM      5  O   UNL     1      -1.919 -10.746  16.811  0.00  0.00    -0.271 OA
ATOM     11  N   UNL     1      -4.179 -11.315  16.773  0.00  0.00    -0.300 N 
ATOM     24  C   UNL     1      -2.926 -11.126  16.216  0.00  0.00    +0.241 C 
ATOM     34  H   UNL     1      -4.952 -11.648  16.208  0.00  0.00    +0.150 HD
BRANCH  11  25
ATOM     25  C   UNL     1      -4.465 -11.079  18.171  0.00  0.00    +0.160 C 
BRANCH  25  28
ATOM      8  O   UNL     1      -3.321 -12.252  19.964  0.00  0.00    -0.274 OA
ATOM     12  N   UNL     1      -4.476 -13.485  18.409  0.00  0.00    -0.328 N 
ATOM     28  C   UNL     1      -4.004 -12.305  18.944  0.00  0.00    +0.231 C 
ATOM     35  H   UNL     1      -5.076 -13.516  17.592  0.00  0.00    +0.145 HD
ATOM     36  H   UNL     1      -4.250 -14.377  18.839  0.00  0.00    +0.145 HD
ENDBRANCH  25  28
BRANCH  25  26
ATOM     26  C   UNL     1      -5.954 -10.818  18.417  0.00  0.00    +0.054 C 
BRANCH  26  27
ATOM     27  C   UNL     1      -6.561  -9.895  17.367  0.00  0.00    +0.168 C 
BRANCH  27   1
ATOM      1  S   UNL     1      -8.103 -10.521  16.779  0.00  0.00    -0.034 S 
ATOM      6  O   UNL     1      -8.747  -9.481  15.996  0.00  0.00    -0.175 OA
ATOM      7  O   UNL     1      -7.872 -11.838  16.211  0.00  0.00    -0.175 OA
ATOM     29  C   UNL     1      -9.052 -10.738  18.267  0.00  0.00    +0.194 C 
ENDBRANCH  27   1
ENDBRANCH  26  27
ENDBRANCH  25  26
ENDBRANCH  11  25
ENDBRANCH  21  24
BRANCH  14   2
ATOM      2  O   UNL     1      -1.937 -10.451  11.778  0.00  0.00    -0.387 OA
ATOM     32  H   UNL     1      -1.101 -10.640  11.320  0.00  0.00    +0.210 HD
ENDBRANCH  14   2
BRANCH  15   3
ATOM      3  O   UNL     1      -2.444 -13.920  12.826  0.00  0.00    -0.389 OA
ATOM     33  H   UNL     1      -2.287 -14.333  11.959  0.00  0.00    +0.210 HD
ENDBRANCH  15   3
TORSDOF 10
ENDMDL
MODEL 10
REMARK VINA RESULT:      -5.8     15.574     19.056
REMARK  Name = 7127914
REMARK  11 active torsions:
REMARK  status: ('A' for Active; 'I' for Inactive)
REMARK    1  A    between atoms: S_1  and  C_27
REMARK    2  A    between atoms: S_1  and  C_29
REMARK    3  A    between atoms: O_2  and  C_14
REMARK    4  A    between atoms: O_3  and  C_15
REMARK    5  A    between atoms: N_9  and  C_13
REMARK    6  A    between atoms: N_11  and  C_25
REMARK    7  A    between atoms: C_16  and  C_23
REMARK    8  A    between atoms: C_21  and  C_24
REMARK    9  A    between atoms: C_25  and  C_26
REMARK   10  A    between atoms: C_25  and  C_28
REMARK   11  A    between atoms: C_26  and  C_27
REMARK                            x       y       z     vdW  Elec       q    Type
REMARK                         _______ _______ _______ _____ _____    ______ ____
ROOT
ATOM     13  C   UNL     1      12.811   6.034   2.811  0.00  0.00    +0.127 C 
ATOM     14  C   UNL     1      13.945   6.990   2.392  0.00  0.00    +0.167 C 
ATOM     15  C   UNL     1      14.905   7.268   3.553  0.00  0.00    +0.149 C 
ATOM     17  C   UNL     1      14.174   7.819   4.790  0.00  0.00    +0.074 C 
ATOM     20  C   UNL     1      12.219   6.368   4.155  0.00  0.00    +0.006 C 
ATOM     21  C   UNL     1      12.838   7.175   5.029  0.00  0.00    +0.015 C 
ENDROOT
BRANCH  13   9
ATOM      4  O   UNL     1      11.300   3.719   1.927  0.00  0.00    -0.274 OA
ATOM      9  N   UNL     1      11.753   6.001   1.831  0.00  0.00    -0.305 N 
ATOM     23  C   UNL     1      11.086   4.841   1.473  0.00  0.00    +0.231 C 
ATOM     30  H   UNL     1      11.507   6.870   1.366  0.00  0.00    +0.149 HD
BRANCH  23  16
ATOM     10  N   UNL     1      10.348   4.264  -0.704  0.00  0.00    -0.306 NA
ATOM     16  C   UNL     1      10.020   5.090   0.458  0.00  0.00    +0.140 C 
ATOM     18  C   UNL     1      10.013   6.533  -0.031  0.00  0.00    +0.029 C 
ATOM     19  C   UNL     1      10.391   6.444  -1.501  0.00  0.00    +0.017 C 
ATOM     22  C   UNL     1       9.972   5.039  -1.883  0.00  0.00    +0.081 C 
ATOM     31  H   UNL     1       9.851   3.375  -0.675  0.00  0.00    +0.123 HD
ENDBRANCH  23  16
ENDBRANCH  13   9
BRANCH  21  24
ATOM      5  O   UNL     1      12.553   8.323   7.058  0.00  0.00    -0.271 OA
ATOM     11  N   UNL     1      11.109   6.567   6.542  0.00  0.00    -0.300 N 
ATOM     24  C   UNL     1      12.168   7.427   6.308  0.00  0.00    +0.241 C 
ATOM     34  H   UNL     1      10.873   5.844   5.872  0.00  0.00    +0.150 HD
BRANCH  11  25
ATOM     25  C   UNL     1      10.299   6.619   7.737  0.00  0.00    +0.160 C 
BRANCH  25  28
ATOM      8  O   UNL     1      10.298   5.016   9.562  0.00  0.00    -0.274 OA
ATOM     12  N   UNL     1      10.248   4.225   7.406  0.00  0.00    -0.328 N 
ATOM     28  C   UNL     1      10.299   5.228   8.351  0.00  0.00    +0.231 C 
ATOM     35  H   UNL     1      10.205   4.411   6.410  0.00  0.00    +0.145 HD
ATOM     36  H   UNL     1      10.232   3.249   7.685  0.00  0.00    +0.145 HD
ENDBRANCH  25  28
BRANCH  25  26
ATOM     26  C   UNL     1       8.867   7.075   7.441  0.00  0.00    +0.054 C 
BRANCH  26  27
ATOM     27  C   UNL     1       8.802   8.532   7.000  0.00  0.00    +0.168 C 
BRANCH  27   1
ATOM      1  S   UNL     1       8.524   8.663   5.262  0.00  0.00    -0.034 S 
ATOM      6  O   UNL     1       8.683   7.344   4.675  0.00  0.00    -0.175 OA
ATOM      7  O   UNL     1       7.303   9.423   5.054  0.00  0.00    -0.175 OA
ATOM     29  C   UNL     1       9.881   9.667   4.704  0.00  0.00    +0.194 C 
ENDBRANCH  27   1
ENDBRANCH  26  27
ENDBRANCH  25  26
ENDBRANCH  11  25
ENDBRANCH  21  24
BRANCH  14   2
ATOM      2  O   UNL     1      13.388   8.230   1.950  0.00  0.00    -0.387 OA
ATOM     32  H   UNL     1      12.739   8.052   1.249  0.00  0.00    +0.210 HD
ENDBRANCH  14   2
BRANCH  15   3
ATOM      3  O   UNL     1      15.619   6.080   3.896  0.00  0.00    -0.389 OA
ATOM     33  H   UNL     1      15.018   5.519   4.416  0.00  0.00    +0.210 HD
ENDBRANCH  15   3
TORSDOF 10
ENDMDL
