MODEL 1
REMARK VINA RESULT:      -5.9      0.000      0.000
REMARK  Name = 11884461
REMARK  9 active torsions:
REMARK  status: ('A' for Active; 'I' for Inactive)
REMARK    1  A    between atoms: S_1  and  N_8
REMARK    2  A    between atoms: S_1  and  C_22
REMARK    3  A    between atoms: O_5  and  C_28
REMARK    4  A    between atoms: O_5  and  C_31
REMARK    5  A    between atoms: O_7  and  C_30
REMARK    6  A    between atoms: O_7  and  C_32
REMARK    7  A    between atoms: N_10  and  C_20
REMARK    8  A    between atoms: C_27  and  C_29
REMARK    9  A    between atoms: C_29  and  C_30
REMARK                            x       y       z     vdW  Elec       q    Type
REMARK                         _______ _______ _______ _____ _____    ______ ____
ROOT
ATOM      4  O   UNL     1      12.317   7.360   4.756  0.00  0.00    -0.266 OA
ATOM      8  N   UNL     1      11.282   6.838  -0.090  0.00  0.00    -0.176 NA
ATOM      9  N   UNL     1      12.287   6.070   2.808  0.00  0.00    -0.310 N 
ATOM     11  C   UNL     1      13.639   6.679   0.720  0.00  0.00    +0.025 C 
ATOM     12  C   UNL     1      12.217   4.677   0.710  0.00  0.00    +0.052 C 
ATOM     13  C   UNL     1      13.635   5.179   0.453  0.00  0.00    +0.017 C 
ATOM     14  C   UNL     1      12.658   7.398  -0.220  0.00  0.00    +0.114 C 
ATOM     15  C   UNL     1      11.244   5.355  -0.270  0.00  0.00    +0.119 C 
ATOM     16  C   UNL     1      13.317   6.923   2.199  0.00  0.00    +0.130 C 
ATOM     17  C   UNL     1      11.795   4.942   2.143  0.00  0.00    +0.026 A 
ATOM     18  C   UNL     1      10.938   4.113   2.763  0.00  0.00    +0.024 A 
ATOM     19  C   UNL     1      11.898   6.387   4.125  0.00  0.00    +0.273 A 
ATOM     20  C   UNL     1      10.925   5.452   4.771  0.00  0.00    +0.099 A 
ATOM     21  C   UNL     1      10.496   4.377   4.103  0.00  0.00    +0.030 A 
ENDROOT
BRANCH  20  10
ATOM      6  O   UNL     1       8.311   6.313   5.561  0.00  0.00    -0.275 OA
ATOM     10  N   UNL     1      10.515   5.732   6.041  0.00  0.00    -0.281 N 
ATOM     27  C   UNL     1       9.228   6.148   6.363  0.00  0.00    +0.220 C 
ATOM     33  H   UNL     1      11.242   5.849   6.742  0.00  0.00    +0.155 HD
BRANCH  27  29
ATOM     29  C   UNL     1       9.078   6.380   7.858  0.00  0.00    +0.124 C 
BRANCH  29  30
ATOM     30  C   UNL     1      10.216   5.777   8.670  0.00  0.00    +0.168 C 
BRANCH  30   7
ATOM      7  O   UNL     1       9.915   4.421   8.970  0.00  0.00    -0.382 OA
ATOM     32  C   UNL     1       9.217   4.301  10.201  0.00  0.00    +0.194 C 
ENDBRANCH  30   7
ENDBRANCH  29  30
ENDBRANCH  27  29
ENDBRANCH  20  10
BRANCH   8   1
ATOM      1  S   UNL     1      10.048   7.712  -0.889  0.00  0.00    +0.061 S 
ATOM      2  O   UNL     1       9.222   6.788  -1.638  0.00  0.00    -0.153 OA
ATOM      3  O   UNL     1      10.630   8.874  -1.526  0.00  0.00    -0.153 OA
BRANCH   1  22
ATOM     22  C   UNL     1       9.111   8.267   0.500  0.00  0.00    +0.106 A 
ATOM     23  C   UNL     1       8.116   9.213   0.313  0.00  0.00    +0.032 A 
ATOM     24  C   UNL     1       9.386   7.747   1.754  0.00  0.00    +0.032 A 
ATOM     25  C   UNL     1       7.376   9.652   1.411  0.00  0.00    +0.047 A 
ATOM     26  C   UNL     1       8.645   8.186   2.852  0.00  0.00    +0.047 A 
ATOM     28  C   UNL     1       7.640   9.138   2.680  0.00  0.00    +0.120 A 
BRANCH  28   5
ATOM      5  O   UNL     1       6.918   9.565   3.752  0.00  0.00    -0.495 OA
ATOM     31  C   UNL     1       5.689  10.238   3.479  0.00  0.00    +0.277 C 
ENDBRANCH  28   5
ENDBRANCH   1  22
ENDBRANCH   8   1
TORSDOF 7
ENDMDL
MODEL 2
REMARK VINA RESULT:      -5.9     24.283     27.547
REMARK  Name = 11884461
REMARK  9 active torsions:
REMARK  status: ('A' for Active; 'I' for Inactive)
REMARK    1  A    between atoms: S_1  and  N_8
REMARK    2  A    between atoms: S_1  and  C_22
REMARK    3  A    between atoms: O_5  and  C_28
REMARK    4  A    between atoms: O_5  and  C_31
REMARK    5  A    between atoms: O_7  and  C_30
REMARK    6  A    between atoms: O_7  and  C_32
REMARK    7  A    between atoms: N_10  and  C_20
REMARK    8  A    between atoms: C_27  and  C_29
REMARK    9  A    between atoms: C_29  and  C_30
REMARK                            x       y       z     vdW  Elec       q    Type
REMARK                         _______ _______ _______ _____ _____    ______ ____
ROOT
ATOM      4  O   UNL     1      -7.997  -8.903  16.860  0.00  0.00    -0.266 OA
ATOM      8  N   UNL     1      -3.961 -11.631  15.812  0.00  0.00    -0.176 NA
ATOM      9  N   UNL     1      -6.811 -10.913  16.979  0.00  0.00    -0.310 N 
ATOM     11  C   UNL     1      -4.561 -11.126  18.184  0.00  0.00    +0.025 C 
ATOM     12  C   UNL     1      -5.538 -13.086  17.071  0.00  0.00    +0.052 C 
ATOM     13  C   UNL     1      -4.971 -12.578  18.394  0.00  0.00    +0.017 C 
ATOM     14  C   UNL     1      -3.487 -11.022  17.088  0.00  0.00    +0.114 C 
ATOM     15  C   UNL     1      -4.445 -13.034  15.989  0.00  0.00    +0.119 C 
ATOM     16  C   UNL     1      -5.809 -10.296  17.860  0.00  0.00    +0.130 C 
ATOM     17  C   UNL     1      -6.744 -12.270  16.644  0.00  0.00    +0.026 A 
ATOM     18  C   UNL     1      -7.731 -12.839  15.932  0.00  0.00    +0.024 A 
ATOM     19  C   UNL     1      -7.887 -10.097  16.576  0.00  0.00    +0.273 A 
ATOM     20  C   UNL     1      -8.954 -10.764  15.764  0.00  0.00    +0.099 A 
ATOM     21  C   UNL     1      -8.856 -12.067  15.483  0.00  0.00    +0.030 A 
ENDROOT
BRANCH  20  10
ATOM      6  O   UNL     1     -11.397 -10.313  17.188  0.00  0.00    -0.275 OA
ATOM     10  N   UNL     1     -10.006 -10.005  15.344  0.00  0.00    -0.281 N 
ATOM     27  C   UNL     1     -11.169  -9.824  16.083  0.00  0.00    +0.220 C 
ATOM     33  H   UNL     1     -10.021  -9.746  14.361  0.00  0.00    +0.155 HD
BRANCH  27  29
ATOM     29  C   UNL     1     -12.156  -8.926  15.351  0.00  0.00    +0.124 C 
BRANCH  29  30
ATOM     30  C   UNL     1     -11.478  -7.800  14.585  0.00  0.00    +0.168 C 
BRANCH  30   7
ATOM      7  O   UNL     1     -10.588  -7.108  15.450  0.00  0.00    -0.382 OA
ATOM     32  C   UNL     1     -11.207  -5.971  16.035  0.00  0.00    +0.194 C 
ENDBRANCH  30   7
ENDBRANCH  29  30
ENDBRANCH  27  29
ENDBRANCH  20  10
BRANCH   8   1
ATOM      1  S   UNL     1      -2.967 -11.358  14.446  0.00  0.00    +0.061 S 
ATOM      2  O   UNL     1      -2.599 -12.632  13.867  0.00  0.00    -0.153 OA
ATOM      3  O   UNL     1      -1.960 -10.375  14.786  0.00  0.00    -0.153 OA
BRANCH   1  22
ATOM     22  C   UNL     1      -4.132 -10.591  13.364  0.00  0.00    +0.106 A 
ATOM     23  C   UNL     1      -5.402 -10.297  13.834  0.00  0.00    +0.032 A 
ATOM     24  C   UNL     1      -3.757 -10.297  12.064  0.00  0.00    +0.032 A 
ATOM     25  C   UNL     1      -6.322  -9.692  12.979  0.00  0.00    +0.047 A 
ATOM     26  C   UNL     1      -4.678  -9.691  11.208  0.00  0.00    +0.047 A 
ATOM     28  C   UNL     1      -5.961  -9.389  11.666  0.00  0.00    +0.120 A 
BRANCH  28   5
ATOM      5  O   UNL     1      -6.858  -8.796  10.832  0.00  0.00    -0.495 OA
ATOM     31  C   UNL     1      -6.438  -8.563   9.488  0.00  0.00    +0.277 C 
ENDBRANCH  28   5
ENDBRANCH   1  22
ENDBRANCH   8   1
TORSDOF 7
ENDMDL
MODEL 3
REMARK VINA RESULT:      -5.9     25.105     28.402
REMARK  Name = 11884461
REMARK  9 active torsions:
REMARK  status: ('A' for Active; 'I' for Inactive)
REMARK    1  A    between atoms: S_1  and  N_8
REMARK    2  A    between atoms: S_1  and  C_22
REMARK    3  A    between atoms: O_5  and  C_28
REMARK    4  A    between atoms: O_5  and  C_31
REMARK    5  A    between atoms: O_7  and  C_30
REMARK    6  A    between atoms: O_7  and  C_32
REMARK    7  A    between atoms: N_10  and  C_20
REMARK    8  A    between atoms: C_27  and  C_29
REMARK    9  A    between atoms: C_29  and  C_30
REMARK                            x       y       z     vdW  Elec       q    Type
REMARK                         _______ _______ _______ _____ _____    ______ ____
ROOT
ATOM      4  O   UNL     1     -14.988   9.059  19.692  0.00  0.00    -0.266 OA
ATOM      8  N   UNL     1     -11.357   9.579  16.320  0.00  0.00    -0.176 NA
ATOM      9  N   UNL     1     -12.742   9.421  19.158  0.00  0.00    -0.310 N 
ATOM     11  C   UNL     1     -11.943  11.469  17.844  0.00  0.00    +0.025 C 
ATOM     12  C   UNL     1     -10.318   9.777  18.570  0.00  0.00    +0.052 C 
ATOM     13  C   UNL     1     -10.636  11.269  18.601  0.00  0.00    +0.017 C 
ATOM     14  C   UNL     1     -11.798  11.002  16.386  0.00  0.00    +0.114 C 
ATOM     15  C   UNL     1     -10.118   9.323  17.114  0.00  0.00    +0.119 C 
ATOM     16  C   UNL     1     -13.067  10.735  18.585  0.00  0.00    +0.130 C 
ATOM     17  C   UNL     1     -11.421   8.969  19.230  0.00  0.00    +0.026 A 
ATOM     18  C   UNL     1     -11.135   7.817  19.859  0.00  0.00    +0.024 A 
ATOM     19  C   UNL     1     -13.812   8.693  19.717  0.00  0.00    +0.273 A 
ATOM     20  C   UNL     1     -13.453   7.404  20.389  0.00  0.00    +0.099 A 
ATOM     21  C   UNL     1     -12.174   7.021  20.448  0.00  0.00    +0.030 A 
ENDROOT
BRANCH  20  10
ATOM      6  O   UNL     1     -14.546   7.693  23.020  0.00  0.00    -0.275 OA
ATOM     10  N   UNL     1     -14.462   6.664  20.931  0.00  0.00    -0.281 N 
ATOM     27  C   UNL     1     -14.950   6.853  22.219  0.00  0.00    +0.220 C 
ATOM     33  H   UNL     1     -14.710   5.803  20.450  0.00  0.00    +0.155 HD
BRANCH  27  29
ATOM     29  C   UNL     1     -16.073   5.876  22.534  0.00  0.00    +0.124 C 
BRANCH  29  30
ATOM     30  C   UNL     1     -17.069   5.728  21.394  0.00  0.00    +0.168 C 
BRANCH  30   7
ATOM      7  O   UNL     1     -16.647   4.679  20.531  0.00  0.00    -0.382 OA
ATOM     32  C   UNL     1     -17.372   4.686  19.309  0.00  0.00    +0.194 C 
ENDBRANCH  30   7
ENDBRANCH  29  30
ENDBRANCH  27  29
ENDBRANCH  20  10
BRANCH   8   1
ATOM      1  S   UNL     1     -11.403   8.861  14.767  0.00  0.00    +0.061 S 
ATOM      2  O   UNL     1     -10.458   7.764  14.725  0.00  0.00    -0.153 OA
ATOM      3  O   UNL     1     -11.378   9.904  13.765  0.00  0.00    -0.153 OA
BRANCH   1  22
ATOM     22  C   UNL     1     -13.028   8.171  14.793  0.00  0.00    +0.106 A 
ATOM     23  C   UNL     1     -13.793   8.282  15.942  0.00  0.00    +0.032 A 
ATOM     24  C   UNL     1     -13.509   7.530  13.664  0.00  0.00    +0.032 A 
ATOM     25  C   UNL     1     -15.076   7.736  15.963  0.00  0.00    +0.047 A 
ATOM     26  C   UNL     1     -14.794   6.984  13.684  0.00  0.00    +0.047 A 
ATOM     28  C   UNL     1     -15.577   7.087  14.835  0.00  0.00    +0.120 A 
BRANCH  28   5
ATOM      5  O   UNL     1     -16.830   6.555  14.854  0.00  0.00    -0.495 OA
ATOM     31  C   UNL     1     -17.482   6.476  16.121  0.00  0.00    +0.277 C 
ENDBRANCH  28   5
ENDBRANCH   1  22
ENDBRANCH   8   1
TORSDOF 7
ENDMDL
MODEL 4
REMARK VINA RESULT:      -5.8     26.486     29.728
REMARK  Name = 11884461
REMARK  9 active torsions:
REMARK  status: ('A' for Active; 'I' for Inactive)
REMARK    1  A    between atoms: S_1  and  N_8
REMARK    2  A    between atoms: S_1  and  C_22
REMARK    3  A    between atoms: O_5  and  C_28
REMARK    4  A    between atoms: O_5  and  C_31
REMARK    5  A    between atoms: O_7  and  C_30
REMARK    6  A    between atoms: O_7  and  C_32
REMARK    7  A    between atoms: N_10  and  C_20
REMARK    8  A    between atoms: C_27  and  C_29
REMARK    9  A    between atoms: C_29  and  C_30
REMARK                            x       y       z     vdW  Elec       q    Type
REMARK                         _______ _______ _______ _____ _____    ______ ____
ROOT
ATOM      4  O   UNL     1     -14.946   8.879  21.848  0.00  0.00    -0.266 OA
ATOM      8  N   UNL     1     -12.462   9.384  17.558  0.00  0.00    -0.176 NA
ATOM      9  N   UNL     1     -12.944   8.879  20.642  0.00  0.00    -0.310 N 
ATOM     11  C   UNL     1     -12.044  10.960  19.451  0.00  0.00    +0.025 C 
ATOM     12  C   UNL     1     -10.796   8.848  19.325  0.00  0.00    +0.052 C 
ATOM     13  C   UNL     1     -10.677  10.327  19.681  0.00  0.00    +0.017 C 
ATOM     14  C   UNL     1     -12.464  10.815  17.979  0.00  0.00    +0.114 C 
ATOM     15  C   UNL     1     -11.162   8.704  17.837  0.00  0.00    +0.119 C 
ATOM     16  C   UNL     1     -13.056  10.326  20.413  0.00  0.00    +0.130 C 
ATOM     17  C   UNL     1     -11.833   8.159  20.194  0.00  0.00    +0.026 A 
ATOM     18  C   UNL     1     -11.696   6.860  20.512  0.00  0.00    +0.024 A 
ATOM     19  C   UNL     1     -13.958   8.281  21.418  0.00  0.00    +0.273 A 
ATOM     20  C   UNL     1     -13.780   6.828  21.730  0.00  0.00    +0.099 A 
ATOM     21  C   UNL     1     -12.692   6.184  21.295  0.00  0.00    +0.030 A 
ENDROOT
BRANCH  20  10
ATOM      6  O   UNL     1     -15.817   5.078  20.736  0.00  0.00    -0.275 OA
ATOM     10  N   UNL     1     -14.746   6.209  22.468  0.00  0.00    -0.281 N 
ATOM     27  C   UNL     1     -15.711   5.369  21.926  0.00  0.00    +0.220 C 
ATOM     33  H   UNL     1     -14.892   6.554  23.414  0.00  0.00    +0.155 HD
BRANCH  27  29
ATOM     29  C   UNL     1     -16.645   4.832  23.000  0.00  0.00    +0.124 C 
BRANCH  29  30
ATOM     30  C   UNL     1     -16.164   3.522  23.605  0.00  0.00    +0.168 C 
BRANCH  30   7
ATOM      7  O   UNL     1     -16.457   2.454  22.713  0.00  0.00    -0.382 OA
ATOM     32  C   UNL     1     -17.832   2.097  22.762  0.00  0.00    +0.194 C 
ENDBRANCH  30   7
ENDBRANCH  29  30
ENDBRANCH  27  29
ENDBRANCH  20  10
BRANCH   8   1
ATOM      1  S   UNL     1     -13.152   9.062  16.026  0.00  0.00    +0.061 S 
ATOM      2  O   UNL     1     -12.307   8.125  15.315  0.00  0.00    -0.153 OA
ATOM      3  O   UNL     1     -13.554  10.312  15.418  0.00  0.00    -0.153 OA
BRANCH   1  22
ATOM     22  C   UNL     1     -14.613   8.202  16.519  0.00  0.00    +0.106 A 
ATOM     23  C   UNL     1     -14.928   8.118  17.865  0.00  0.00    +0.032 A 
ATOM     24  C   UNL     1     -15.419   7.626  15.551  0.00  0.00    +0.032 A 
ATOM     25  C   UNL     1     -16.082   7.438  18.255  0.00  0.00    +0.047 A 
ATOM     26  C   UNL     1     -16.574   6.946  15.941  0.00  0.00    +0.047 A 
ATOM     28  C   UNL     1     -16.905   6.852  17.293  0.00  0.00    +0.120 A 
BRANCH  28   5
ATOM      5  O   UNL     1     -18.032   6.190  17.673  0.00  0.00    -0.495 OA
ATOM     31  C   UNL     1     -18.841   5.639  16.634  0.00  0.00    +0.277 C 
ENDBRANCH  28   5
ENDBRANCH   1  22
ENDBRANCH   8   1
TORSDOF 7
ENDMDL
MODEL 5
REMARK VINA RESULT:      -5.8      3.065      7.489
REMARK  Name = 11884461
REMARK  9 active torsions:
REMARK  status: ('A' for Active; 'I' for Inactive)
REMARK    1  A    between atoms: S_1  and  N_8
REMARK    2  A    between atoms: S_1  and  C_22
REMARK    3  A    between atoms: O_5  and  C_28
REMARK    4  A    between atoms: O_5  and  C_31
REMARK    5  A    between atoms: O_7  and  C_30
REMARK    6  A    between atoms: O_7  and  C_32
REMARK    7  A    between atoms: N_10  and  C_20
REMARK    8  A    between atoms: C_27  and  C_29
REMARK    9  A    between atoms: C_29  and  C_30
REMARK                            x       y       z     vdW  Elec       q    Type
REMARK                         _______ _______ _______ _____ _____    ______ ____
ROOT
ATOM      4  O   UNL     1      10.537   7.320   1.064  0.00  0.00    -0.266 OA
ATOM      8  N   UNL     1      11.226   6.994   5.988  0.00  0.00    -0.176 NA
ATOM      9  N   UNL     1      10.098   6.296   3.118  0.00  0.00    -0.310 N 
ATOM     11  C   UNL     1       8.966   7.519   5.063  0.00  0.00    +0.025 C 
ATOM     12  C   UNL     1       9.659   5.178   5.333  0.00  0.00    +0.052 C 
ATOM     13  C   UNL     1       8.476   6.133   5.463  0.00  0.00    +0.017 C 
ATOM     14  C   UNL     1      10.105   7.977   5.990  0.00  0.00    +0.114 C 
ATOM     15  C   UNL     1      10.776   5.605   6.302  0.00  0.00    +0.119 C 
ATOM     16  C   UNL     1       9.387   7.493   3.589  0.00  0.00    +0.130 C 
ATOM     17  C   UNL     1      10.180   5.145   3.908  0.00  0.00    +0.026 A 
ATOM     18  C   UNL     1      10.735   4.025   3.414  0.00  0.00    +0.024 A 
ATOM     19  C   UNL     1      10.601   6.335   1.801  0.00  0.00    +0.273 A 
ATOM     20  C   UNL     1      11.233   5.074   1.298  0.00  0.00    +0.099 A 
ATOM     21  C   UNL     1      11.272   3.994   2.083  0.00  0.00    +0.030 A 
ENDROOT
BRANCH  20  10
ATOM      6  O   UNL     1       9.829   4.379  -1.099  0.00  0.00    -0.275 OA
ATOM     10  N   UNL     1      11.742   5.076   0.033  0.00  0.00    -0.281 N 
ATOM     27  C   UNL     1      11.008   4.727  -1.094  0.00  0.00    +0.220 C 
ATOM     33  H   UNL     1      12.754   5.123  -0.053  0.00  0.00    +0.155 HD
BRANCH  27  29
ATOM     29  C   UNL     1      11.851   4.828  -2.357  0.00  0.00    +0.124 C 
BRANCH  29  30
ATOM     30  C   UNL     1      12.824   3.669  -2.516  0.00  0.00    +0.168 C 
BRANCH  30   7
ATOM      7  O   UNL     1      13.737   3.665  -1.426  0.00  0.00    -0.382 OA
ATOM     32  C   UNL     1      14.909   4.411  -1.725  0.00  0.00    +0.194 C 
ENDBRANCH  30   7
ENDBRANCH  29  30
ENDBRANCH  27  29
ENDBRANCH  20  10
BRANCH   8   1
ATOM      1  S   UNL     1      12.658   7.504   6.775  0.00  0.00    +0.061 S 
ATOM      2  O   UNL     1      13.099   6.460   7.676  0.00  0.00    -0.153 OA
ATOM      3  O   UNL     1      12.482   8.863   7.239  0.00  0.00    -0.153 OA
BRANCH   1  22
ATOM     22  C   UNL     1      13.770   7.537   5.404  0.00  0.00    +0.106 A 
ATOM     23  C   UNL     1      13.276   7.335   4.126  0.00  0.00    +0.032 A 
ATOM     24  C   UNL     1      15.117   7.764   5.630  0.00  0.00    +0.032 A 
ATOM     25  C   UNL     1      14.154   7.360   3.043  0.00  0.00    +0.047 A 
ATOM     26  C   UNL     1      15.996   7.790   4.546  0.00  0.00    +0.047 A 
ATOM     28  C   UNL     1      15.514   7.588   3.253  0.00  0.00    +0.120 A 
BRANCH  28   5
ATOM      5  O   UNL     1      16.372   7.615   2.196  0.00  0.00    -0.495 OA
ATOM     31  C   UNL     1      15.905   7.058   0.968  0.00  0.00    +0.277 C 
ENDBRANCH  28   5
ENDBRANCH   1  22
ENDBRANCH   8   1
TORSDOF 7
ENDMDL
MODEL 6
REMARK VINA RESULT:      -5.7     23.268     26.650
REMARK  Name = 11884461
REMARK  9 active torsions:
REMARK  status: ('A' for Active; 'I' for Inactive)
REMARK    1  A    between atoms: S_1  and  N_8
REMARK    2  A    between atoms: S_1  and  C_22
REMARK    3  A    between atoms: O_5  and  C_28
REMARK    4  A    between atoms: O_5  and  C_31
REMARK    5  A    between atoms: O_7  and  C_30
REMARK    6  A    between atoms: O_7  and  C_32
REMARK    7  A    between atoms: N_10  and  C_20
REMARK    8  A    between atoms: C_27  and  C_29
REMARK    9  A    between atoms: C_29  and  C_30
REMARK                            x       y       z     vdW  Elec       q    Type
REMARK                         _______ _______ _______ _____ _____    ______ ____
ROOT
ATOM      4  O   UNL     1      -6.814 -13.050  14.814  0.00  0.00    -0.266 OA
ATOM      8  N   UNL     1      -6.440 -10.275  10.692  0.00  0.00    -0.176 NA
ATOM      9  N   UNL     1      -7.770 -11.634  13.219  0.00  0.00    -0.310 N 
ATOM     11  C   UNL     1      -7.954 -12.261  10.742  0.00  0.00    +0.025 C 
ATOM     12  C   UNL     1      -8.780 -10.079  11.512  0.00  0.00    +0.052 C 
ATOM     13  C   UNL     1      -9.168 -11.340  10.746  0.00  0.00    +0.017 C 
ATOM     14  C   UNL     1      -6.764 -11.580  10.048  0.00  0.00    +0.114 C 
ATOM     15  C   UNL     1      -7.625  -9.369  10.785  0.00  0.00    +0.119 C 
ATOM     16  C   UNL     1      -7.634 -12.670  12.185  0.00  0.00    +0.130 C 
ATOM     17  C   UNL     1      -8.383 -10.408  12.940  0.00  0.00    +0.026 A 
ATOM     18  C   UNL     1      -8.599  -9.521  13.926  0.00  0.00    +0.024 A 
ATOM     19  C   UNL     1      -7.344 -11.977  14.518  0.00  0.00    +0.273 A 
ATOM     20  C   UNL     1      -7.581 -10.952  15.583  0.00  0.00    +0.099 A 
ATOM     21  C   UNL     1      -8.187  -9.801  15.272  0.00  0.00    +0.030 A 
ENDROOT
BRANCH  20  10
ATOM      6  O   UNL     1      -5.203  -9.996  16.860  0.00  0.00    -0.275 OA
ATOM     10  N   UNL     1      -7.172 -11.241  16.851  0.00  0.00    -0.281 N 
ATOM     27  C   UNL     1      -6.004 -10.745  17.417  0.00  0.00    +0.220 C 
ATOM     33  H   UNL     1      -7.631 -12.021  17.314  0.00  0.00    +0.155 HD
BRANCH  27  29
ATOM     29  C   UNL     1      -5.822 -11.244  18.842  0.00  0.00    +0.124 C 
BRANCH  29  30
ATOM     30  C   UNL     1      -7.066 -11.922  19.397  0.00  0.00    +0.168 C 
BRANCH  30   7
ATOM      7  O   UNL     1      -8.005 -10.932  19.796  0.00  0.00    -0.382 OA
ATOM     32  C   UNL     1      -9.334 -11.435  19.776  0.00  0.00    +0.194 C 
ENDBRANCH  30   7
ENDBRANCH  29  30
ENDBRANCH  27  29
ENDBRANCH  20  10
BRANCH   8   1
ATOM      1  S   UNL     1      -4.983  -9.538  10.182  0.00  0.00    +0.061 S 
ATOM      2  O   UNL     1      -5.141  -8.099  10.222  0.00  0.00    -0.153 OA
ATOM      3  O   UNL     1      -4.513 -10.202   8.985  0.00  0.00    -0.153 OA
BRANCH   1  22
ATOM     22  C   UNL     1      -3.919  -9.999  11.513  0.00  0.00    +0.106 A 
ATOM     23  C   UNL     1      -4.471 -10.316  12.743  0.00  0.00    +0.032 A 
ATOM     24  C   UNL     1      -2.551 -10.037  11.305  0.00  0.00    +0.032 A 
ATOM     25  C   UNL     1      -3.631 -10.680  13.795  0.00  0.00    +0.047 A 
ATOM     26  C   UNL     1      -1.710 -10.401  12.357  0.00  0.00    +0.047 A 
ATOM     28  C   UNL     1      -2.251 -10.723  13.602  0.00  0.00    +0.120 A 
BRANCH  28   5
ATOM      5  O   UNL     1      -1.430 -11.080  14.628  0.00  0.00    -0.495 OA
ATOM     31  C   UNL     1      -1.828 -10.691  15.942  0.00  0.00    +0.277 C 
ENDBRANCH  28   5
ENDBRANCH   1  22
ENDBRANCH   8   1
TORSDOF 7
ENDMDL
MODEL 7
REMARK VINA RESULT:      -5.6     25.467     29.152
REMARK  Name = 11884461
REMARK  9 active torsions:
REMARK  status: ('A' for Active; 'I' for Inactive)
REMARK    1  A    between atoms: S_1  and  N_8
REMARK    2  A    between atoms: S_1  and  C_22
REMARK    3  A    between atoms: O_5  and  C_28
REMARK    4  A    between atoms: O_5  and  C_31
REMARK    5  A    between atoms: O_7  and  C_30
REMARK    6  A    between atoms: O_7  and  C_32
REMARK    7  A    between atoms: N_10  and  C_20
REMARK    8  A    between atoms: C_27  and  C_29
REMARK    9  A    between atoms: C_29  and  C_30
REMARK                            x       y       z     vdW  Elec       q    Type
REMARK                         _______ _______ _______ _____ _____    ______ ____
ROOT
ATOM      4  O   UNL     1      -5.357 -13.440  16.256  0.00  0.00    -0.266 OA
ATOM      8  N   UNL     1      -9.652 -11.608  17.993  0.00  0.00    -0.176 NA
ATOM      9  N   UNL     1      -6.820 -13.013  18.027  0.00  0.00    -0.310 N 
ATOM     11  C   UNL     1      -9.158 -14.049  18.176  0.00  0.00    +0.025 C 
ATOM     12  C   UNL     1      -8.390 -12.515  19.934  0.00  0.00    +0.052 C 
ATOM     13  C   UNL     1      -8.972 -13.903  19.681  0.00  0.00    +0.017 C 
ATOM     14  C   UNL     1     -10.125 -12.978  17.645  0.00  0.00    +0.114 C 
ATOM     15  C   UNL     1      -9.385 -11.444  19.453  0.00  0.00    +0.119 C 
ATOM     16  C   UNL     1      -7.785 -13.985  17.495  0.00  0.00    +0.130 C 
ATOM     17  C   UNL     1      -7.054 -12.347  19.235  0.00  0.00    +0.026 A 
ATOM     18  C   UNL     1      -6.109 -11.549  19.760  0.00  0.00    +0.024 A 
ATOM     19  C   UNL     1      -5.613 -12.863  17.314  0.00  0.00    +0.273 A 
ATOM     20  C   UNL     1      -4.597 -11.947  17.921  0.00  0.00    +0.099 A 
ATOM     21  C   UNL     1      -4.858 -11.346  19.086  0.00  0.00    +0.030 A 
ENDROOT
BRANCH  20  10
ATOM      6  O   UNL     1      -4.150 -10.179  15.713  0.00  0.00    -0.275 OA
ATOM     10  N   UNL     1      -3.421 -11.766  17.255  0.00  0.00    -0.281 N 
ATOM     27  C   UNL     1      -3.266 -10.890  16.186  0.00  0.00    +0.220 C 
ATOM     33  H   UNL     1      -2.694 -12.460  17.410  0.00  0.00    +0.155 HD
BRANCH  27  29
ATOM     29  C   UNL     1      -1.841 -10.910  15.656  0.00  0.00    +0.124 C 
BRANCH  29  30
ATOM     30  C   UNL     1      -1.675 -11.798  14.431  0.00  0.00    +0.168 C 
BRANCH  30   7
ATOM      7  O   UNL     1      -2.520 -12.935  14.555  0.00  0.00    -0.382 OA
ATOM     32  C   UNL     1      -3.107 -13.286  13.309  0.00  0.00    +0.194 C 
ENDBRANCH  30   7
ENDBRANCH  29  30
ENDBRANCH  27  29
ENDBRANCH  20  10
BRANCH   8   1
ATOM      1  S   UNL     1     -10.498 -10.321  17.246  0.00  0.00    +0.061 S 
ATOM      2  O   UNL     1     -10.280  -9.108  18.006  0.00  0.00    -0.153 OA
ATOM      3  O   UNL     1     -11.836 -10.764  16.919  0.00  0.00    -0.153 OA
BRANCH   1  22
ATOM     22  C   UNL     1      -9.587 -10.183  15.741  0.00  0.00    +0.106 A 
ATOM     23  C   UNL     1      -8.231 -10.466  15.741  0.00  0.00    +0.032 A 
ATOM     24  C   UNL     1     -10.243  -9.794  14.585  0.00  0.00    +0.032 A 
ATOM     25  C   UNL     1      -7.511 -10.357  14.551  0.00  0.00    +0.047 A 
ATOM     26  C   UNL     1      -9.523  -9.685  13.395  0.00  0.00    +0.047 A 
ATOM     28  C   UNL     1      -8.156  -9.966  13.378  0.00  0.00    +0.120 A 
BRANCH  28   5
ATOM      5  O   UNL     1      -7.454  -9.861  12.217  0.00  0.00    -0.495 OA
ATOM     31  C   UNL     1      -6.288  -9.039  12.236  0.00  0.00    +0.277 C 
ENDBRANCH  28   5
ENDBRANCH   1  22
ENDBRANCH   8   1
TORSDOF 7
ENDMDL
MODEL 8
REMARK VINA RESULT:      -5.6      3.037      4.332
REMARK  Name = 11884461
REMARK  9 active torsions:
REMARK  status: ('A' for Active; 'I' for Inactive)
REMARK    1  A    between atoms: S_1  and  N_8
REMARK    2  A    between atoms: S_1  and  C_22
REMARK    3  A    between atoms: O_5  and  C_28
REMARK    4  A    between atoms: O_5  and  C_31
REMARK    5  A    between atoms: O_7  and  C_30
REMARK    6  A    between atoms: O_7  and  C_32
REMARK    7  A    between atoms: N_10  and  C_20
REMARK    8  A    between atoms: C_27  and  C_29
REMARK    9  A    between atoms: C_29  and  C_30
REMARK                            x       y       z     vdW  Elec       q    Type
REMARK                         _______ _______ _______ _____ _____    ______ ____
ROOT
ATOM      4  O   UNL     1      11.066   7.488   0.959  0.00  0.00    -0.266 OA
ATOM      8  N   UNL     1      11.982   3.688  -2.133  0.00  0.00    -0.176 NA
ATOM      9  N   UNL     1      12.215   5.521   0.433  0.00  0.00    -0.310 N 
ATOM     11  C   UNL     1      13.783   5.328  -1.582  0.00  0.00    +0.025 C 
ATOM     12  C   UNL     1      13.421   3.382  -0.128  0.00  0.00    +0.052 C 
ATOM     13  C   UNL     1      14.496   4.272  -0.747  0.00  0.00    +0.017 C 
ATOM     14  C   UNL     1      12.955   4.667  -2.696  0.00  0.00    +0.114 C 
ATOM     15  C   UNL     1      12.630   2.677  -1.244  0.00  0.00    +0.119 C 
ATOM     16  C   UNL     1      12.927   6.202  -0.657  0.00  0.00    +0.130 C 
ATOM     17  C   UNL     1      12.487   4.188   0.755  0.00  0.00    +0.026 A 
ATOM     18  C   UNL     1      11.908   3.620   1.826  0.00  0.00    +0.024 A 
ATOM     19  C   UNL     1      11.325   6.306   1.195  0.00  0.00    +0.273 A 
ATOM     20  C   UNL     1      10.683   5.628   2.365  0.00  0.00    +0.099 A 
ATOM     21  C   UNL     1      10.987   4.357   2.644  0.00  0.00    +0.030 A 
ENDROOT
BRANCH  20  10
ATOM      6  O   UNL     1      11.305   7.126   4.725  0.00  0.00    -0.275 OA
ATOM     10  N   UNL     1       9.805   6.351   3.119  0.00  0.00    -0.281 N 
ATOM     27  C   UNL     1      10.169   7.059   4.258  0.00  0.00    +0.220 C 
ATOM     33  H   UNL     1       8.816   6.180   2.960  0.00  0.00    +0.155 HD
BRANCH  27  29
ATOM     29  C   UNL     1       8.972   7.763   4.879  0.00  0.00    +0.124 C 
BRANCH  29  30
ATOM     30  C   UNL     1       8.197   6.877   5.844  0.00  0.00    +0.168 C 
BRANCH  30   7
ATOM      7  O   UNL     1       7.918   7.605   7.033  0.00  0.00    -0.382 OA
ATOM     32  C   UNL     1       9.015   7.570   7.935  0.00  0.00    +0.194 C 
ENDBRANCH  30   7
ENDBRANCH  29  30
ENDBRANCH  27  29
ENDBRANCH  20  10
BRANCH   8   1
ATOM      1  S   UNL     1      10.828   3.072  -3.236  0.00  0.00    +0.061 S 
ATOM      2  O   UNL     1      10.241   1.869  -2.684  0.00  0.00    -0.153 OA
ATOM      3  O   UNL     1      11.397   3.081  -4.566  0.00  0.00    -0.153 OA
BRANCH   1  22
ATOM     22  C   UNL     1       9.611   4.349  -3.157  0.00  0.00    +0.106 A 
ATOM     23  C   UNL     1       8.697   4.479  -4.190  0.00  0.00    +0.032 A 
ATOM     24  C   UNL     1       9.591   5.199  -2.064  0.00  0.00    +0.032 A 
ATOM     25  C   UNL     1       7.736   5.487  -4.128  0.00  0.00    +0.047 A 
ATOM     26  C   UNL     1       8.629   6.209  -2.002  0.00  0.00    +0.047 A 
ATOM     28  C   UNL     1       7.702   6.353  -3.035  0.00  0.00    +0.120 A 
BRANCH  28   5
ATOM      5  O   UNL     1       6.763   7.336  -2.973  0.00  0.00    -0.495 OA
ATOM     31  C   UNL     1       5.401   6.944  -3.135  0.00  0.00    +0.277 C 
ENDBRANCH  28   5
ENDBRANCH   1  22
ENDBRANCH   8   1
TORSDOF 7
ENDMDL
MODEL 9
REMARK VINA RESULT:      -5.5     24.561     28.612
REMARK  Name = 11884461
REMARK  9 active torsions:
REMARK  status: ('A' for Active; 'I' for Inactive)
REMARK    1  A    between atoms: S_1  and  N_8
REMARK    2  A    between atoms: S_1  and  C_22
REMARK    3  A    between atoms: O_5  and  C_28
REMARK    4  A    between atoms: O_5  and  C_31
REMARK    5  A    between atoms: O_7  and  C_30
REMARK    6  A    between atoms: O_7  and  C_32
REMARK    7  A    between atoms: N_10  and  C_20
REMARK    8  A    between atoms: C_27  and  C_29
REMARK    9  A    between atoms: C_29  and  C_30
REMARK                            x       y       z     vdW  Elec       q    Type
REMARK                         _______ _______ _______ _____ _____    ______ ____
ROOT
ATOM      4  O   UNL     1      -5.736 -13.503  14.373  0.00  0.00    -0.266 OA
ATOM      8  N   UNL     1      -7.609 -11.497  18.532  0.00  0.00    -0.176 NA
ATOM      9  N   UNL     1      -5.583 -12.001  16.158  0.00  0.00    -0.310 N 
ATOM     11  C   UNL     1      -5.456 -12.760  18.601  0.00  0.00    +0.025 C 
ATOM     12  C   UNL     1      -5.446 -10.363  18.067  0.00  0.00    +0.052 C 
ATOM     13  C   UNL     1      -4.694 -11.458  18.817  0.00  0.00    +0.017 C 
ATOM     14  C   UNL     1      -6.887 -12.645  19.151  0.00  0.00    +0.114 C 
ATOM     15  C   UNL     1      -6.859 -10.211  18.656  0.00  0.00    +0.119 C 
ATOM     16  C   UNL     1      -5.429 -13.112  17.108  0.00  0.00    +0.130 C 
ATOM     17  C   UNL     1      -5.521 -10.670  16.583  0.00  0.00    +0.026 A 
ATOM     18  C   UNL     1      -5.551  -9.673  15.683  0.00  0.00    +0.024 A 
ATOM     19  C   UNL     1      -5.694 -12.345  14.795  0.00  0.00    +0.273 A 
ATOM     20  C   UNL     1      -5.748 -11.204  13.828  0.00  0.00    +0.099 A 
ATOM     21  C   UNL     1      -5.668  -9.949  14.279  0.00  0.00    +0.030 A 
ENDROOT
BRANCH  20  10
ATOM      6  O   UNL     1      -8.172 -11.212  12.304  0.00  0.00    -0.275 OA
ATOM     10  N   UNL     1      -5.868 -11.496  12.501  0.00  0.00    -0.281 N 
ATOM     27  C   UNL     1      -7.077 -11.483  11.815  0.00  0.00    +0.220 C 
ATOM     33  H   UNL     1      -5.074 -11.950  12.058  0.00  0.00    +0.155 HD
BRANCH  27  29
ATOM     29  C   UNL     1      -6.886 -11.850  10.351  0.00  0.00    +0.124 C 
BRANCH  29  30
ATOM     30  C   UNL     1      -6.030 -10.846   9.593  0.00  0.00    +0.168 C 
BRANCH  30   7
ATOM      7  O   UNL     1      -6.014  -9.611  10.299  0.00  0.00    -0.382 OA
ATOM     32  C   UNL     1      -6.423  -8.532   9.470  0.00  0.00    +0.194 C 
ENDBRANCH  30   7
ENDBRANCH  29  30
ENDBRANCH  27  29
ENDBRANCH  20  10
BRANCH   8   1
ATOM      1  S   UNL     1      -9.286 -11.411  18.864  0.00  0.00    +0.061 S 
ATOM      2  O   UNL     1      -9.478 -10.859  20.189  0.00  0.00    -0.153 OA
ATOM      3  O   UNL     1      -9.906 -12.661  18.482  0.00  0.00    -0.153 OA
BRANCH   1  22
ATOM     22  C   UNL     1      -9.771 -10.182  17.693  0.00  0.00    +0.106 A 
ATOM     23  C   UNL     1     -10.551  -9.117  18.113  0.00  0.00    +0.032 A 
ATOM     24  C   UNL     1      -9.365 -10.304  16.375  0.00  0.00    +0.032 A 
ATOM     25  C   UNL     1     -10.936  -8.147  17.188  0.00  0.00    +0.047 A 
ATOM     26  C   UNL     1      -9.749  -9.333  15.449  0.00  0.00    +0.047 A 
ATOM     28  C   UNL     1     -10.535  -8.255  15.856  0.00  0.00    +0.120 A 
BRANCH  28   5
ATOM      5  O   UNL     1     -10.908  -7.307  14.953  0.00  0.00    -0.495 OA
ATOM     31  C   UNL     1     -11.146  -5.992  15.454  0.00  0.00    +0.277 C 
ENDBRANCH  28   5
ENDBRANCH   1  22
ENDBRANCH   8   1
TORSDOF 7
ENDMDL
MODEL 10
REMARK VINA RESULT:      -5.5     24.738     28.244
REMARK  Name = 11884461
REMARK  9 active torsions:
REMARK  status: ('A' for Active; 'I' for Inactive)
REMARK    1  A    between atoms: S_1  and  N_8
REMARK    2  A    between atoms: S_1  and  C_22
REMARK    3  A    between atoms: O_5  and  C_28
REMARK    4  A    between atoms: O_5  and  C_31
REMARK    5  A    between atoms: O_7  and  C_30
REMARK    6  A    between atoms: O_7  and  C_32
REMARK    7  A    between atoms: N_10  and  C_20
REMARK    8  A    between atoms: C_27  and  C_29
REMARK    9  A    between atoms: C_29  and  C_30
REMARK                            x       y       z     vdW  Elec       q    Type
REMARK                         _______ _______ _______ _____ _____    ______ ____
ROOT
ATOM      4  O   UNL     1      -5.317 -14.059  15.608  0.00  0.00    -0.266 OA
ATOM      8  N   UNL     1      -8.616 -10.868  17.547  0.00  0.00    -0.176 NA
ATOM      9  N   UNL     1      -6.055 -12.713  17.371  0.00  0.00    -0.310 N 
ATOM     11  C   UNL     1      -8.274 -13.113  18.586  0.00  0.00    +0.025 C 
ATOM     12  C   UNL     1      -6.841 -11.232  19.251  0.00  0.00    +0.052 C 
ATOM     13  C   UNL     1      -7.577 -12.462  19.774  0.00  0.00    +0.017 C 
ATOM     14  C   UNL     1      -9.280 -12.140  17.951  0.00  0.00    +0.114 C 
ATOM     15  C   UNL     1      -7.857 -10.234  18.667  0.00  0.00    +0.119 C 
ATOM     16  C   UNL     1      -7.213 -13.592  17.586  0.00  0.00    +0.130 C 
ATOM     17  C   UNL     1      -5.813 -11.616  18.203  0.00  0.00    +0.026 A 
ATOM     18  C   UNL     1      -4.689 -10.894  18.059  0.00  0.00    +0.024 A 
ATOM     19  C   UNL     1      -5.154 -13.092  16.354  0.00  0.00    +0.273 A 
ATOM     20  C   UNL     1      -3.926 -12.247  16.211  0.00  0.00    +0.099 A 
ATOM     21  C   UNL     1      -3.730 -11.218  17.041  0.00  0.00    +0.030 A 
ENDROOT
BRANCH  20  10
ATOM      6  O   UNL     1      -3.217 -10.631  13.956  0.00  0.00    -0.275 OA
ATOM     10  N   UNL     1      -3.037 -12.574  15.230  0.00  0.00    -0.281 N 
ATOM     27  C   UNL     1      -2.733 -11.744  14.157  0.00  0.00    +0.220 C 
ATOM     33  H   UNL     1      -2.755 -13.549  15.173  0.00  0.00    +0.155 HD
BRANCH  27  29
ATOM     29  C   UNL     1      -1.707 -12.384  13.235  0.00  0.00    +0.124 C 
BRANCH  29  30
ATOM     30  C   UNL     1      -2.050 -13.821  12.870  0.00  0.00    +0.168 C 
BRANCH  30   7
ATOM      7  O   UNL     1      -1.522 -14.698  13.857  0.00  0.00    -0.382 OA
ATOM     32  C   UNL     1      -0.419 -15.441  13.356  0.00  0.00    +0.194 C 
ENDBRANCH  30   7
ENDBRANCH  29  30
ENDBRANCH  27  29
ENDBRANCH  20  10
BRANCH   8   1
ATOM      1  S   UNL     1      -9.565  -9.804  16.602  0.00  0.00    +0.061 S 
ATOM      2  O   UNL     1      -9.457  -8.465  17.143  0.00  0.00    -0.153 OA
ATOM      3  O   UNL     1     -10.859 -10.409  16.367  0.00  0.00    -0.153 OA
BRANCH   1  22
ATOM     22  C   UNL     1      -8.662  -9.846  15.086  0.00  0.00    +0.106 A 
ATOM     23  C   UNL     1      -9.333  -9.638  13.891  0.00  0.00    +0.032 A 
ATOM     24  C   UNL     1      -7.299 -10.088  15.116  0.00  0.00    +0.032 A 
ATOM     25  C   UNL     1      -8.620  -9.672  12.693  0.00  0.00    +0.047 A 
ATOM     26  C   UNL     1      -6.585 -10.121  13.917  0.00  0.00    +0.047 A 
ATOM     28  C   UNL     1      -7.246  -9.914  12.706  0.00  0.00    +0.120 A 
BRANCH  28   5
ATOM      5  O   UNL     1      -6.549  -9.946  11.537  0.00  0.00    -0.495 OA
ATOM     31  C   UNL     1      -5.559  -8.937  11.345  0.00  0.00    +0.277 C 
ENDBRANCH  28   5
ENDBRANCH   1  22
ENDBRANCH   8   1
TORSDOF 7
ENDMDL
