MODEL 1
REMARK VINA RESULT:      -6.6      0.000      0.000
REMARK  Name = 56774370
REMARK  9 active torsions:
REMARK  status: ('A' for Active; 'I' for Inactive)
REMARK    1  A    between atoms: N_3  and  C_7
REMARK    2  A    between atoms: N_3  and  C_14
REMARK    3  A    between atoms: N_5  and  C_20
REMARK    4  A    between atoms: C_6  and  C_12
REMARK    5  A    between atoms: C_6  and  C_13
REMARK    6  A    between atoms: C_8  and  C_10
REMARK    7  A    between atoms: C_10  and  C_17
REMARK    8  A    between atoms: C_11  and  C_14
REMARK    9  A    between atoms: C_19  and  C_20
REMARK                            x       y       z     vdW  Elec       q    Type
REMARK                         _______ _______ _______ _____ _____    ______ ____
ROOT
ATOM     10  C   UNL     1      18.619   6.518  21.062  0.00  0.00    +0.063 C 
ENDROOT
BRANCH  10   8
ATOM      6  C   UNL     1      21.241   6.458  20.961  0.00  0.00    -0.016 C 
ATOM      7  C   UNL     1      21.751   5.114  20.400  0.00  0.00    +0.060 C 
ATOM      8  C   UNL     1      19.889   6.138  20.291  0.00  0.00    +0.004 C 
ATOM      9  C   UNL     1      20.280   4.648  20.392  0.00  0.00    +0.023 C 
ATOM     12  C   UNL     1      21.159   6.606  22.465  0.00  0.00    +0.013 C 
ATOM     13  C   UNL     1      21.997   7.643  20.382  0.00  0.00    +0.013 C 
BRANCH   7   3
ATOM      3  N   UNL     1      22.481   4.359  21.418  0.00  0.00    -0.312 NA
ATOM     25  H   UNL     1      21.914   3.646  21.878  0.00  0.00    +0.122 HD
BRANCH   3  14
ATOM     14  C   UNL     1      23.632   3.703  20.806  0.00  0.00    +0.084 C 
BRANCH  14  11
ATOM     11  C   UNL     1      23.601   2.226  21.033  0.00  0.00    +0.003 C 
ATOM     15  C   UNL     1      24.894   1.480  21.180  0.00  0.00    +0.005 C 
ATOM     16  C   UNL     1      24.005   1.682  22.371  0.00  0.00    +0.005 C 
ENDBRANCH  14  11
ENDBRANCH   3  14
ENDBRANCH   7   3
ENDBRANCH  10   8
BRANCH  10  17
ATOM      1  O   UNL     1      16.121   6.031  18.557  0.00  0.00    -0.358 OA
ATOM      4  N   UNL     1      17.301   5.679  19.200  0.00  0.00    -0.083 NA
ATOM     17  C   UNL     1      17.453   6.588  20.167  0.00  0.00    +0.084 A 
ATOM     18  C   UNL     1      16.410   7.529  20.182  0.00  0.00    +0.072 A 
ATOM     19  C   UNL     1      15.599   7.135  19.150  0.00  0.00    +0.151 A 
BRANCH  19  20
ATOM     20  C   UNL     1      14.310   7.660  18.578  0.00  0.00    +0.161 C 
BRANCH  20   5
ATOM      2  O   UNL     1      10.700   7.502  20.713  0.00  0.00    -0.377 OA
ATOM      5  N   UNL     1      13.300   7.867  19.614  0.00  0.00    -0.291 NA
ATOM     21  C   UNL     1      12.889   6.586  20.206  0.00  0.00    +0.113 C 
ATOM     22  C   UNL     1      12.130   8.568  19.068  0.00  0.00    +0.113 C 
ATOM     23  C   UNL     1      11.826   6.826  21.274  0.00  0.00    +0.175 C 
ATOM     24  C   UNL     1      11.086   8.762  20.164  0.00  0.00    +0.175 C 
ENDBRANCH  20   5
ENDBRANCH  19  20
ENDBRANCH  10  17
TORSDOF 7
ENDMDL
MODEL 2
REMARK VINA RESULT:      -6.4     27.328     30.074
REMARK  Name = 56774370
REMARK  9 active torsions:
REMARK  status: ('A' for Active; 'I' for Inactive)
REMARK    1  A    between atoms: N_3  and  C_7
REMARK    2  A    between atoms: N_3  and  C_14
REMARK    3  A    between atoms: N_5  and  C_20
REMARK    4  A    between atoms: C_6  and  C_12
REMARK    5  A    between atoms: C_6  and  C_13
REMARK    6  A    between atoms: C_8  and  C_10
REMARK    7  A    between atoms: C_10  and  C_17
REMARK    8  A    between atoms: C_11  and  C_14
REMARK    9  A    between atoms: C_19  and  C_20
REMARK                            x       y       z     vdW  Elec       q    Type
REMARK                         _______ _______ _______ _____ _____    ______ ____
ROOT
ATOM     10  C   UNL     1      -3.998 -10.763  17.062  0.00  0.00    +0.063 C 
ENDROOT
BRANCH  10   8
ATOM      6  C   UNL     1      -6.507 -11.169  17.722  0.00  0.00    -0.016 C 
ATOM      7  C   UNL     1      -7.445 -10.185  16.992  0.00  0.00    +0.060 C 
ATOM      8  C   UNL     1      -5.465 -10.870  16.625  0.00  0.00    +0.004 C 
ATOM      9  C   UNL     1      -6.176  -9.514  16.427  0.00  0.00    +0.023 C 
ATOM     12  C   UNL     1      -6.049 -10.800  19.117  0.00  0.00    +0.013 C 
ATOM     13  C   UNL     1      -7.059 -12.584  17.735  0.00  0.00    +0.013 C 
BRANCH   7   3
ATOM      3  N   UNL     1      -8.086  -9.267  17.935  0.00  0.00    -0.312 NA
ATOM     25  H   UNL     1      -7.750  -8.307  17.857  0.00  0.00    +0.122 HD
BRANCH   3  14
ATOM     14  C   UNL     1      -9.528  -9.269  17.712  0.00  0.00    +0.084 C 
BRANCH  14  11
ATOM     11  C   UNL     1     -10.185 -10.413  18.414  0.00  0.00    +0.003 C 
ATOM     15  C   UNL     1      -9.756 -10.761  19.809  0.00  0.00    +0.005 C 
ATOM     16  C   UNL     1     -11.099 -10.136  19.570  0.00  0.00    +0.005 C 
ENDBRANCH  14  11
ENDBRANCH   3  14
ENDBRANCH   7   3
ENDBRANCH  10   8
BRANCH  10  17
ATOM      1  O   UNL     1      -1.235 -10.639  14.803  0.00  0.00    -0.358 OA
ATOM      4  N   UNL     1      -1.775 -10.661  16.082  0.00  0.00    -0.083 NA
ATOM     17  C   UNL     1      -3.097 -10.723  15.899  0.00  0.00    +0.084 A 
ATOM     18  C   UNL     1      -3.447 -10.744  14.538  0.00  0.00    +0.072 A 
ATOM     19  C   UNL     1      -2.240 -10.689  13.891  0.00  0.00    +0.151 A 
BRANCH  19  20
ATOM     20  C   UNL     1      -1.834 -10.675  12.442  0.00  0.00    +0.161 C 
BRANCH  20   5
ATOM      2  O   UNL     1      -4.221 -10.417   8.999  0.00  0.00    -0.377 OA
ATOM      5  N   UNL     1      -2.977 -10.450  11.559  0.00  0.00    -0.291 NA
ATOM     21  C   UNL     1      -3.360 -11.694  10.874  0.00  0.00    +0.113 C 
ATOM     22  C   UNL     1      -2.676  -9.404  10.572  0.00  0.00    +0.113 C 
ATOM     23  C   UNL     1      -4.546 -11.431   9.950  0.00  0.00    +0.175 C 
ATOM     24  C   UNL     1      -3.879  -9.197   9.656  0.00  0.00    +0.175 C 
ENDBRANCH  20   5
ENDBRANCH  19  20
ENDBRANCH  10  17
TORSDOF 7
ENDMDL
MODEL 3
REMARK VINA RESULT:      -6.3      1.567      2.068
REMARK  Name = 56774370
REMARK  9 active torsions:
REMARK  status: ('A' for Active; 'I' for Inactive)
REMARK    1  A    between atoms: N_3  and  C_7
REMARK    2  A    between atoms: N_3  and  C_14
REMARK    3  A    between atoms: N_5  and  C_20
REMARK    4  A    between atoms: C_6  and  C_12
REMARK    5  A    between atoms: C_6  and  C_13
REMARK    6  A    between atoms: C_8  and  C_10
REMARK    7  A    between atoms: C_10  and  C_17
REMARK    8  A    between atoms: C_11  and  C_14
REMARK    9  A    between atoms: C_19  and  C_20
REMARK                            x       y       z     vdW  Elec       q    Type
REMARK                         _______ _______ _______ _____ _____    ______ ____
ROOT
ATOM     10  C   UNL     1      19.107   6.358  21.271  0.00  0.00    +0.063 C 
ENDROOT
BRANCH  10   8
ATOM      6  C   UNL     1      21.703   6.518  20.912  0.00  0.00    -0.016 C 
ATOM      7  C   UNL     1      22.276   5.197  20.356  0.00  0.00    +0.060 C 
ATOM      8  C   UNL     1      20.328   6.051  20.393  0.00  0.00    +0.004 C 
ATOM      9  C   UNL     1      20.859   4.607  20.512  0.00  0.00    +0.023 C 
ATOM     12  C   UNL     1      21.752   6.730  22.410  0.00  0.00    +0.013 C 
ATOM     13  C   UNL     1      22.290   7.734  20.215  0.00  0.00    +0.013 C 
BRANCH   7   3
ATOM      3  N   UNL     1      23.165   4.557  21.326  0.00  0.00    -0.312 NA
ATOM     25  H   UNL     1      22.796   3.680  21.695  0.00  0.00    +0.122 HD
BRANCH   3  14
ATOM     14  C   UNL     1      24.454   4.284  20.698  0.00  0.00    +0.084 C 
BRANCH  14  11
ATOM     11  C   UNL     1      24.554   2.859  20.259  0.00  0.00    +0.003 C 
ATOM     15  C   UNL     1      25.212   1.858  21.163  0.00  0.00    +0.005 C 
ATOM     16  C   UNL     1      23.727   1.818  20.955  0.00  0.00    +0.005 C 
ENDBRANCH  14  11
ENDBRANCH   3  14
ENDBRANCH   7   3
ENDBRANCH  10   8
BRANCH  10  17
ATOM      1  O   UNL     1      16.530   5.883  18.845  0.00  0.00    -0.358 OA
ATOM      4  N   UNL     1      17.822   5.690  19.319  0.00  0.00    -0.083 NA
ATOM     17  C   UNL     1      17.867   6.349  20.480  0.00  0.00    +0.084 A 
ATOM     18  C   UNL     1      16.645   6.972  20.788  0.00  0.00    +0.072 A 
ATOM     19  C   UNL     1      15.838   6.648  19.728  0.00  0.00    +0.151 A 
BRANCH  19  20
ATOM     20  C   UNL     1      14.409   6.960  19.373  0.00  0.00    +0.161 C 
BRANCH  20   5
ATOM      2  O   UNL     1      12.885   9.835  16.723  0.00  0.00    -0.377 OA
ATOM      5  N   UNL     1      14.307   8.131  18.504  0.00  0.00    -0.291 NA
ATOM     21  C   UNL     1      13.265   9.048  18.987  0.00  0.00    +0.113 C 
ATOM     22  C   UNL     1      14.023   7.729  17.120  0.00  0.00    +0.113 C 
ATOM     23  C   UNL     1      13.168  10.256  18.058  0.00  0.00    +0.175 C 
ATOM     24  C   UNL     1      13.909   8.968  16.236  0.00  0.00    +0.175 C 
ENDBRANCH  20   5
ENDBRANCH  19  20
ENDBRANCH  10  17
TORSDOF 7
ENDMDL
MODEL 4
REMARK VINA RESULT:      -6.3      1.467      1.951
REMARK  Name = 56774370
REMARK  9 active torsions:
REMARK  status: ('A' for Active; 'I' for Inactive)
REMARK    1  A    between atoms: N_3  and  C_7
REMARK    2  A    between atoms: N_3  and  C_14
REMARK    3  A    between atoms: N_5  and  C_20
REMARK    4  A    between atoms: C_6  and  C_12
REMARK    5  A    between atoms: C_6  and  C_13
REMARK    6  A    between atoms: C_8  and  C_10
REMARK    7  A    between atoms: C_10  and  C_17
REMARK    8  A    between atoms: C_11  and  C_14
REMARK    9  A    between atoms: C_19  and  C_20
REMARK                            x       y       z     vdW  Elec       q    Type
REMARK                         _______ _______ _______ _____ _____    ______ ____
ROOT
ATOM     10  C   UNL     1      19.375   7.919  21.802  0.00  0.00    +0.063 C 
ENDROOT
BRANCH  10   8
ATOM      6  C   UNL     1      20.905   5.872  21.198  0.00  0.00    -0.016 C 
ATOM      7  C   UNL     1      21.597   5.300  22.452  0.00  0.00    +0.060 C 
ATOM      8  C   UNL     1      19.875   6.511  22.152  0.00  0.00    +0.004 C 
ATOM      9  C   UNL     1      20.971   6.470  23.238  0.00  0.00    +0.023 C 
ATOM     12  C   UNL     1      21.674   6.876  20.366  0.00  0.00    +0.013 C 
ATOM     13  C   UNL     1      20.369   4.777  20.291  0.00  0.00    +0.013 C 
BRANCH   7   3
ATOM      3  N   UNL     1      23.047   5.493  22.390  0.00  0.00    -0.312 NA
ATOM     25  H   UNL     1      23.380   6.246  22.993  0.00  0.00    +0.122 HD
BRANCH   3  14
ATOM     14  C   UNL     1      23.719   4.259  22.784  0.00  0.00    +0.084 C 
BRANCH  14  11
ATOM     11  C   UNL     1      23.146   3.077  22.070  0.00  0.00    +0.003 C 
ATOM     15  C   UNL     1      23.666   2.719  20.709  0.00  0.00    +0.005 C 
ATOM     16  C   UNL     1      23.989   1.850  21.889  0.00  0.00    +0.005 C 
ENDBRANCH  14  11
ENDBRANCH   3  14
ENDBRANCH   7   3
ENDBRANCH  10   8
BRANCH  10  17
ATOM      1  O   UNL     1      16.155   8.616  20.424  0.00  0.00    -0.358 OA
ATOM      4  N   UNL     1      17.378   9.013  20.951  0.00  0.00    -0.083 NA
ATOM     17  C   UNL     1      18.024   7.875  21.222  0.00  0.00    +0.084 A 
ATOM     18  C   UNL     1      17.266   6.740  20.890  0.00  0.00    +0.072 A 
ATOM     19  C   UNL     1      16.100   7.261  20.392  0.00  0.00    +0.151 A 
BRANCH  19  20
ATOM     20  C   UNL     1      14.836   6.652  19.845  0.00  0.00    +0.161 C 
BRANCH  20   5
ATOM      2  O   UNL     1      10.866   7.950  20.253  0.00  0.00    -0.377 OA
ATOM      5  N   UNL     1      13.672   7.500  20.093  0.00  0.00    -0.291 NA
ATOM     21  C   UNL     1      12.871   6.973  21.208  0.00  0.00    +0.113 C 
ATOM     22  C   UNL     1      12.842   7.612  18.886  0.00  0.00    +0.113 C 
ATOM     23  C   UNL     1      11.656   7.866  21.440  0.00  0.00    +0.175 C 
ATOM     24  C   UNL     1      11.628   8.491  19.174  0.00  0.00    +0.175 C 
ENDBRANCH  20   5
ENDBRANCH  19  20
ENDBRANCH  10  17
TORSDOF 7
ENDMDL
MODEL 5
REMARK VINA RESULT:      -6.2      2.989      9.637
REMARK  Name = 56774370
REMARK  9 active torsions:
REMARK  status: ('A' for Active; 'I' for Inactive)
REMARK    1  A    between atoms: N_3  and  C_7
REMARK    2  A    between atoms: N_3  and  C_14
REMARK    3  A    between atoms: N_5  and  C_20
REMARK    4  A    between atoms: C_6  and  C_12
REMARK    5  A    between atoms: C_6  and  C_13
REMARK    6  A    between atoms: C_8  and  C_10
REMARK    7  A    between atoms: C_10  and  C_17
REMARK    8  A    between atoms: C_11  and  C_14
REMARK    9  A    between atoms: C_19  and  C_20
REMARK                            x       y       z     vdW  Elec       q    Type
REMARK                         _______ _______ _______ _____ _____    ______ ____
ROOT
ATOM     10  C   UNL     1      18.525   7.416  20.963  0.00  0.00    +0.063 C 
ENDROOT
BRANCH  10   8
ATOM      6  C   UNL     1      15.911   7.623  20.824  0.00  0.00    -0.016 C 
ATOM      7  C   UNL     1      15.327   6.667  19.763  0.00  0.00    +0.060 C 
ATOM      8  C   UNL     1      17.162   6.722  20.838  0.00  0.00    +0.004 C 
ATOM      9  C   UNL     1      16.783   6.304  19.402  0.00  0.00    +0.023 C 
ATOM     12  C   UNL     1      16.190   9.051  20.407  0.00  0.00    +0.013 C 
ATOM     13  C   UNL     1      15.090   7.628  22.103  0.00  0.00    +0.013 C 
BRANCH   7   3
ATOM      3  N   UNL     1      14.734   7.410  18.651  0.00  0.00    -0.312 NA
ATOM     25  H   UNL     1      15.130   7.164  17.743  0.00  0.00    +0.122 HD
BRANCH   3  14
ATOM     14  C   UNL     1      13.297   7.159  18.609  0.00  0.00    +0.084 C 
BRANCH  14  11
ATOM     11  C   UNL     1      12.526   8.434  18.496  0.00  0.00    +0.003 C 
ATOM     15  C   UNL     1      12.583   9.427  19.618  0.00  0.00    +0.005 C 
ATOM     16  C   UNL     1      13.266   9.726  18.316  0.00  0.00    +0.005 C 
ENDBRANCH  14  11
ENDBRANCH   3  14
ENDBRANCH   7   3
ENDBRANCH  10   8
BRANCH  10  17
ATOM      1  O   UNL     1      20.847   5.500  22.884  0.00  0.00    -0.358 OA
ATOM      4  N   UNL     1      19.863   6.473  22.760  0.00  0.00    -0.083 NA
ATOM     17  C   UNL     1      19.552   6.488  21.461  0.00  0.00    +0.084 A 
ATOM     18  C   UNL     1      20.301   5.556  20.722  0.00  0.00    +0.072 A 
ATOM     19  C   UNL     1      21.100   4.961  21.664  0.00  0.00    +0.151 A 
BRANCH  19  20
ATOM     20  C   UNL     1      22.147   3.882  21.610  0.00  0.00    +0.161 C 
BRANCH  20   5
ATOM      2  O   UNL     1      25.965   4.532  19.991  0.00  0.00    -0.377 OA
ATOM      5  N   UNL     1      23.220   4.211  20.673  0.00  0.00    -0.291 NA
ATOM     21  C   UNL     1      24.099   3.052  20.459  0.00  0.00    +0.113 C 
ATOM     22  C   UNL     1      24.004   5.355  21.160  0.00  0.00    +0.113 C 
ATOM     23  C   UNL     1      25.217   3.424  19.489  0.00  0.00    +0.175 C 
ATOM     24  C   UNL     1      25.124   5.671  20.172  0.00  0.00    +0.175 C 
ENDBRANCH  20   5
ENDBRANCH  19  20
ENDBRANCH  10  17
TORSDOF 7
ENDMDL
MODEL 6
REMARK VINA RESULT:      -6.1     27.195     29.521
REMARK  Name = 56774370
REMARK  9 active torsions:
REMARK  status: ('A' for Active; 'I' for Inactive)
REMARK    1  A    between atoms: N_3  and  C_7
REMARK    2  A    between atoms: N_3  and  C_14
REMARK    3  A    between atoms: N_5  and  C_20
REMARK    4  A    between atoms: C_6  and  C_12
REMARK    5  A    between atoms: C_6  and  C_13
REMARK    6  A    between atoms: C_8  and  C_10
REMARK    7  A    between atoms: C_10  and  C_17
REMARK    8  A    between atoms: C_11  and  C_14
REMARK    9  A    between atoms: C_19  and  C_20
REMARK                            x       y       z     vdW  Elec       q    Type
REMARK                         _______ _______ _______ _____ _____    ______ ____
ROOT
ATOM     10  C   UNL     1      -2.144 -11.131  13.570  0.00  0.00    +0.063 C 
ENDROOT
BRANCH  10   8
ATOM      6  C   UNL     1      -4.152 -11.594  15.196  0.00  0.00    -0.016 C 
ATOM      7  C   UNL     1      -3.846 -11.092  16.623  0.00  0.00    +0.060 C 
ATOM      8  C   UNL     1      -3.049 -10.634  14.705  0.00  0.00    +0.004 C 
ATOM      9  C   UNL     1      -2.431 -10.746  16.115  0.00  0.00    +0.023 C 
ATOM     12  C   UNL     1      -3.879 -13.050  14.889  0.00  0.00    +0.013 C 
ATOM     13  C   UNL     1      -5.566 -11.248  14.760  0.00  0.00    +0.013 C 
BRANCH   7   3
ATOM      3  N   UNL     1      -3.751 -12.207  17.567  0.00  0.00    -0.312 NA
ATOM     25  H   UNL     1      -2.881 -12.212  18.101  0.00  0.00    +0.122 HD
BRANCH   3  14
ATOM     14  C   UNL     1      -4.866 -12.146  18.506  0.00  0.00    +0.084 C 
BRANCH  14  11
ATOM     11  C   UNL     1      -5.408 -10.757  18.616  0.00  0.00    +0.003 C 
ATOM     15  C   UNL     1      -6.879 -10.528  18.435  0.00  0.00    +0.005 C 
ATOM     16  C   UNL     1      -6.261 -10.395  19.795  0.00  0.00    +0.005 C 
ENDBRANCH  14  11
ENDBRANCH   3  14
ENDBRANCH   7   3
ENDBRANCH  10   8
BRANCH  10  17
ATOM      1  O   UNL     1      -2.012  -9.211  10.562  0.00  0.00    -0.358 OA
ATOM      4  N   UNL     1      -1.421  -9.776  11.685  0.00  0.00    -0.083 NA
ATOM     17  C   UNL     1      -2.414 -10.408  12.318  0.00  0.00    +0.084 A 
ATOM     18  C   UNL     1      -3.643 -10.277  11.647  0.00  0.00    +0.072 A 
ATOM     19  C   UNL     1      -3.335  -9.515  10.550  0.00  0.00    +0.151 A 
BRANCH  19  20
ATOM     20  C   UNL     1      -4.137  -8.980   9.394  0.00  0.00    +0.161 C 
BRANCH  20   5
ATOM      2  O   UNL     1      -6.799 -11.201   7.028  0.00  0.00    -0.377 OA
ATOM      5  N   UNL     1      -5.193  -9.907   8.989  0.00  0.00    -0.291 NA
ATOM     21  C   UNL     1      -4.651 -10.972   8.133  0.00  0.00    +0.113 C 
ATOM     22  C   UNL     1      -6.270  -9.196   8.288  0.00  0.00    +0.113 C 
ATOM     23  C   UNL     1      -5.771 -11.919   7.713  0.00  0.00    +0.175 C 
ATOM     24  C   UNL     1      -7.352 -10.185   7.865  0.00  0.00    +0.175 C 
ENDBRANCH  20   5
ENDBRANCH  19  20
ENDBRANCH  10  17
TORSDOF 7
ENDMDL
MODEL 7
REMARK VINA RESULT:      -5.8     27.750     30.357
REMARK  Name = 56774370
REMARK  9 active torsions:
REMARK  status: ('A' for Active; 'I' for Inactive)
REMARK    1  A    between atoms: N_3  and  C_7
REMARK    2  A    between atoms: N_3  and  C_14
REMARK    3  A    between atoms: N_5  and  C_20
REMARK    4  A    between atoms: C_6  and  C_12
REMARK    5  A    between atoms: C_6  and  C_13
REMARK    6  A    between atoms: C_8  and  C_10
REMARK    7  A    between atoms: C_10  and  C_17
REMARK    8  A    between atoms: C_11  and  C_14
REMARK    9  A    between atoms: C_19  and  C_20
REMARK                            x       y       z     vdW  Elec       q    Type
REMARK                         _______ _______ _______ _____ _____    ______ ____
ROOT
ATOM     10  C   UNL     1      -6.351 -13.057  17.669  0.00  0.00    +0.063 C 
ENDROOT
BRANCH  10   8
ATOM      6  C   UNL     1      -4.704 -11.301  16.622  0.00  0.00    -0.016 C 
ATOM      7  C   UNL     1      -4.010 -11.863  15.364  0.00  0.00    +0.060 C 
ATOM      8  C   UNL     1      -5.787 -12.380  16.414  0.00  0.00    +0.004 C 
ATOM      9  C   UNL     1      -4.715 -13.202  15.667  0.00  0.00    +0.023 C 
ATOM     12  C   UNL     1      -3.970 -11.418  17.940  0.00  0.00    +0.013 C 
ATOM     13  C   UNL     1      -5.162  -9.865  16.430  0.00  0.00    +0.013 C 
BRANCH   7   3
ATOM      3  N   UNL     1      -2.572 -12.025  15.580  0.00  0.00    -0.312 NA
ATOM     25  H   UNL     1      -2.245 -12.980  15.430  0.00  0.00    +0.122 HD
BRANCH   3  14
ATOM     14  C   UNL     1      -1.842 -11.143  14.676  0.00  0.00    +0.084 C 
BRANCH  14  11
ATOM     11  C   UNL     1      -2.606 -10.907  13.413  0.00  0.00    +0.003 C 
ATOM     15  C   UNL     1      -1.891 -10.353  12.216  0.00  0.00    +0.005 C 
ATOM     16  C   UNL     1      -2.346 -11.783  12.224  0.00  0.00    +0.005 C 
ENDBRANCH  14  11
ENDBRANCH   3  14
ENDBRANCH   7   3
ENDBRANCH  10   8
BRANCH  10  17
ATOM      1  O   UNL     1      -8.449 -11.217  19.897  0.00  0.00    -0.358 OA
ATOM      4  N   UNL     1      -7.364 -12.043  19.633  0.00  0.00    -0.083 NA
ATOM     17  C   UNL     1      -7.379 -12.221  18.309  0.00  0.00    +0.084 A 
ATOM     18  C   UNL     1      -8.440 -11.537  17.691  0.00  0.00    +0.072 A 
ATOM     19  C   UNL     1      -9.083 -10.922  18.734  0.00  0.00    +0.151 A 
BRANCH  19  20
ATOM     20  C   UNL     1     -10.290 -10.029  18.832  0.00  0.00    +0.161 C 
BRANCH  20   5
ATOM      2  O   UNL     1     -11.438  -7.101  16.054  0.00  0.00    -0.377 OA
ATOM      5  N   UNL     1     -10.567  -9.346  17.570  0.00  0.00    -0.291 NA
ATOM     21  C   UNL     1      -9.737  -8.140  17.438  0.00  0.00    +0.113 C 
ATOM     22  C   UNL     1     -11.989  -8.993  17.469  0.00  0.00    +0.113 C 
ATOM     23  C   UNL     1     -10.052  -7.437  16.120  0.00  0.00    +0.175 C 
ATOM     24  C   UNL     1     -12.249  -8.271  16.150  0.00  0.00    +0.175 C 
ENDBRANCH  20   5
ENDBRANCH  19  20
ENDBRANCH  10  17
TORSDOF 7
ENDMDL
MODEL 8
REMARK VINA RESULT:      -5.7     18.585     21.536
REMARK  Name = 56774370
REMARK  9 active torsions:
REMARK  status: ('A' for Active; 'I' for Inactive)
REMARK    1  A    between atoms: N_3  and  C_7
REMARK    2  A    between atoms: N_3  and  C_14
REMARK    3  A    between atoms: N_5  and  C_20
REMARK    4  A    between atoms: C_6  and  C_12
REMARK    5  A    between atoms: C_6  and  C_13
REMARK    6  A    between atoms: C_8  and  C_10
REMARK    7  A    between atoms: C_10  and  C_17
REMARK    8  A    between atoms: C_11  and  C_14
REMARK    9  A    between atoms: C_19  and  C_20
REMARK                            x       y       z     vdW  Elec       q    Type
REMARK                         _______ _______ _______ _____ _____    ______ ____
ROOT
ATOM     10  C   UNL     1      12.602   4.246   0.895  0.00  0.00    +0.063 C 
ENDROOT
BRANCH  10   8
ATOM      6  C   UNL     1      12.103   4.318  -1.681  0.00  0.00    -0.016 C 
ATOM      7  C   UNL     1      10.677   4.836  -1.963  0.00  0.00    +0.060 C 
ATOM      8  C   UNL     1      11.993   4.993  -0.299  0.00  0.00    +0.004 C 
ATOM      9  C   UNL     1      10.463   4.848  -0.435  0.00  0.00    +0.023 C 
ATOM     12  C   UNL     1      12.306   2.819  -1.616  0.00  0.00    +0.013 C 
ATOM     13  C   UNL     1      13.128   4.920  -2.627  0.00  0.00    +0.013 C 
BRANCH   7   3
ATOM      3  N   UNL     1       9.840   3.789  -2.551  0.00  0.00    -0.312 NA
ATOM     25  H   UNL     1       9.147   3.414  -1.902  0.00  0.00    +0.122 HD
BRANCH   3  14
ATOM     14  C   UNL     1       9.139   4.324  -3.713  0.00  0.00    +0.084 C 
BRANCH  14  11
ATOM     11  C   UNL     1       9.974   4.215  -4.948  0.00  0.00    +0.003 C 
ATOM     15  C   UNL     1      10.907   3.051  -5.102  0.00  0.00    +0.005 C 
ATOM     16  C   UNL     1       9.670   3.138  -5.946  0.00  0.00    +0.005 C 
ENDBRANCH  14  11
ENDBRANCH   3  14
ENDBRANCH   7   3
ENDBRANCH  10   8
BRANCH  10  17
ATOM      1  O   UNL     1      11.430   5.864   3.856  0.00  0.00    -0.358 OA
ATOM      4  N   UNL     1      12.200   5.825   2.700  0.00  0.00    -0.083 NA
ATOM     17  C   UNL     1      11.946   4.632   2.155  0.00  0.00    +0.084 A 
ATOM     18  C   UNL     1      11.034   3.881   2.916  0.00  0.00    +0.072 A 
ATOM     19  C   UNL     1      10.741   4.700   3.974  0.00  0.00    +0.151 A 
BRANCH  19  20
ATOM     20  C   UNL     1       9.848   4.567   5.179  0.00  0.00    +0.161 C 
BRANCH  20   5
ATOM      2  O   UNL     1       8.338   7.556   7.709  0.00  0.00    -0.377 OA
ATOM      5  N   UNL     1       9.676   5.842   5.873  0.00  0.00    -0.291 NA
ATOM     21  C   UNL     1       9.813   5.668   7.326  0.00  0.00    +0.113 C 
ATOM     22  C   UNL     1       8.369   6.435   5.557  0.00  0.00    +0.113 C 
ATOM     23  C   UNL     1       9.618   7.009   8.029  0.00  0.00    +0.175 C 
ATOM     24  C   UNL     1       8.209   7.758   6.302  0.00  0.00    +0.175 C 
ENDBRANCH  20   5
ENDBRANCH  19  20
ENDBRANCH  10  17
TORSDOF 7
ENDMDL
MODEL 9
REMARK VINA RESULT:      -5.7     27.730     30.602
REMARK  Name = 56774370
REMARK  9 active torsions:
REMARK  status: ('A' for Active; 'I' for Inactive)
REMARK    1  A    between atoms: N_3  and  C_7
REMARK    2  A    between atoms: N_3  and  C_14
REMARK    3  A    between atoms: N_5  and  C_20
REMARK    4  A    between atoms: C_6  and  C_12
REMARK    5  A    between atoms: C_6  and  C_13
REMARK    6  A    between atoms: C_8  and  C_10
REMARK    7  A    between atoms: C_10  and  C_17
REMARK    8  A    between atoms: C_11  and  C_14
REMARK    9  A    between atoms: C_19  and  C_20
REMARK                            x       y       z     vdW  Elec       q    Type
REMARK                         _______ _______ _______ _____ _____    ______ ____
ROOT
ATOM     10  C   UNL     1      -4.137 -10.336  17.080  0.00  0.00    +0.063 C 
ENDROOT
BRANCH  10   8
ATOM      6  C   UNL     1      -6.517 -11.063  17.918  0.00  0.00    -0.016 C 
ATOM      7  C   UNL     1      -7.631 -10.284  17.189  0.00  0.00    +0.060 C 
ATOM      8  C   UNL     1      -5.591 -10.690  16.742  0.00  0.00    +0.004 C 
ATOM      9  C   UNL     1      -6.511  -9.472  16.507  0.00  0.00    +0.023 C 
ATOM     12  C   UNL     1      -6.049 -10.535  19.257  0.00  0.00    +0.013 C 
ATOM     13  C   UNL     1      -6.845 -12.541  18.051  0.00  0.00    +0.013 C 
BRANCH   7   3
ATOM      3  N   UNL     1      -8.355  -9.408  18.113  0.00  0.00    -0.312 NA
ATOM     25  H   UNL     1      -7.957  -8.471  18.176  0.00  0.00    +0.122 HD
BRANCH   3  14
ATOM     14  C   UNL     1      -9.744  -9.290  17.683  0.00  0.00    +0.084 C 
BRANCH  14  11
ATOM     11  C   UNL     1     -10.094  -7.873  17.361  0.00  0.00    +0.003 C 
ATOM     15  C   UNL     1     -10.044  -7.411  15.935  0.00  0.00    +0.005 C 
ATOM     16  C   UNL     1     -11.367  -7.581  16.623  0.00  0.00    +0.005 C 
ENDBRANCH  14  11
ENDBRANCH   3  14
ENDBRANCH   7   3
ENDBRANCH  10   8
BRANCH  10  17
ATOM      1  O   UNL     1      -1.317 -11.458  15.199  0.00  0.00    -0.358 OA
ATOM      4  N   UNL     1      -1.889 -10.833  16.299  0.00  0.00    -0.083 NA
ATOM     17  C   UNL     1      -3.207 -10.907  16.094  0.00  0.00    +0.084 A 
ATOM     18  C   UNL     1      -3.523 -11.562  14.891  0.00  0.00    +0.072 A 
ATOM     19  C   UNL     1      -2.299 -11.888  14.366  0.00  0.00    +0.151 A 
BRANCH  19  20
ATOM     20  C   UNL     1      -1.858 -12.595  13.113  0.00  0.00    +0.161 C 
BRANCH  20   5
ATOM      2  O   UNL     1      -1.582 -16.709  12.334  0.00  0.00    -0.377 OA
ATOM      5  N   UNL     1      -2.046 -14.041  13.209  0.00  0.00    -0.291 NA
ATOM     21  C   UNL     1      -0.764 -14.718  13.454  0.00  0.00    +0.113 C 
ATOM     22  C   UNL     1      -2.668 -14.568  11.986  0.00  0.00    +0.113 C 
ATOM     23  C   UNL     1      -0.983 -16.226  13.537  0.00  0.00    +0.175 C 
ATOM     24  C   UNL     1      -2.842 -16.079  12.106  0.00  0.00    +0.175 C 
ENDBRANCH  20   5
ENDBRANCH  19  20
ENDBRANCH  10  17
TORSDOF 7
ENDMDL
MODEL 10
REMARK VINA RESULT:      -5.6     30.274     32.808
REMARK  Name = 56774370
REMARK  9 active torsions:
REMARK  status: ('A' for Active; 'I' for Inactive)
REMARK    1  A    between atoms: N_3  and  C_7
REMARK    2  A    between atoms: N_3  and  C_14
REMARK    3  A    between atoms: N_5  and  C_20
REMARK    4  A    between atoms: C_6  and  C_12
REMARK    5  A    between atoms: C_6  and  C_13
REMARK    6  A    between atoms: C_8  and  C_10
REMARK    7  A    between atoms: C_10  and  C_17
REMARK    8  A    between atoms: C_11  and  C_14
REMARK    9  A    between atoms: C_19  and  C_20
REMARK                            x       y       z     vdW  Elec       q    Type
REMARK                         _______ _______ _______ _____ _____    ______ ____
ROOT
ATOM     10  C   UNL     1     -12.697   6.268  21.295  0.00  0.00    +0.063 C 
ENDROOT
BRANCH  10   8
ATOM      6  C   UNL     1     -12.043   8.126  19.559  0.00  0.00    -0.016 C 
ATOM      7  C   UNL     1     -13.281   8.642  18.796  0.00  0.00    +0.060 C 
ATOM      8  C   UNL     1     -13.017   7.620  20.643  0.00  0.00    +0.004 C 
ATOM      9  C   UNL     1     -14.093   7.561  19.538  0.00  0.00    +0.023 C 
ATOM     12  C   UNL     1     -11.224   7.031  18.912  0.00  0.00    +0.013 C 
ATOM     13  C   UNL     1     -11.120   9.257  19.983  0.00  0.00    +0.013 C 
BRANCH   7   3
ATOM      3  N   UNL     1     -13.211   8.292  17.377  0.00  0.00    -0.312 NA
ATOM     25  H   UNL     1     -13.948   7.651  17.082  0.00  0.00    +0.122 HD
BRANCH   3  14
ATOM     14  C   UNL     1     -13.307   9.505  16.571  0.00  0.00    +0.084 C 
BRANCH  14  11
ATOM     11  C   UNL     1     -12.116   9.662  15.682  0.00  0.00    +0.003 C 
ATOM     15  C   UNL     1     -10.751   9.761  16.296  0.00  0.00    +0.005 C 
ATOM     16  C   UNL     1     -11.148   8.525  15.544  0.00  0.00    +0.005 C 
ENDBRANCH  14  11
ENDBRANCH   3  14
ENDBRANCH   7   3
ENDBRANCH  10   8
BRANCH  10  17
ATOM      1  O   UNL     1     -15.563   4.366  22.257  0.00  0.00    -0.358 OA
ATOM      4  N   UNL     1     -14.502   4.644  21.403  0.00  0.00    -0.083 NA
ATOM     17  C   UNL     1     -13.886   5.697  21.947  0.00  0.00    +0.084 A 
ATOM     18  C   UNL     1     -14.507   6.124  23.133  0.00  0.00    +0.072 A 
ATOM     19  C   UNL     1     -15.556   5.255  23.283  0.00  0.00    +0.151 A 
BRANCH  19  20
ATOM     20  C   UNL     1     -16.644   5.101  24.312  0.00  0.00    +0.161 C 
BRANCH  20   5
ATOM      2  O   UNL     1     -17.086   2.114  27.227  0.00  0.00    -0.377 OA
ATOM      5  N   UNL     1     -16.337   4.045  25.275  0.00  0.00    -0.291 NA
ATOM     21  C   UNL     1     -16.998   2.788  24.897  0.00  0.00    +0.113 C 
ATOM     22  C   UNL     1     -16.744   4.441  26.630  0.00  0.00    +0.113 C 
ATOM     23  C   UNL     1     -16.674   1.704  25.923  0.00  0.00    +0.175 C 
ATOM     24  C   UNL     1     -16.425   3.319  27.613  0.00  0.00    +0.175 C 
ENDBRANCH  20   5
ENDBRANCH  19  20
ENDBRANCH  10  17
TORSDOF 7
ENDMDL
