MODEL 1
REMARK VINA RESULT:      -7.5      0.000      0.000
REMARK  Name = 45784113
REMARK  12 active torsions:
REMARK  status: ('A' for Active; 'I' for Inactive)
REMARK    1  A    between atoms: N_2  and  C_13
REMARK    2  A    between atoms: C_8  and  C_12
REMARK    3  A    between atoms: C_9  and  C_13
REMARK    4  A    between atoms: C_11  and  C_16
REMARK    5  A    between atoms: C_12  and  C_17
REMARK    6  A    between atoms: C_12  and  C_18
REMARK    7  A    between atoms: C_15  and  C_21
REMARK    8  A    between atoms: C_16  and  C_24
REMARK    9  A    between atoms: C_26  and  C_27
REMARK   10  A    between atoms: C_27  and  C_29
REMARK   11  A    between atoms: C_27  and  C_30
REMARK   12  A    between atoms: C_27  and  C_31
REMARK                            x       y       z     vdW  Elec       q    Type
REMARK                         _______ _______ _______ _____ _____    ______ ____
ROOT
ATOM      8  C   UNL     1      13.261  10.593  21.647  0.00  0.00    +0.000 C 
ATOM      9  C   UNL     1      14.275   9.441  21.836  0.00  0.00    +0.029 C 
ATOM     10  C   UNL     1      12.270  10.258  20.525  0.00  0.00    +0.012 C 
ATOM     11  C   UNL     1      11.507   8.936  20.755  0.00  0.00    +0.024 C 
ATOM     14  C   UNL     1      13.620   8.083  21.810  0.00  0.00    -0.023 C 
ATOM     15  C   UNL     1      12.382   7.840  21.344  0.00  0.00    -0.073 C 
ATOM     21  C   UNL     1      11.792   6.460  21.445  0.00  0.00    +0.039 C 
ENDROOT
BRANCH   8  12
ATOM     12  C   UNL     1      12.528  10.913  22.958  0.00  0.00    -0.013 C 
ATOM     17  C   UNL     1      11.340  11.832  22.691  0.00  0.00    +0.007 C 
ATOM     18  C   UNL     1      13.487  11.546  23.962  0.00  0.00    +0.007 C 
ENDBRANCH   8  12
BRANCH   9  13
ATOM     13  C   UNL     1      15.385   9.485  20.781  0.00  0.00    +0.092 C 
BRANCH  13   2
ATOM      2  N   UNL     1      16.444   8.530  21.105  0.00  0.00    -0.299 NA
ATOM      3  N   UNL     1      18.967   7.229  20.788  0.00  0.00    -0.312 N 
ATOM      6  N   UNL     1      20.142   5.165  20.846  0.00  0.00    -0.237 NA
ATOM      7  N   UNL     1      22.530   6.580  20.446  0.00  0.00    -0.258 NA
ATOM     19  C   UNL     1      17.689   9.233  21.434  0.00  0.00    +0.103 C 
ATOM     20  C   UNL     1      16.671   7.613  19.980  0.00  0.00    +0.103 C 
ATOM     22  C   UNL     1      18.791   8.247  21.829  0.00  0.00    +0.122 C 
ATOM     23  C   UNL     1      17.737   6.572  20.328  0.00  0.00    +0.122 C 
ATOM     25  C   UNL     1      20.163   6.507  20.720  0.00  0.00    +0.140 A 
ATOM     28  C   UNL     1      21.336   7.202  20.523  0.00  0.00    +0.154 A 
ATOM     32  C   UNL     1      21.336   4.543  20.768  0.00  0.00    +0.132 A 
ATOM     33  C   UNL     1      22.508   5.239  20.572  0.00  0.00    +0.130 A 
ENDBRANCH  13   2
ENDBRANCH   9  13
BRANCH  11  16
ATOM     16  C   UNL     1      10.835   8.523  19.441  0.00  0.00    +0.105 C 
BRANCH  16  24
ATOM      1  O   UNL     1      12.378   9.439  17.788  0.00  0.00    -0.424 OA
ATOM      4  N   UNL     1      12.307   7.203  17.834  0.00  0.00    -0.112 NA
ATOM      5  N   UNL     1      13.213   7.582  16.861  0.00  0.00    -0.112 NA
ATOM     24  C   UNL     1      11.844   8.318  18.348  0.00  0.00    +0.218 A 
ATOM     26  C   UNL     1      13.222   8.895  16.870  0.00  0.00    +0.223 A 
BRANCH  26  27
ATOM     27  C   UNL     1      14.000   9.830  16.047  0.00  0.00    +0.040 C 
ATOM     29  C   UNL     1      14.868  10.801  16.921  0.00  0.00    +0.020 C 
ATOM     30  C   UNL     1      13.079  10.731  15.151  0.00  0.00    +0.020 C 
ATOM     31  C   UNL     1      15.022   9.184  15.039  0.00  0.00    +0.020 C 
ENDBRANCH  26  27
ENDBRANCH  16  24
ENDBRANCH  11  16
TORSDOF 6
ENDMDL
MODEL 2
REMARK VINA RESULT:      -7.0     27.155     30.548
REMARK  Name = 45784113
REMARK  12 active torsions:
REMARK  status: ('A' for Active; 'I' for Inactive)
REMARK    1  A    between atoms: N_2  and  C_13
REMARK    2  A    between atoms: C_8  and  C_12
REMARK    3  A    between atoms: C_9  and  C_13
REMARK    4  A    between atoms: C_11  and  C_16
REMARK    5  A    between atoms: C_12  and  C_17
REMARK    6  A    between atoms: C_12  and  C_18
REMARK    7  A    between atoms: C_15  and  C_21
REMARK    8  A    between atoms: C_16  and  C_24
REMARK    9  A    between atoms: C_26  and  C_27
REMARK   10  A    between atoms: C_27  and  C_29
REMARK   11  A    between atoms: C_27  and  C_30
REMARK   12  A    between atoms: C_27  and  C_31
REMARK                            x       y       z     vdW  Elec       q    Type
REMARK                         _______ _______ _______ _____ _____    ______ ____
ROOT
ATOM      8  C   UNL     1      -7.128 -12.020  16.935  0.00  0.00    +0.000 C 
ATOM      9  C   UNL     1      -7.234 -11.773  18.458  0.00  0.00    +0.029 C 
ATOM     10  C   UNL     1      -5.889 -11.321  16.362  0.00  0.00    +0.012 C 
ATOM     11  C   UNL     1      -4.572 -11.750  17.044  0.00  0.00    +0.024 C 
ATOM     14  C   UNL     1      -5.909 -11.923  19.163  0.00  0.00    -0.023 C 
ATOM     15  C   UNL     1      -4.713 -11.928  18.549  0.00  0.00    -0.073 C 
ATOM     21  C   UNL     1      -3.456 -12.172  19.339  0.00  0.00    +0.039 C 
ENDROOT
BRANCH   8  12
ATOM     12  C   UNL     1      -7.118 -13.521  16.612  0.00  0.00    -0.013 C 
ATOM     17  C   UNL     1      -7.234 -13.741  15.107  0.00  0.00    +0.007 C 
ATOM     18  C   UNL     1      -8.247 -14.232  17.352  0.00  0.00    +0.007 C 
ENDBRANCH   8  12
BRANCH   9  13
ATOM     13  C   UNL     1      -7.815 -10.390  18.768  0.00  0.00    +0.092 C 
BRANCH  13   2
ATOM      2  N   UNL     1      -8.793 -10.000  17.753  0.00  0.00    -0.299 NA
ATOM      3  N   UNL     1     -10.689  -8.283  16.483  0.00  0.00    -0.312 N 
ATOM      6  N   UNL     1     -12.781  -8.139  15.367  0.00  0.00    -0.237 NA
ATOM      7  N   UNL     1     -12.273  -5.423  14.888  0.00  0.00    -0.258 NA
ATOM     19  C   UNL     1      -8.346  -8.797  17.042  0.00  0.00    +0.103 C 
ATOM     20  C   UNL     1     -10.105  -9.760  18.367  0.00  0.00    +0.103 C 
ATOM     22  C   UNL     1      -9.333  -8.411  15.938  0.00  0.00    +0.122 C 
ATOM     23  C   UNL     1     -11.150  -9.407  17.308  0.00  0.00    +0.122 C 
ATOM     25  C   UNL     1     -11.649  -7.541  15.787  0.00  0.00    +0.140 A 
ATOM     28  C   UNL     1     -11.399  -6.206  15.551  0.00  0.00    +0.154 A 
ATOM     32  C   UNL     1     -13.655  -7.355  14.705  0.00  0.00    +0.132 A 
ATOM     33  C   UNL     1     -13.405  -6.021  14.469  0.00  0.00    +0.130 A 
ENDBRANCH  13   2
ENDBRANCH   9  13
BRANCH  11  16
ATOM     16  C   UNL     1      -3.473 -10.752  16.661  0.00  0.00    +0.105 C 
BRANCH  16  24
ATOM      1  O   UNL     1      -3.563 -10.542  14.232  0.00  0.00    -0.424 OA
ATOM      4  N   UNL     1      -1.841 -11.758  14.983  0.00  0.00    -0.112 NA
ATOM      5  N   UNL     1      -1.769 -11.722  13.603  0.00  0.00    -0.112 NA
ATOM     24  C   UNL     1      -2.903 -11.057  15.306  0.00  0.00    +0.218 A 
ATOM     26  C   UNL     1      -2.793 -11.001  13.208  0.00  0.00    +0.223 A 
BRANCH  26  27
ATOM     27  C   UNL     1      -3.209 -10.633  11.849  0.00  0.00    +0.040 C 
ATOM     29  C   UNL     1      -4.605  -9.919  11.833  0.00  0.00    +0.020 C 
ATOM     30  C   UNL     1      -3.332 -11.886  10.911  0.00  0.00    +0.020 C 
ATOM     31  C   UNL     1      -2.253  -9.651  11.072  0.00  0.00    +0.020 C 
ENDBRANCH  26  27
ENDBRANCH  16  24
ENDBRANCH  11  16
TORSDOF 6
ENDMDL
MODEL 3
REMARK VINA RESULT:      -6.9     26.769     30.307
REMARK  Name = 45784113
REMARK  12 active torsions:
REMARK  status: ('A' for Active; 'I' for Inactive)
REMARK    1  A    between atoms: N_2  and  C_13
REMARK    2  A    between atoms: C_8  and  C_12
REMARK    3  A    between atoms: C_9  and  C_13
REMARK    4  A    between atoms: C_11  and  C_16
REMARK    5  A    between atoms: C_12  and  C_17
REMARK    6  A    between atoms: C_12  and  C_18
REMARK    7  A    between atoms: C_15  and  C_21
REMARK    8  A    between atoms: C_16  and  C_24
REMARK    9  A    between atoms: C_26  and  C_27
REMARK   10  A    between atoms: C_27  and  C_29
REMARK   11  A    between atoms: C_27  and  C_30
REMARK   12  A    between atoms: C_27  and  C_31
REMARK                            x       y       z     vdW  Elec       q    Type
REMARK                         _______ _______ _______ _____ _____    ______ ____
ROOT
ATOM      8  C   UNL     1      -3.509 -10.654  15.034  0.00  0.00    +0.000 C 
ATOM      9  C   UNL     1      -4.626 -11.388  14.256  0.00  0.00    +0.029 C 
ATOM     10  C   UNL     1      -3.995 -10.269  16.438  0.00  0.00    +0.012 C 
ATOM     11  C   UNL     1      -4.490 -11.474  17.266  0.00  0.00    +0.024 C 
ATOM     14  C   UNL     1      -5.338 -12.417  15.099  0.00  0.00    -0.023 C 
ATOM     15  C   UNL     1      -5.280 -12.479  16.441  0.00  0.00    -0.073 C 
ATOM     21  C   UNL     1      -5.960 -13.601  17.177  0.00  0.00    +0.039 C 
ENDROOT
BRANCH   8  12
ATOM     12  C   UNL     1      -2.228 -11.496  15.102  0.00  0.00    -0.013 C 
ATOM     17  C   UNL     1      -1.079 -10.672  15.675  0.00  0.00    +0.007 C 
ATOM     18  C   UNL     1      -1.871 -12.033  13.719  0.00  0.00    +0.007 C 
ENDBRANCH   8  12
BRANCH   9  13
ATOM     13  C   UNL     1      -5.654 -10.408  13.682  0.00  0.00    +0.092 C 
BRANCH  13   2
ATOM      2  N   UNL     1      -5.423 -10.194  12.254  0.00  0.00    -0.299 NA
ATOM      3  N   UNL     1      -6.162  -9.768   9.528  0.00  0.00    -0.312 N 
ATOM      6  N   UNL     1      -5.711 -10.298   7.257  0.00  0.00    -0.237 NA
ATOM      7  N   UNL     1      -7.637  -8.408   6.494  0.00  0.00    -0.258 NA
ATOM     19  C   UNL     1      -5.981  -8.906  11.829  0.00  0.00    +0.103 C 
ATOM     20  C   UNL     1      -6.019 -11.282  11.467  0.00  0.00    +0.103 C 
ATOM     22  C   UNL     1      -5.697  -8.644  10.348  0.00  0.00    +0.122 C 
ATOM     23  C   UNL     1      -5.734 -11.100   9.975  0.00  0.00    +0.122 C 
ATOM     25  C   UNL     1      -6.402  -9.578   8.163  0.00  0.00    +0.140 A 
ATOM     28  C   UNL     1      -7.348  -8.650   7.788  0.00  0.00    +0.154 A 
ATOM     32  C   UNL     1      -6.001 -10.057   5.962  0.00  0.00    +0.132 A 
ATOM     33  C   UNL     1      -6.947  -9.128   5.588  0.00  0.00    +0.130 A 
ENDBRANCH  13   2
ENDBRANCH   9  13
BRANCH  11  16
ATOM     16  C   UNL     1      -5.271 -10.950  18.476  0.00  0.00    +0.105 C 
BRANCH  16  24
ATOM      1  O   UNL     1      -7.703 -10.899  18.665  0.00  0.00    -0.424 OA
ATOM      4  N   UNL     1      -6.868  -9.425  17.204  0.00  0.00    -0.112 NA
ATOM      5  N   UNL     1      -8.243  -9.289  17.210  0.00  0.00    -0.112 NA
ATOM     24  C   UNL     1      -6.597 -10.376  18.067  0.00  0.00    +0.218 A 
ATOM     26  C   UNL     1      -8.689 -10.168  18.077  0.00  0.00    +0.223 A 
BRANCH  26  27
ATOM     27  C   UNL     1     -10.068 -10.461  18.487  0.00  0.00    +0.040 C 
ATOM     29  C   UNL     1     -11.049  -9.291  18.131  0.00  0.00    +0.020 C 
ATOM     30  C   UNL     1     -10.184 -10.692  20.036  0.00  0.00    +0.020 C 
ATOM     31  C   UNL     1     -10.727 -11.739  17.847  0.00  0.00    +0.020 C 
ENDBRANCH  26  27
ENDBRANCH  16  24
ENDBRANCH  11  16
TORSDOF 6
ENDMDL
MODEL 4
REMARK VINA RESULT:      -6.8     26.346     30.246
REMARK  Name = 45784113
REMARK  12 active torsions:
REMARK  status: ('A' for Active; 'I' for Inactive)
REMARK    1  A    between atoms: N_2  and  C_13
REMARK    2  A    between atoms: C_8  and  C_12
REMARK    3  A    between atoms: C_9  and  C_13
REMARK    4  A    between atoms: C_11  and  C_16
REMARK    5  A    between atoms: C_12  and  C_17
REMARK    6  A    between atoms: C_12  and  C_18
REMARK    7  A    between atoms: C_15  and  C_21
REMARK    8  A    between atoms: C_16  and  C_24
REMARK    9  A    between atoms: C_26  and  C_27
REMARK   10  A    between atoms: C_27  and  C_29
REMARK   11  A    between atoms: C_27  and  C_30
REMARK   12  A    between atoms: C_27  and  C_31
REMARK                            x       y       z     vdW  Elec       q    Type
REMARK                         _______ _______ _______ _____ _____    ______ ____
ROOT
ATOM      8  C   UNL     1      -5.025 -11.941  15.323  0.00  0.00    +0.000 C 
ATOM      9  C   UNL     1      -4.782 -10.928  16.466  0.00  0.00    +0.029 C 
ATOM     10  C   UNL     1      -4.304 -11.492  14.045  0.00  0.00    +0.012 C 
ATOM     11  C   UNL     1      -2.786 -11.291  14.238  0.00  0.00    +0.024 C 
ATOM     14  C   UNL     1      -3.344 -10.481  16.549  0.00  0.00    -0.023 C 
ATOM     15  C   UNL     1      -2.435 -10.645  15.570  0.00  0.00    -0.073 C 
ATOM     21  C   UNL     1      -1.004 -10.240  15.790  0.00  0.00    +0.039 C 
ENDROOT
BRANCH   8  12
ATOM     12  C   UNL     1      -4.601 -13.358  15.732  0.00  0.00    -0.013 C 
ATOM     17  C   UNL     1      -4.976 -14.359  14.645  0.00  0.00    +0.007 C 
ATOM     18  C   UNL     1      -5.239 -13.741  17.064  0.00  0.00    +0.007 C 
ENDBRANCH   8  12
BRANCH   9  13
ATOM     13  C   UNL     1      -5.685  -9.697  16.334  0.00  0.00    +0.092 C 
BRANCH  13   2
ATOM      2  N   UNL     1      -6.780  -9.753  17.301  0.00  0.00    -0.299 NA
ATOM      3  N   UNL     1      -8.942 -10.959  18.726  0.00  0.00    -0.312 N 
ATOM      6  N   UNL     1     -11.127 -10.666  19.612  0.00  0.00    -0.237 NA
ATOM      7  N   UNL     1     -10.938 -13.216  20.764  0.00  0.00    -0.258 NA
ATOM     19  C   UNL     1      -6.520 -10.779  18.317  0.00  0.00    +0.103 C 
ATOM     20  C   UNL     1      -8.053 -10.033  16.623  0.00  0.00    +0.103 C 
ATOM     22  C   UNL     1      -7.632 -10.809  19.368  0.00  0.00    +0.122 C 
ATOM     23  C   UNL     1      -9.215 -10.036  17.616  0.00  0.00    +0.122 C 
ATOM     25  C   UNL     1     -10.029 -11.434  19.468  0.00  0.00    +0.140 A 
ATOM     28  C   UNL     1      -9.936 -12.687  20.035  0.00  0.00    +0.154 A 
ATOM     32  C   UNL     1     -12.129 -11.196  20.341  0.00  0.00    +0.132 A 
ATOM     33  C   UNL     1     -12.036 -12.448  20.907  0.00  0.00    +0.130 A 
ENDBRANCH  13   2
ENDBRANCH   9  13
BRANCH  11  16
ATOM     16  C   UNL     1      -2.238 -10.513  13.035  0.00  0.00    +0.105 C 
BRANCH  16  24
ATOM      1  O   UNL     1      -3.844  -9.882  11.311  0.00  0.00    -0.424 OA
ATOM      4  N   UNL     1      -2.968 -11.923  11.042  0.00  0.00    -0.112 NA
ATOM      5  N   UNL     1      -3.853 -11.698  10.005  0.00  0.00    -0.112 NA
ATOM     24  C   UNL     1      -2.995 -10.837  11.780  0.00  0.00    +0.218 A 
ATOM     26  C   UNL     1      -4.341 -10.495  10.202  0.00  0.00    +0.223 A 
BRANCH  26  27
ATOM     27  C   UNL     1      -5.320  -9.741   9.409  0.00  0.00    +0.040 C 
ATOM     29  C   UNL     1      -5.299  -8.210   9.749  0.00  0.00    +0.020 C 
ATOM     30  C   UNL     1      -6.788 -10.239   9.660  0.00  0.00    +0.020 C 
ATOM     31  C   UNL     1      -5.144  -9.802   7.846  0.00  0.00    +0.020 C 
ENDBRANCH  26  27
ENDBRANCH  16  24
ENDBRANCH  11  16
TORSDOF 6
ENDMDL
MODEL 5
REMARK VINA RESULT:      -6.8      2.944      7.323
REMARK  Name = 45784113
REMARK  12 active torsions:
REMARK  status: ('A' for Active; 'I' for Inactive)
REMARK    1  A    between atoms: N_2  and  C_13
REMARK    2  A    between atoms: C_8  and  C_12
REMARK    3  A    between atoms: C_9  and  C_13
REMARK    4  A    between atoms: C_11  and  C_16
REMARK    5  A    between atoms: C_12  and  C_17
REMARK    6  A    between atoms: C_12  and  C_18
REMARK    7  A    between atoms: C_15  and  C_21
REMARK    8  A    between atoms: C_16  and  C_24
REMARK    9  A    between atoms: C_26  and  C_27
REMARK   10  A    between atoms: C_27  and  C_29
REMARK   11  A    between atoms: C_27  and  C_30
REMARK   12  A    between atoms: C_27  and  C_31
REMARK                            x       y       z     vdW  Elec       q    Type
REMARK                         _______ _______ _______ _____ _____    ______ ____
ROOT
ATOM      8  C   UNL     1      13.765   9.518  18.341  0.00  0.00    +0.000 C 
ATOM      9  C   UNL     1      12.585  10.032  19.199  0.00  0.00    +0.029 C 
ATOM     10  C   UNL     1      14.821   8.844  19.227  0.00  0.00    +0.012 C 
ATOM     11  C   UNL     1      14.260   7.683  20.074  0.00  0.00    +0.024 C 
ATOM     14  C   UNL     1      12.148   9.032  20.240  0.00  0.00    -0.023 C 
ATOM     15  C   UNL     1      12.874   7.971  20.634  0.00  0.00    -0.073 C 
ATOM     21  C   UNL     1      12.305   6.986  21.618  0.00  0.00    +0.039 C 
ENDROOT
BRANCH   8  12
ATOM     12  C   UNL     1      13.280   8.569  17.235  0.00  0.00    -0.013 C 
ATOM     17  C   UNL     1      14.164   8.699  15.999  0.00  0.00    +0.007 C 
ATOM     18  C   UNL     1      11.822   8.855  16.891  0.00  0.00    +0.007 C 
ENDBRANCH   8  12
BRANCH   9  13
ATOM     13  C   UNL     1      12.921  11.359  19.886  0.00  0.00    +0.092 C 
BRANCH  13   2
ATOM      2  N   UNL     1      13.136  11.159  21.319  0.00  0.00    -0.299 NA
ATOM      3  N   UNL     1      13.800  11.930  23.988  0.00  0.00    -0.312 N 
ATOM      6  N   UNL     1      14.922  11.327  25.993  0.00  0.00    -0.237 NA
ATOM      7  N   UNL     1      13.874  13.630  27.203  0.00  0.00    -0.258 NA
ATOM     19  C   UNL     1      12.220  11.998  22.100  0.00  0.00    +0.103 C 
ATOM     20  C   UNL     1      14.526  11.469  21.679  0.00  0.00    +0.103 C 
ATOM     22  C   UNL     1      12.396  11.757  23.601  0.00  0.00    +0.122 C 
ATOM     23  C   UNL     1      14.779  11.209  23.165  0.00  0.00    +0.122 C 
ATOM     25  C   UNL     1      14.124  12.183  25.325  0.00  0.00    +0.140 A 
ATOM     28  C   UNL     1      13.609  13.315  25.920  0.00  0.00    +0.154 A 
ATOM     32  C   UNL     1      15.188  11.643  27.277  0.00  0.00    +0.132 A 
ATOM     33  C   UNL     1      14.672  12.773  27.871  0.00  0.00    +0.130 A 
ENDBRANCH  13   2
ENDBRANCH   9  13
BRANCH  11  16
ATOM     16  C   UNL     1      15.282   7.330  21.161  0.00  0.00    +0.105 C 
BRANCH  16  24
ATOM      1  O   UNL     1      17.678   6.894  21.293  0.00  0.00    -0.424 OA
ATOM      4  N   UNL     1      16.706   6.106  19.439  0.00  0.00    -0.112 NA
ATOM      5  N   UNL     1      18.051   5.792  19.383  0.00  0.00    -0.112 NA
ATOM     24  C   UNL     1      16.534   6.749  20.570  0.00  0.00    +0.218 A 
ATOM     26  C   UNL     1      18.579   6.271  20.485  0.00  0.00    +0.223 A 
BRANCH  26  27
ATOM     27  C   UNL     1      19.970   6.224  20.953  0.00  0.00    +0.040 C 
ATOM     29  C   UNL     1      20.067   6.284  22.517  0.00  0.00    +0.020 C 
ATOM     30  C   UNL     1      20.816   7.426  20.402  0.00  0.00    +0.020 C 
ATOM     31  C   UNL     1      20.795   4.944  20.553  0.00  0.00    +0.020 C 
ENDBRANCH  26  27
ENDBRANCH  16  24
ENDBRANCH  11  16
TORSDOF 6
ENDMDL
MODEL 6
REMARK VINA RESULT:      -6.8     26.593     29.953
REMARK  Name = 45784113
REMARK  12 active torsions:
REMARK  status: ('A' for Active; 'I' for Inactive)
REMARK    1  A    between atoms: N_2  and  C_13
REMARK    2  A    between atoms: C_8  and  C_12
REMARK    3  A    between atoms: C_9  and  C_13
REMARK    4  A    between atoms: C_11  and  C_16
REMARK    5  A    between atoms: C_12  and  C_17
REMARK    6  A    between atoms: C_12  and  C_18
REMARK    7  A    between atoms: C_15  and  C_21
REMARK    8  A    between atoms: C_16  and  C_24
REMARK    9  A    between atoms: C_26  and  C_27
REMARK   10  A    between atoms: C_27  and  C_29
REMARK   11  A    between atoms: C_27  and  C_30
REMARK   12  A    between atoms: C_27  and  C_31
REMARK                            x       y       z     vdW  Elec       q    Type
REMARK                         _______ _______ _______ _____ _____    ______ ____
ROOT
ATOM      8  C   UNL     1      -3.938 -11.802  12.670  0.00  0.00    +0.000 C 
ATOM      9  C   UNL     1      -2.854 -11.277  13.640  0.00  0.00    +0.029 C 
ATOM     10  C   UNL     1      -4.354 -10.702  11.684  0.00  0.00    +0.012 C 
ATOM     11  C   UNL     1      -3.174 -10.129  10.872  0.00  0.00    +0.024 C 
ATOM     14  C   UNL     1      -1.789 -10.473  12.938  0.00  0.00    -0.023 C 
ATOM     15  C   UNL     1      -1.907  -9.963  11.699  0.00  0.00    -0.073 C 
ATOM     21  C   UNL     1      -0.749  -9.249  11.059  0.00  0.00    +0.039 C 
ENDROOT
BRANCH   8  12
ATOM     12  C   UNL     1      -3.465 -13.061  11.931  0.00  0.00    -0.013 C 
ATOM     17  C   UNL     1      -4.588 -13.623  11.066  0.00  0.00    +0.007 C 
ATOM     18  C   UNL     1      -2.971 -14.107  12.925  0.00  0.00    +0.007 C 
ENDBRANCH   8  12
BRANCH   9  13
ATOM     13  C   UNL     1      -3.461 -10.434  14.766  0.00  0.00    +0.092 C 
BRANCH  13   2
ATOM      2  N   UNL     1      -4.651 -11.084  15.314  0.00  0.00    -0.299 NA
ATOM      3  N   UNL     1      -6.569 -11.740  17.326  0.00  0.00    -0.312 N 
ATOM      6  N   UNL     1      -7.910 -13.448  18.289  0.00  0.00    -0.237 NA
ATOM      7  N   UNL     1      -9.088 -11.512  19.940  0.00  0.00    -0.258 NA
ATOM     19  C   UNL     1      -5.621 -10.082  15.771  0.00  0.00    +0.103 C 
ATOM     20  C   UNL     1      -4.286 -11.970  16.428  0.00  0.00    +0.103 C 
ATOM     22  C   UNL     1      -6.895 -10.749  16.296  0.00  0.00    +0.122 C 
ATOM     23  C   UNL     1      -5.515 -12.700  16.973  0.00  0.00    +0.122 C 
ATOM     25  C   UNL     1      -7.554 -12.150  18.231  0.00  0.00    +0.140 A 
ATOM     28  C   UNL     1      -8.133 -11.199  19.043  0.00  0.00    +0.154 A 
ATOM     32  C   UNL     1      -8.866 -13.762  19.187  0.00  0.00    +0.132 A 
ATOM     33  C   UNL     1      -9.445 -12.810  19.998  0.00  0.00    +0.130 A 
ENDBRANCH  13   2
ENDBRANCH   9  13
BRANCH  11  16
ATOM     16  C   UNL     1      -3.626  -8.825  10.204  0.00  0.00    +0.105 C 
BRANCH  16  24
ATOM      1  O   UNL     1      -5.884  -8.355   9.409  0.00  0.00    -0.424 OA
ATOM      4  N   UNL     1      -4.782  -9.872   8.189  0.00  0.00    -0.112 NA
ATOM      5  N   UNL     1      -6.036  -9.705   7.632  0.00  0.00    -0.112 NA
ATOM     24  C   UNL     1      -4.737  -9.066   9.224  0.00  0.00    +0.218 A 
ATOM     26  C   UNL     1      -6.644  -8.811   8.376  0.00  0.00    +0.223 A 
BRANCH  26  27
ATOM     27  C   UNL     1      -7.994  -8.249   8.247  0.00  0.00    +0.040 C 
ATOM     29  C   UNL     1      -8.850  -8.473   9.542  0.00  0.00    +0.020 C 
ATOM     30  C   UNL     1      -8.791  -8.900   7.062  0.00  0.00    +0.020 C 
ATOM     31  C   UNL     1      -8.080  -6.700   7.979  0.00  0.00    +0.020 C 
ENDBRANCH  26  27
ENDBRANCH  16  24
ENDBRANCH  11  16
TORSDOF 6
ENDMDL
MODEL 7
REMARK VINA RESULT:      -6.7      3.645      7.308
REMARK  Name = 45784113
REMARK  12 active torsions:
REMARK  status: ('A' for Active; 'I' for Inactive)
REMARK    1  A    between atoms: N_2  and  C_13
REMARK    2  A    between atoms: C_8  and  C_12
REMARK    3  A    between atoms: C_9  and  C_13
REMARK    4  A    between atoms: C_11  and  C_16
REMARK    5  A    between atoms: C_12  and  C_17
REMARK    6  A    between atoms: C_12  and  C_18
REMARK    7  A    between atoms: C_15  and  C_21
REMARK    8  A    between atoms: C_16  and  C_24
REMARK    9  A    between atoms: C_26  and  C_27
REMARK   10  A    between atoms: C_27  and  C_29
REMARK   11  A    between atoms: C_27  and  C_30
REMARK   12  A    between atoms: C_27  and  C_31
REMARK                            x       y       z     vdW  Elec       q    Type
REMARK                         _______ _______ _______ _____ _____    ______ ____
ROOT
ATOM      8  C   UNL     1      14.048   8.750  20.177  0.00  0.00    +0.000 C 
ATOM      9  C   UNL     1      13.570   7.646  19.205  0.00  0.00    +0.029 C 
ATOM     10  C   UNL     1      12.867   9.303  20.986  0.00  0.00    +0.012 C 
ATOM     11  C   UNL     1      12.106   8.219  21.777  0.00  0.00    +0.024 C 
ATOM     14  C   UNL     1      12.603   6.686  19.851  0.00  0.00    -0.023 C 
ATOM     15  C   UNL     1      11.950   6.917  21.004  0.00  0.00    -0.073 C 
ATOM     21  C   UNL     1      11.073   5.854  21.606  0.00  0.00    +0.039 C 
ENDROOT
BRANCH   8  12
ATOM     12  C   UNL     1      15.163   8.238  21.100  0.00  0.00    -0.013 C 
ATOM     17  C   UNL     1      15.747   9.387  21.916  0.00  0.00    +0.007 C 
ATOM     18  C   UNL     1      16.250   7.544  20.286  0.00  0.00    +0.007 C 
ENDBRANCH   8  12
BRANCH   9  13
ATOM     13  C   UNL     1      12.926   8.238  17.948  0.00  0.00    +0.092 C 
BRANCH  13   2
ATOM      2  N   UNL     1      13.834   9.184  17.299  0.00  0.00    -0.299 NA
ATOM      3  N   UNL     1      14.601  11.183  15.408  0.00  0.00    -0.312 N 
ATOM      6  N   UNL     1      16.304  11.967  13.950  0.00  0.00    -0.237 NA
ATOM      7  N   UNL     1      14.727  14.225  13.417  0.00  0.00    -0.258 NA
ATOM     19  C   UNL     1      13.322  10.554  17.417  0.00  0.00    +0.103 C 
ATOM     20  C   UNL     1      14.011   8.838  15.882  0.00  0.00    +0.103 C 
ATOM     22  C   UNL     1      14.290  11.560  16.791  0.00  0.00    +0.122 C 
ATOM     23  C   UNL     1      15.004   9.785  15.206  0.00  0.00    +0.122 C 
ATOM     25  C   UNL     1      15.096  12.145  14.521  0.00  0.00    +0.140 A 
ATOM     28  C   UNL     1      14.321  13.254  14.259  0.00  0.00    +0.154 A 
ATOM     32  C   UNL     1      16.709  12.939  13.107  0.00  0.00    +0.132 A 
ATOM     33  C   UNL     1      15.934  14.048  12.846  0.00  0.00    +0.130 A 
ENDBRANCH  13   2
ENDBRANCH   9  13
BRANCH  11  16
ATOM     16  C   UNL     1      10.766   8.801  22.242  0.00  0.00    +0.105 C 
BRANCH  16  24
ATOM      1  O   UNL     1      10.838  11.240  22.267  0.00  0.00    -0.424 OA
ATOM      4  N   UNL     1      11.224  10.292  24.257  0.00  0.00    -0.112 NA
ATOM      5  N   UNL     1      11.295  11.663  24.415  0.00  0.00    -0.112 NA
ATOM     24  C   UNL     1      10.956  10.090  22.988  0.00  0.00    +0.218 A 
ATOM     26  C   UNL     1      11.063  12.176  23.229  0.00  0.00    +0.223 A 
BRANCH  26  27
ATOM     27  C   UNL     1      11.013  13.582  22.811  0.00  0.00    +0.040 C 
ATOM     29  C   UNL     1      11.083  13.736  21.252  0.00  0.00    +0.020 C 
ATOM     30  C   UNL     1      12.206  14.414  23.401  0.00  0.00    +0.020 C 
ATOM     31  C   UNL     1       9.725  14.386  23.231  0.00  0.00    +0.020 C 
ENDBRANCH  26  27
ENDBRANCH  16  24
ENDBRANCH  11  16
TORSDOF 6
ENDMDL
MODEL 8
REMARK VINA RESULT:      -6.6     27.749     31.872
REMARK  Name = 45784113
REMARK  12 active torsions:
REMARK  status: ('A' for Active; 'I' for Inactive)
REMARK    1  A    between atoms: N_2  and  C_13
REMARK    2  A    between atoms: C_8  and  C_12
REMARK    3  A    between atoms: C_9  and  C_13
REMARK    4  A    between atoms: C_11  and  C_16
REMARK    5  A    between atoms: C_12  and  C_17
REMARK    6  A    between atoms: C_12  and  C_18
REMARK    7  A    between atoms: C_15  and  C_21
REMARK    8  A    between atoms: C_16  and  C_24
REMARK    9  A    between atoms: C_26  and  C_27
REMARK   10  A    between atoms: C_27  and  C_29
REMARK   11  A    between atoms: C_27  and  C_30
REMARK   12  A    between atoms: C_27  and  C_31
REMARK                            x       y       z     vdW  Elec       q    Type
REMARK                         _______ _______ _______ _____ _____    ______ ____
ROOT
ATOM      8  C   UNL     1      -7.553 -12.012  17.135  0.00  0.00    +0.000 C 
ATOM      9  C   UNL     1      -7.600 -11.962  18.680  0.00  0.00    +0.029 C 
ATOM     10  C   UNL     1      -6.407 -11.141  16.603  0.00  0.00    +0.012 C 
ATOM     11  C   UNL     1      -5.026 -11.534  17.170  0.00  0.00    +0.024 C 
ATOM     14  C   UNL     1      -6.231 -12.080  19.305  0.00  0.00    -0.023 C 
ATOM     15  C   UNL     1      -5.072 -11.906  18.645  0.00  0.00    -0.073 C 
ATOM     21  C   UNL     1      -3.760 -12.133  19.345  0.00  0.00    +0.039 C 
ENDROOT
BRANCH   8  12
ATOM     12  C   UNL     1      -7.437 -13.455  16.625  0.00  0.00    -0.013 C 
ATOM     17  C   UNL     1      -7.541 -13.491  15.104  0.00  0.00    +0.007 C 
ATOM     18  C   UNL     1      -8.511 -14.332  17.262  0.00  0.00    +0.007 C 
ENDBRANCH   8  12
BRANCH   9  13
ATOM     13  C   UNL     1      -8.275 -10.683  19.185  0.00  0.00    +0.092 C 
BRANCH  13   2
ATOM      2  N   UNL     1      -9.455 -11.004  19.987  0.00  0.00    -0.299 NA
ATOM      3  N   UNL     1     -12.099 -11.973  20.462  0.00  0.00    -0.312 N 
ATOM      6  N   UNL     1     -14.146 -11.632  21.619  0.00  0.00    -0.237 NA
ATOM      7  N   UNL     1     -15.062 -14.079  20.601  0.00  0.00    -0.258 NA
ATOM     19  C   UNL     1      -9.740 -12.442  19.933  0.00  0.00    +0.103 C 
ATOM     20  C   UNL     1     -10.620 -10.245  19.513  0.00  0.00    +0.103 C 
ATOM     22  C   UNL     1     -10.940 -12.799  20.813  0.00  0.00    +0.122 C 
ATOM     23  C   UNL     1     -11.848 -10.528  20.380  0.00  0.00    +0.122 C 
ATOM     25  C   UNL     1     -13.386 -12.398  20.811  0.00  0.00    +0.140 A 
ATOM     28  C   UNL     1     -13.836 -13.600  20.311  0.00  0.00    +0.154 A 
ATOM     32  C   UNL     1     -15.373 -12.111  21.907  0.00  0.00    +0.132 A 
ATOM     33  C   UNL     1     -15.822 -13.313  21.408  0.00  0.00    +0.130 A 
ENDBRANCH  13   2
ENDBRANCH   9  13
BRANCH  11  16
ATOM     16  C   UNL     1      -4.033 -10.404  16.870  0.00  0.00    +0.105 C 
BRANCH  16  24
ATOM      1  O   UNL     1      -3.808 -10.492  14.443  0.00  0.00    -0.424 OA
ATOM      4  N   UNL     1      -1.982 -11.148  15.555  0.00  0.00    -0.112 NA
ATOM      5  N   UNL     1      -1.717 -11.248  14.202  0.00  0.00    -0.112 NA
ATOM     24  C   UNL     1      -3.213 -10.704  15.649  0.00  0.00    +0.218 A 
ATOM     26  C   UNL     1      -2.810 -10.854  13.591  0.00  0.00    +0.223 A 
BRANCH  26  27
ATOM     27  C   UNL     1      -3.093 -10.753  12.154  0.00  0.00    +0.040 C 
ATOM     29  C   UNL     1      -1.988  -9.943  11.392  0.00  0.00    +0.020 C 
ATOM     30  C   UNL     1      -4.458 -10.029  11.873  0.00  0.00    +0.020 C 
ATOM     31  C   UNL     1      -3.199 -12.113  11.369  0.00  0.00    +0.020 C 
ENDBRANCH  26  27
ENDBRANCH  16  24
ENDBRANCH  11  16
TORSDOF 6
ENDMDL
MODEL 9
REMARK VINA RESULT:      -6.6     25.599     29.775
REMARK  Name = 45784113
REMARK  12 active torsions:
REMARK  status: ('A' for Active; 'I' for Inactive)
REMARK    1  A    between atoms: N_2  and  C_13
REMARK    2  A    between atoms: C_8  and  C_12
REMARK    3  A    between atoms: C_9  and  C_13
REMARK    4  A    between atoms: C_11  and  C_16
REMARK    5  A    between atoms: C_12  and  C_17
REMARK    6  A    between atoms: C_12  and  C_18
REMARK    7  A    between atoms: C_15  and  C_21
REMARK    8  A    between atoms: C_16  and  C_24
REMARK    9  A    between atoms: C_26  and  C_27
REMARK   10  A    between atoms: C_27  and  C_29
REMARK   11  A    between atoms: C_27  and  C_30
REMARK   12  A    between atoms: C_27  and  C_31
REMARK                            x       y       z     vdW  Elec       q    Type
REMARK                         _______ _______ _______ _____ _____    ______ ____
ROOT
ATOM      8  C   UNL     1     -13.367   8.359  20.331  0.00  0.00    +0.000 C 
ATOM      9  C   UNL     1     -13.849   8.202  21.792  0.00  0.00    +0.029 C 
ATOM     10  C   UNL     1     -13.460   9.826  19.889  0.00  0.00    +0.012 C 
ATOM     11  C   UNL     1     -12.668  10.790  20.797  0.00  0.00    +0.024 C 
ATOM     14  C   UNL     1     -13.312   9.282  22.698  0.00  0.00    -0.023 C 
ATOM     15  C   UNL     1     -12.770  10.437  22.273  0.00  0.00    -0.073 C 
ATOM     21  C   UNL     1     -12.186  11.408  23.262  0.00  0.00    +0.039 C 
ENDROOT
BRANCH   8  12
ATOM     12  C   UNL     1     -11.944   7.814  20.149  0.00  0.00    -0.013 C 
ATOM     17  C   UNL     1     -11.631   7.627  18.668  0.00  0.00    +0.007 C 
ATOM     18  C   UNL     1     -11.777   6.501  20.908  0.00  0.00    +0.007 C 
ENDBRANCH   8  12
BRANCH   9  13
ATOM     13  C   UNL     1     -15.378   8.181  21.885  0.00  0.00    +0.092 C 
BRANCH  13   2
ATOM      2  N   UNL     1     -15.846   6.902  22.419  0.00  0.00    -0.299 NA
ATOM      3  N   UNL     1     -16.122   4.837  24.372  0.00  0.00    -0.312 N 
ATOM      6  N   UNL     1     -16.181   2.497  24.772  0.00  0.00    -0.237 NA
ATOM      7  N   UNL     1     -16.821   3.029  27.451  0.00  0.00    -0.258 NA
ATOM     19  C   UNL     1     -16.674   7.114  23.611  0.00  0.00    +0.103 C 
ATOM     20  C   UNL     1     -14.707   6.035  22.748  0.00  0.00    +0.103 C 
ATOM     22  C   UNL     1     -17.216   5.787  24.148  0.00  0.00    +0.122 C 
ATOM     23  C   UNL     1     -15.184   4.672  23.254  0.00  0.00    +0.122 C 
ATOM     25  C   UNL     1     -16.310   3.755  25.238  0.00  0.00    +0.140 A 
ATOM     28  C   UNL     1     -16.624   4.016  26.554  0.00  0.00    +0.154 A 
ATOM     32  C   UNL     1     -16.377   1.509  25.670  0.00  0.00    +0.132 A 
ATOM     33  C   UNL     1     -16.692   1.771  26.985  0.00  0.00    +0.130 A 
ENDBRANCH  13   2
ENDBRANCH   9  13
BRANCH  11  16
ATOM     16  C   UNL     1     -13.113  12.226  20.494  0.00  0.00    +0.105 C 
BRANCH  16  24
ATOM      1  O   UNL     1     -11.541  11.995  18.644  0.00  0.00    -0.424 OA
ATOM      4  N   UNL     1     -12.134  14.107  19.081  0.00  0.00    -0.112 NA
ATOM      5  N   UNL     1     -11.248  14.123  18.020  0.00  0.00    -0.112 NA
ATOM     24  C   UNL     1     -12.275  12.845  19.413  0.00  0.00    +0.218 A 
ATOM     26  C   UNL     1     -10.929  12.869  17.799  0.00  0.00    +0.223 A 
BRANCH  26  27
ATOM     27  C   UNL     1     -10.027  12.298  16.791  0.00  0.00    +0.040 C 
ATOM     29  C   UNL     1     -10.564  12.511  15.333  0.00  0.00    +0.020 C 
ATOM     30  C   UNL     1      -9.838  10.751  16.980  0.00  0.00    +0.020 C 
ATOM     31  C   UNL     1      -8.562  12.875  16.762  0.00  0.00    +0.020 C 
ENDBRANCH  26  27
ENDBRANCH  16  24
ENDBRANCH  11  16
TORSDOF 6
ENDMDL
MODEL 10
REMARK VINA RESULT:      -6.4     27.801     31.470
REMARK  Name = 45784113
REMARK  12 active torsions:
REMARK  status: ('A' for Active; 'I' for Inactive)
REMARK    1  A    between atoms: N_2  and  C_13
REMARK    2  A    between atoms: C_8  and  C_12
REMARK    3  A    between atoms: C_9  and  C_13
REMARK    4  A    between atoms: C_11  and  C_16
REMARK    5  A    between atoms: C_12  and  C_17
REMARK    6  A    between atoms: C_12  and  C_18
REMARK    7  A    between atoms: C_15  and  C_21
REMARK    8  A    between atoms: C_16  and  C_24
REMARK    9  A    between atoms: C_26  and  C_27
REMARK   10  A    between atoms: C_27  and  C_29
REMARK   11  A    between atoms: C_27  and  C_30
REMARK   12  A    between atoms: C_27  and  C_31
REMARK                            x       y       z     vdW  Elec       q    Type
REMARK                         _______ _______ _______ _____ _____    ______ ____
ROOT
ATOM      8  C   UNL     1      -5.493  -9.161  10.431  0.00  0.00    +0.000 C 
ATOM      9  C   UNL     1      -6.776  -9.710   9.767  0.00  0.00    +0.029 C 
ATOM     10  C   UNL     1      -5.709  -8.961  11.937  0.00  0.00    +0.012 C 
ATOM     11  C   UNL     1      -6.155 -10.246  12.667  0.00  0.00    +0.024 C 
ATOM     14  C   UNL     1      -7.420 -10.811  10.573  0.00  0.00    -0.023 C 
ATOM     15  C   UNL     1      -7.147 -11.074  11.864  0.00  0.00    -0.073 C 
ATOM     21  C   UNL     1      -7.783 -12.252  12.548  0.00  0.00    +0.039 C 
ENDROOT
BRANCH   8  12
ATOM     12  C   UNL     1      -4.288 -10.073  10.160  0.00  0.00    -0.013 C 
ATOM     17  C   UNL     1      -2.985  -9.300  10.335  0.00  0.00    +0.007 C 
ATOM     18  C   UNL     1      -4.379 -10.670   8.759  0.00  0.00    +0.007 C 
ENDBRANCH   8  12
BRANCH   9  13
ATOM     13  C   UNL     1      -7.804  -8.602   9.519  0.00  0.00    +0.092 C 
BRANCH  13   2
ATOM      2  N   UNL     1      -7.757  -8.155   8.127  0.00  0.00    -0.299 NA
ATOM      3  N   UNL     1      -8.505  -8.131   5.370  0.00  0.00    -0.312 N 
ATOM      6  N   UNL     1      -7.749  -7.970   3.124  0.00  0.00    -0.237 NA
ATOM      7  N   UNL     1     -10.426  -7.949   2.287  0.00  0.00    -0.258 NA
ATOM     19  C   UNL     1      -9.057  -7.615   7.715  0.00  0.00    +0.103 C 
ATOM     20  C   UNL     1      -7.374  -9.265   7.243  0.00  0.00    +0.103 C 
ATOM     22  C   UNL     1      -9.006  -7.092   6.277  0.00  0.00    +0.122 C 
ATOM     23  C   UNL     1      -7.266  -8.797   5.791  0.00  0.00    +0.122 C 
ATOM     25  C   UNL     1      -8.771  -8.042   4.000  0.00  0.00    +0.140 A 
ATOM     28  C   UNL     1     -10.086  -8.032   3.588  0.00  0.00    +0.154 A 
ATOM     32  C   UNL     1      -8.089  -7.887   1.822  0.00  0.00    +0.132 A 
ATOM     33  C   UNL     1      -9.404  -7.877   1.411  0.00  0.00    +0.130 A 
ENDBRANCH  13   2
ENDBRANCH   9  13
BRANCH  11  16
ATOM     16  C   UNL     1      -6.683  -9.863  14.055  0.00  0.00    +0.105 C 
BRANCH  16  24
ATOM      1  O   UNL     1      -6.328 -10.686  16.324  0.00  0.00    -0.424 OA
ATOM      4  N   UNL     1      -4.448 -10.439  15.135  0.00  0.00    -0.112 NA
ATOM      5  N   UNL     1      -4.103 -10.906  16.389  0.00  0.00    -0.112 NA
ATOM     24  C   UNL     1      -5.756 -10.324  15.142  0.00  0.00    +0.218 A 
ATOM     26  C   UNL     1      -5.230 -11.037  17.049  0.00  0.00    +0.223 A 
BRANCH  26  27
ATOM     27  C   UNL     1      -5.462 -11.498  18.423  0.00  0.00    +0.040 C 
ATOM     29  C   UNL     1      -4.137 -11.969  19.117  0.00  0.00    +0.020 C 
ATOM     30  C   UNL     1      -6.456 -12.712  18.476  0.00  0.00    +0.020 C 
ATOM     31  C   UNL     1      -6.076 -10.441  19.416  0.00  0.00    +0.020 C 
ENDBRANCH  26  27
ENDBRANCH  16  24
ENDBRANCH  11  16
TORSDOF 6
ENDMDL
