REMARK  Name = 11884352
REMARK  3 active torsions:
REMARK  status: ('A' for Active; 'I' for Inactive)
REMARK    1  A    between atoms: O_3  and  C_10
REMARK    2  A    between atoms: N_5  and  C_9
REMARK    3  A    between atoms: N_6  and  C_14
REMARK                            x       y       z     vdW  Elec       q    Type
REMARK                         _______ _______ _______ _____ _____    ______ ____
ROOT
ATOM      4  O   UNL     1      -0.080   2.073  -0.732  0.00  0.00    -0.252 OA
ATOM      5  N   UNL     1      -1.293   0.362   0.242  0.00  0.00    -0.292 N 
ATOM      6  N   UNL     1       1.001   0.294   0.354  0.00  0.00    -0.269 N 
ATOM     13  C   UNL     1      -0.104   1.015  -0.107  0.00  0.00    +0.304 C 
ATOM     24  H   UNL     1      -1.231  -0.537   0.709  0.00  0.00    +0.151 HD
ATOM     26  H   UNL     1       0.786  -0.642   0.678  0.00  0.00    +0.156 HD
ENDROOT
BRANCH   6  14
ATOM     14  C   UNL     1       2.371   0.616   0.206  0.00  0.00    +0.042 A 
ATOM     15  C   UNL     1       3.346  -0.381   0.133  0.00  0.00    +0.003 A 
ATOM     16  C   UNL     1       4.701   0.002  -0.014  0.00  0.00    -0.016 A 
ATOM     17  C   UNL     1       2.698   1.964   0.139  0.00  0.00    +0.024 A 
ATOM     18  C   UNL     1       3.022  -1.746   0.200  0.00  0.00    +0.010 A 
ATOM     19  C   UNL     1       5.026   1.366  -0.082  0.00  0.00    +0.008 A 
ATOM     20  C   UNL     1       4.030   2.340  -0.006  0.00  0.00    +0.002 A 
ATOM     21  C   UNL     1       5.691  -0.992  -0.090  0.00  0.00    +0.008 A 
ATOM     22  C   UNL     1       4.018  -2.719   0.124  0.00  0.00    +0.001 A 
ATOM     23  C   UNL     1       5.350  -2.343  -0.021  0.00  0.00    +0.001 A 
ENDBRANCH   6  14
BRANCH   5   9
ATOM      1  O   UNL     1      -3.764  -0.933  -1.150  0.00  0.00    -0.369 OA
ATOM      2  O   UNL     1      -4.859   1.179   0.767  0.00  0.00    -0.369 OA
ATOM      7  C   UNL     1      -3.679   0.349   0.840  0.00  0.00    +0.172 C 
ATOM      8  C   UNL     1      -4.057  -0.998   0.256  0.00  0.00    +0.179 C 
ATOM      9  C   UNL     1      -2.618   0.875  -0.102  0.00  0.00    +0.131 C 
ATOM     10  C   UNL     1      -5.543  -1.060   0.514  0.00  0.00    +0.171 C 
ATOM     11  C   UNL     1      -3.068   0.291  -1.434  0.00  0.00    +0.185 C 
ATOM     12  C   UNL     1      -5.962   0.380   0.315  0.00  0.00    +0.194 C 
BRANCH  10   3
ATOM      3  O   UNL     1      -6.229  -1.936  -0.351  0.00  0.00    -0.387 OA
ATOM     25  H   UNL     1      -6.005  -1.691  -1.266  0.00  0.00    +0.210 HD
ENDBRANCH  10   3
ENDBRANCH   5   9
TORSDOF 3
