MODEL 1
REMARK VINA RESULT:      -6.2      0.000      0.000
REMARK  Name = 11943556
REMARK  5 active torsions:
REMARK  status: ('A' for Active; 'I' for Inactive)
REMARK    1  A    between atoms: N_3  and  C_11
REMARK    2  A    between atoms: N_3  and  C_13
REMARK    3  A    between atoms: C_5  and  C_11
REMARK    4  A    between atoms: C_7  and  C_12
REMARK    5  A    between atoms: C_13  and  C_15
REMARK                            x       y       z     vdW  Elec       q    Type
REMARK                         _______ _______ _______ _____ _____    ______ ____
ROOT
ATOM     11  C   UNL     1      14.824   8.260  21.721  0.00  0.00    +0.100 C 
ENDROOT
BRANCH  11   5
ATOM      2  N   UNL     1      12.891   6.802  21.067  0.00  0.00    -0.297 NA
ATOM      4  C   UNL     1      11.315   8.796  20.504  0.00  0.00    +0.008 C 
ATOM      5  C   UNL     1      13.316   8.015  21.818  0.00  0.00    +0.071 C 
ATOM      6  C   UNL     1      12.504   9.251  21.375  0.00  0.00    +0.025 C 
ATOM      7  C   UNL     1      11.857   8.139  19.216  0.00  0.00    +0.081 C 
ATOM      8  C   UNL     1      10.567   7.699  21.286  0.00  0.00    +0.020 C 
ATOM      9  C   UNL     1      12.902   7.071  19.607  0.00  0.00    +0.101 C 
ATOM     10  C   UNL     1      11.498   6.485  21.468  0.00  0.00    +0.085 C 
BRANCH   7  12
ATOM     12  C   UNL     1      12.421   9.130  18.286  0.00  0.00    -0.101 C 
ATOM     14  C   UNL     1      12.881   9.937  17.525  0.00  0.00    +0.004 C 
ENDBRANCH   7  12
ENDBRANCH  11   5
BRANCH  11   3
ATOM      3  N   UNL     1      15.535   6.989  21.936  0.00  0.00    -0.311 NA
ATOM     21  H   UNL     1      14.853   6.258  22.142  0.00  0.00    +0.122 HD
BRANCH   3  13
ATOM     13  C   UNL     1      16.298   6.631  20.755  0.00  0.00    +0.116 C 
BRANCH  13  15
ATOM      1 CL   UNL     1      20.135   9.523  22.744  0.00  0.00    -0.084 Cl
ATOM     15  C   UNL     1      17.774   6.851  20.953  0.00  0.00    -0.032 A 
ATOM     16  C   UNL     1      18.211   7.955  21.671  0.00  0.00    +0.025 A 
ATOM     17  C   UNL     1      18.677   5.945  20.416  0.00  0.00    +0.005 A 
ATOM     18  C   UNL     1      19.578   8.158  21.856  0.00  0.00    +0.041 A 
ATOM     19  C   UNL     1      20.045   6.147  20.601  0.00  0.00    +0.002 A 
ATOM     20  C   UNL     1      20.495   7.254  21.321  0.00  0.00    +0.020 A 
ENDBRANCH  13  15
ENDBRANCH   3  13
ENDBRANCH  11   3
TORSDOF 5
ENDMDL
MODEL 2
REMARK VINA RESULT:      -6.1      1.588      2.959
REMARK  Name = 11943556
REMARK  5 active torsions:
REMARK  status: ('A' for Active; 'I' for Inactive)
REMARK    1  A    between atoms: N_3  and  C_11
REMARK    2  A    between atoms: N_3  and  C_13
REMARK    3  A    between atoms: C_5  and  C_11
REMARK    4  A    between atoms: C_7  and  C_12
REMARK    5  A    between atoms: C_13  and  C_15
REMARK                            x       y       z     vdW  Elec       q    Type
REMARK                         _______ _______ _______ _____ _____    ______ ____
ROOT
ATOM     11  C   UNL     1      14.644   9.397  21.924  0.00  0.00    +0.100 C 
ENDROOT
BRANCH  11   5
ATOM      2  N   UNL     1      13.262  10.266  20.021  0.00  0.00    -0.297 NA
ATOM      4  C   UNL     1      12.394   7.917  19.311  0.00  0.00    +0.008 C 
ATOM      5  C   UNL     1      14.217   9.215  20.466  0.00  0.00    +0.071 C 
ATOM      6  C   UNL     1      13.645   7.804  20.207  0.00  0.00    +0.025 C 
ATOM      7  C   UNL     1      11.302   8.705  20.069  0.00  0.00    +0.081 C 
ATOM      8  C   UNL     1      12.784   8.761  18.083  0.00  0.00    +0.020 C 
ATOM      9  C   UNL     1      11.917  10.018  20.599  0.00  0.00    +0.101 C 
ATOM     10  C   UNL     1      13.152  10.184  18.543  0.00  0.00    +0.085 C 
BRANCH   7  12
ATOM     12  C   UNL     1      10.703   7.913  21.154  0.00  0.00    -0.101 C 
ATOM     14  C   UNL     1      10.215   7.266  22.040  0.00  0.00    +0.004 C 
ENDBRANCH   7  12
ENDBRANCH  11   5
BRANCH  11   3
ATOM      3  N   UNL     1      15.759   8.481  22.219  0.00  0.00    -0.311 NA
ATOM     21  H   UNL     1      15.481   7.530  21.972  0.00  0.00    +0.122 HD
BRANCH   3  13
ATOM     13  C   UNL     1      16.938   8.861  21.463  0.00  0.00    +0.116 C 
BRANCH  13  15
ATOM      1 CL   UNL     1      21.075   5.724  21.753  0.00  0.00    -0.084 Cl
ATOM     15  C   UNL     1      17.682   7.660  20.942  0.00  0.00    -0.032 A 
ATOM     16  C   UNL     1      18.889   7.298  21.524  0.00  0.00    +0.025 A 
ATOM     17  C   UNL     1      17.149   6.931  19.889  0.00  0.00    +0.005 A 
ATOM     18  C   UNL     1      19.577   6.185  21.043  0.00  0.00    +0.041 A 
ATOM     19  C   UNL     1      17.838   5.817  19.407  0.00  0.00    +0.002 A 
ATOM     20  C   UNL     1      19.051   5.445  19.984  0.00  0.00    +0.020 A 
ENDBRANCH  13  15
ENDBRANCH   3  13
ENDBRANCH  11   3
TORSDOF 5
ENDMDL
MODEL 3
REMARK VINA RESULT:      -6.1      1.792      2.852
REMARK  Name = 11943556
REMARK  5 active torsions:
REMARK  status: ('A' for Active; 'I' for Inactive)
REMARK    1  A    between atoms: N_3  and  C_11
REMARK    2  A    between atoms: N_3  and  C_13
REMARK    3  A    between atoms: C_5  and  C_11
REMARK    4  A    between atoms: C_7  and  C_12
REMARK    5  A    between atoms: C_13  and  C_15
REMARK                            x       y       z     vdW  Elec       q    Type
REMARK                         _______ _______ _______ _____ _____    ______ ____
ROOT
ATOM     11  C   UNL     1      14.364   7.324  18.918  0.00  0.00    +0.100 C 
ENDROOT
BRANCH  11   5
ATOM      2  N   UNL     1      12.271   8.667  19.250  0.00  0.00    -0.297 NA
ATOM      4  C   UNL     1      12.157   8.235  21.814  0.00  0.00    +0.008 C 
ATOM      5  C   UNL     1      12.989   7.407  19.586  0.00  0.00    +0.071 C 
ATOM      6  C   UNL     1      13.081   7.216  21.116  0.00  0.00    +0.025 C 
ATOM      7  C   UNL     1      12.667   9.663  21.515  0.00  0.00    +0.081 C 
ATOM      8  C   UNL     1      10.765   8.112  21.167  0.00  0.00    +0.020 C 
ATOM      9  C   UNL     1      12.863   9.809  19.991  0.00  0.00    +0.101 C 
ATOM     10  C   UNL     1      10.860   8.515  19.683  0.00  0.00    +0.085 C 
BRANCH   7  12
ATOM     12  C   UNL     1      13.903   9.974  22.250  0.00  0.00    -0.101 C 
ATOM     14  C   UNL     1      14.910  10.228  22.851  0.00  0.00    +0.004 C 
ENDBRANCH   7  12
ENDBRANCH  11   5
BRANCH  11   3
ATOM      3  N   UNL     1      15.398   7.181  19.956  0.00  0.00    -0.311 NA
ATOM     21  H   UNL     1      14.973   6.784  20.795  0.00  0.00    +0.122 HD
BRANCH   3  13
ATOM     13  C   UNL     1      16.466   6.316  19.489  0.00  0.00    +0.116 C 
BRANCH  13  15
ATOM      1 CL   UNL     1      21.369   4.889  20.469  0.00  0.00    -0.084 Cl
ATOM     15  C   UNL     1      17.746   6.547  20.246  0.00  0.00    -0.032 A 
ATOM     16  C   UNL     1      18.830   5.707  20.028  0.00  0.00    +0.025 A 
ATOM     17  C   UNL     1      17.826   7.597  21.150  0.00  0.00    +0.005 A 
ATOM     18  C   UNL     1      20.017   5.922  20.728  0.00  0.00    +0.041 A 
ATOM     19  C   UNL     1      19.013   7.811  21.851  0.00  0.00    +0.002 A 
ATOM     20  C   UNL     1      20.109   6.974  21.639  0.00  0.00    +0.020 A 
ENDBRANCH  13  15
ENDBRANCH   3  13
ENDBRANCH  11   3
TORSDOF 5
ENDMDL
MODEL 4
REMARK VINA RESULT:      -6.0     15.553     18.100
REMARK  Name = 11943556
REMARK  5 active torsions:
REMARK  status: ('A' for Active; 'I' for Inactive)
REMARK    1  A    between atoms: N_3  and  C_11
REMARK    2  A    between atoms: N_3  and  C_13
REMARK    3  A    between atoms: C_5  and  C_11
REMARK    4  A    between atoms: C_7  and  C_12
REMARK    5  A    between atoms: C_13  and  C_15
REMARK                            x       y       z     vdW  Elec       q    Type
REMARK                         _______ _______ _______ _____ _____    ______ ____
ROOT
ATOM     11  C   UNL     1      10.794   5.333   4.490  0.00  0.00    +0.100 C 
ENDROOT
BRANCH  11   5
ATOM      2  N   UNL     1      10.628   7.539   5.672  0.00  0.00    -0.297 NA
ATOM      4  C   UNL     1       8.355   6.986   6.815  0.00  0.00    +0.008 C 
ATOM      5  C   UNL     1       9.898   6.510   4.882  0.00  0.00    +0.071 C 
ATOM      6  C   UNL     1       8.627   6.043   5.624  0.00  0.00    +0.025 C 
ATOM      7  C   UNL     1       9.522   6.875   7.821  0.00  0.00    +0.081 C 
ATOM      8  C   UNL     1       8.369   8.427   6.271  0.00  0.00    +0.020 C 
ATOM      9  C   UNL     1      10.852   7.058   7.059  0.00  0.00    +0.101 C 
ATOM     10  C   UNL     1       9.776   8.752   5.736  0.00  0.00    +0.085 C 
BRANCH   7  12
ATOM     12  C   UNL     1       9.494   5.603   8.561  0.00  0.00    -0.101 C 
ATOM     14  C   UNL     1       9.471   4.567   9.166  0.00  0.00    +0.004 C 
ENDBRANCH   7  12
ENDBRANCH  11   5
BRANCH  11   3
ATOM      3  N   UNL     1      10.631   5.060   3.052  0.00  0.00    -0.311 NA
ATOM     21  H   UNL     1      11.102   5.792   2.519  0.00  0.00    +0.122 HD
BRANCH   3  13
ATOM     13  C   UNL     1      11.196   3.766   2.717  0.00  0.00    +0.116 C 
BRANCH  13  15
ATOM      1 CL   UNL     1      15.918   3.639   0.543  0.00  0.00    -0.084 Cl
ATOM     15  C   UNL     1      12.042   3.829   1.474  0.00  0.00    -0.032 A 
ATOM     16  C   UNL     1      13.422   3.718   1.580  0.00  0.00    +0.025 A 
ATOM     17  C   UNL     1      11.431   3.994   0.239  0.00  0.00    +0.005 A 
ATOM     18  C   UNL     1      14.206   3.774   0.428  0.00  0.00    +0.041 A 
ATOM     19  C   UNL     1      12.216   4.050  -0.914  0.00  0.00    +0.002 A 
ATOM     20  C   UNL     1      13.603   3.940  -0.819  0.00  0.00    +0.020 A 
ENDBRANCH  13  15
ENDBRANCH   3  13
ENDBRANCH  11   3
TORSDOF 5
ENDMDL
MODEL 5
REMARK VINA RESULT:      -6.0     26.648     28.204
REMARK  Name = 11943556
REMARK  5 active torsions:
REMARK  status: ('A' for Active; 'I' for Inactive)
REMARK    1  A    between atoms: N_3  and  C_11
REMARK    2  A    between atoms: N_3  and  C_13
REMARK    3  A    between atoms: C_5  and  C_11
REMARK    4  A    between atoms: C_7  and  C_12
REMARK    5  A    between atoms: C_13  and  C_15
REMARK                            x       y       z     vdW  Elec       q    Type
REMARK                         _______ _______ _______ _____ _____    ______ ____
ROOT
ATOM     11  C   UNL     1      -5.336 -10.590  14.181  0.00  0.00    +0.100 C 
ENDROOT
BRANCH  11   5
ATOM      2  N   UNL     1      -2.930 -11.291  14.292  0.00  0.00    -0.297 NA
ATOM      4  C   UNL     1      -2.888 -12.258  11.876  0.00  0.00    +0.008 C 
ATOM      5  C   UNL     1      -4.305 -11.680  13.876  0.00  0.00    +0.071 C 
ATOM      6  C   UNL     1      -4.334 -12.098  12.390  0.00  0.00    +0.025 C 
ATOM      7  C   UNL     1      -2.179 -10.887  11.936  0.00  0.00    +0.081 C 
ATOM      8  C   UNL     1      -2.151 -13.186  12.860  0.00  0.00    +0.020 C 
ATOM      9  C   UNL     1      -2.370 -10.292  13.348  0.00  0.00    +0.101 C 
ATOM     10  C   UNL     1      -2.078 -12.504  14.239  0.00  0.00    +0.085 C 
BRANCH   7  12
ATOM     12  C   UNL     1      -2.664  -9.968  10.893  0.00  0.00    -0.101 C 
ATOM     14  C   UNL     1      -3.059  -9.218  10.043  0.00  0.00    +0.004 C 
ENDBRANCH   7  12
ENDBRANCH  11   5
BRANCH  11   3
ATOM      3  N   UNL     1      -4.938  -9.878  15.405  0.00  0.00    -0.311 NA
ATOM     21  H   UNL     1      -4.459  -9.014  15.147  0.00  0.00    +0.122 HD
BRANCH   3  13
ATOM     13  C   UNL     1      -6.104  -9.571  16.213  0.00  0.00    +0.116 C 
BRANCH  13  15
ATOM      1 CL   UNL     1      -3.445 -12.358  19.706  0.00  0.00    -0.084 Cl
ATOM     15  C   UNL     1      -6.080 -10.296  17.532  0.00  0.00    -0.032 A 
ATOM     16  C   UNL     1      -4.910 -10.915  17.950  0.00  0.00    +0.025 A 
ATOM     17  C   UNL     1      -7.227 -10.335  18.311  0.00  0.00    +0.005 A 
ATOM     18  C   UNL     1      -4.887 -11.585  19.173  0.00  0.00    +0.041 A 
ATOM     19  C   UNL     1      -7.205 -11.006  19.534  0.00  0.00    +0.002 A 
ATOM     20  C   UNL     1      -6.035 -11.631  19.965  0.00  0.00    +0.020 A 
ENDBRANCH  13  15
ENDBRANCH   3  13
ENDBRANCH  11   3
TORSDOF 5
ENDMDL
MODEL 6
REMARK VINA RESULT:      -5.9     16.349     19.214
REMARK  Name = 11943556
REMARK  5 active torsions:
REMARK  status: ('A' for Active; 'I' for Inactive)
REMARK    1  A    between atoms: N_3  and  C_11
REMARK    2  A    between atoms: N_3  and  C_13
REMARK    3  A    between atoms: C_5  and  C_11
REMARK    4  A    between atoms: C_7  and  C_12
REMARK    5  A    between atoms: C_13  and  C_15
REMARK                            x       y       z     vdW  Elec       q    Type
REMARK                         _______ _______ _______ _____ _____    ______ ____
ROOT
ATOM     11  C   UNL     1      10.943   5.641   1.909  0.00  0.00    +0.100 C 
ENDROOT
BRANCH  11   5
ATOM      2  N   UNL     1      13.380   5.700   1.318  0.00  0.00    -0.297 NA
ATOM      4  C   UNL     1      13.574   3.123   1.000  0.00  0.00    +0.008 C 
ATOM      5  C   UNL     1      12.323   5.008   2.106  0.00  0.00    +0.071 C 
ATOM      6  C   UNL     1      12.310   3.495   1.803  0.00  0.00    +0.025 C 
ATOM      7  C   UNL     1      13.534   3.848  -0.363  0.00  0.00    +0.081 C 
ATOM      8  C   UNL     1      14.786   3.682   1.768  0.00  0.00    +0.020 C 
ATOM      9  C   UNL     1      13.262   5.348  -0.119  0.00  0.00    +0.101 C 
ATOM     10  C   UNL     1      14.697   5.220   1.805  0.00  0.00    +0.085 C 
BRANCH   7  12
ATOM     12  C   UNL     1      12.538   3.259  -1.273  0.00  0.00    -0.101 C 
ATOM     14  C   UNL     1      11.725   2.781  -2.015  0.00  0.00    +0.004 C 
ENDBRANCH   7  12
ENDBRANCH  11   5
BRANCH  11   3
ATOM      3  N   UNL     1      10.495   6.227   3.183  0.00  0.00    -0.311 NA
ATOM     21  H   UNL     1       9.693   6.833   3.005  0.00  0.00    +0.122 HD
BRANCH   3  13
ATOM     13  C   UNL     1      10.122   5.181   4.117  0.00  0.00    +0.116 C 
BRANCH  13  15
ATOM      1 CL   UNL     1       9.619   4.558   9.255  0.00  0.00    -0.084 Cl
ATOM     15  C   UNL     1       9.689   5.742   5.445  0.00  0.00    -0.032 A 
ATOM     16  C   UNL     1       9.840   4.976   6.593  0.00  0.00    +0.025 A 
ATOM     17  C   UNL     1       9.147   7.018   5.503  0.00  0.00    +0.005 A 
ATOM     18  C   UNL     1       9.440   5.496   7.823  0.00  0.00    +0.041 A 
ATOM     19  C   UNL     1       8.747   7.539   6.734  0.00  0.00    +0.002 A 
ATOM     20  C   UNL     1       8.894   6.778   7.894  0.00  0.00    +0.020 A 
ENDBRANCH  13  15
ENDBRANCH   3  13
ENDBRANCH  11   3
TORSDOF 5
ENDMDL
MODEL 7
REMARK VINA RESULT:      -5.8     26.649     28.616
REMARK  Name = 11943556
REMARK  5 active torsions:
REMARK  status: ('A' for Active; 'I' for Inactive)
REMARK    1  A    between atoms: N_3  and  C_11
REMARK    2  A    between atoms: N_3  and  C_13
REMARK    3  A    between atoms: C_5  and  C_11
REMARK    4  A    between atoms: C_7  and  C_12
REMARK    5  A    between atoms: C_13  and  C_15
REMARK                            x       y       z     vdW  Elec       q    Type
REMARK                         _______ _______ _______ _____ _____    ______ ____
ROOT
ATOM     11  C   UNL     1      -5.902 -14.042  16.737  0.00  0.00    +0.100 C 
ENDROOT
BRANCH  11   5
ATOM      2  N   UNL     1      -6.842 -11.772  17.241  0.00  0.00    -0.297 NA
ATOM      4  C   UNL     1      -4.833 -11.047  18.728  0.00  0.00    +0.008 C 
ATOM      5  C   UNL     1      -6.163 -12.973  17.800  0.00  0.00    +0.071 C 
ATOM      6  C   UNL     1      -4.871 -12.578  18.547  0.00  0.00    +0.025 C 
ATOM      7  C   UNL     1      -4.762 -10.378  17.338  0.00  0.00    +0.081 C 
ATOM      8  C   UNL     1      -6.173 -10.626  19.359  0.00  0.00    +0.020 C 
ATOM      9  C   UNL     1      -5.883 -10.961  16.450  0.00  0.00    +0.101 C 
ATOM     10  C   UNL     1      -7.317 -10.947  18.379  0.00  0.00    +0.085 C 
BRANCH   7  12
ATOM     12  C   UNL     1      -3.440 -10.540  16.713  0.00  0.00    -0.101 C 
ATOM     14  C   UNL     1      -2.361 -10.672  16.202  0.00  0.00    +0.004 C 
ENDBRANCH   7  12
ENDBRANCH  11   5
BRANCH  11   3
ATOM      3  N   UNL     1      -4.457 -14.111  16.464  0.00  0.00    -0.311 NA
ATOM     21  H   UNL     1      -4.017 -14.719  17.154  0.00  0.00    +0.122 HD
BRANCH   3  13
ATOM     13  C   UNL     1      -4.219 -14.628  15.129  0.00  0.00    +0.116 C 
BRANCH  13  15
ATOM      1 CL   UNL     1      -4.426 -10.423  12.076  0.00  0.00    -0.084 Cl
ATOM     15  C   UNL     1      -3.499 -13.631  14.261  0.00  0.00    -0.032 A 
ATOM     16  C   UNL     1      -4.217 -12.614  13.647  0.00  0.00    +0.025 A 
ATOM     17  C   UNL     1      -2.127 -13.741  14.089  0.00  0.00    +0.005 A 
ATOM     18  C   UNL     1      -3.549 -11.689  12.845  0.00  0.00    +0.041 A 
ATOM     19  C   UNL     1      -1.459 -12.817  13.285  0.00  0.00    +0.002 A 
ATOM     20  C   UNL     1      -2.170 -11.791  12.664  0.00  0.00    +0.020 A 
ENDBRANCH  13  15
ENDBRANCH   3  13
ENDBRANCH  11   3
TORSDOF 5
ENDMDL
MODEL 8
REMARK VINA RESULT:      -5.8     26.068     28.006
REMARK  Name = 11943556
REMARK  5 active torsions:
REMARK  status: ('A' for Active; 'I' for Inactive)
REMARK    1  A    between atoms: N_3  and  C_11
REMARK    2  A    between atoms: N_3  and  C_13
REMARK    3  A    between atoms: C_5  and  C_11
REMARK    4  A    between atoms: C_7  and  C_12
REMARK    5  A    between atoms: C_13  and  C_15
REMARK                            x       y       z     vdW  Elec       q    Type
REMARK                         _______ _______ _______ _____ _____    ______ ____
ROOT
ATOM     11  C   UNL     1      -2.450 -11.202  16.008  0.00  0.00    +0.100 C 
ENDROOT
BRANCH  11   5
ATOM      2  N   UNL     1      -4.549 -12.455  16.570  0.00  0.00    -0.297 NA
ATOM      4  C   UNL     1      -6.079 -10.352  16.455  0.00  0.00    +0.008 C 
ATOM      5  C   UNL     1      -3.746 -11.228  16.822  0.00  0.00    +0.071 C 
ATOM      6  C   UNL     1      -4.593  -9.957  16.594  0.00  0.00    +0.025 C 
ATOM      7  C   UNL     1      -6.249 -11.230  15.195  0.00  0.00    +0.081 C 
ATOM      8  C   UNL     1      -6.434 -11.234  17.666  0.00  0.00    +0.020 C 
ATOM      9  C   UNL     1      -5.211 -12.373  15.244  0.00  0.00    +0.101 C 
ATOM     10  C   UNL     1      -5.605 -12.530  17.610  0.00  0.00    +0.085 C 
BRANCH   7  12
ATOM     12  C   UNL     1      -6.131 -10.447  13.955  0.00  0.00    -0.101 C 
ATOM     14  C   UNL     1      -6.037  -9.806  12.944  0.00  0.00    +0.004 C 
ENDBRANCH   7  12
ENDBRANCH  11   5
BRANCH  11   3
ATOM      3  N   UNL     1      -2.521 -10.111  15.022  0.00  0.00    -0.311 NA
ATOM     21  H   UNL     1      -2.278  -9.233  15.480  0.00  0.00    +0.122 HD
BRANCH   3  13
ATOM     13  C   UNL     1      -1.606 -10.363  13.924  0.00  0.00    +0.116 C 
BRANCH  13  15
ATOM      1 CL   UNL     1      -3.765  -9.139   9.355  0.00  0.00    -0.084 Cl
ATOM     15  C   UNL     1      -2.329 -10.810  12.682  0.00  0.00    -0.032 A 
ATOM     16  C   UNL     1      -2.668  -9.874  11.715  0.00  0.00    +0.025 A 
ATOM     17  C   UNL     1      -2.644 -12.151  12.520  0.00  0.00    +0.005 A 
ATOM     18  C   UNL     1      -3.337 -10.288  10.563  0.00  0.00    +0.041 A 
ATOM     19  C   UNL     1      -3.313 -12.566  11.368  0.00  0.00    +0.002 A 
ATOM     20  C   UNL     1      -3.659 -11.634  10.389  0.00  0.00    +0.020 A 
ENDBRANCH  13  15
ENDBRANCH   3  13
ENDBRANCH  11   3
TORSDOF 5
ENDMDL
MODEL 9
REMARK VINA RESULT:      -5.8     26.678     28.378
REMARK  Name = 11943556
REMARK  5 active torsions:
REMARK  status: ('A' for Active; 'I' for Inactive)
REMARK    1  A    between atoms: N_3  and  C_11
REMARK    2  A    between atoms: N_3  and  C_13
REMARK    3  A    between atoms: C_5  and  C_11
REMARK    4  A    between atoms: C_7  and  C_12
REMARK    5  A    between atoms: C_13  and  C_15
REMARK                            x       y       z     vdW  Elec       q    Type
REMARK                         _______ _______ _______ _____ _____    ______ ____
ROOT
ATOM     11  C   UNL     1      -2.281 -10.874  14.713  0.00  0.00    +0.100 C 
ENDROOT
BRANCH  11   5
ATOM      2  N   UNL     1      -4.272 -10.697  13.198  0.00  0.00    -0.297 NA
ATOM      4  C   UNL     1      -2.975 -11.448  11.070  0.00  0.00    +0.008 C 
ATOM      5  C   UNL     1      -2.821 -10.409  13.359  0.00  0.00    +0.071 C 
ATOM      6  C   UNL     1      -2.008 -10.996  12.185  0.00  0.00    +0.025 C 
ATOM      7  C   UNL     1      -3.863 -12.591  11.608  0.00  0.00    +0.081 C 
ATOM      8  C   UNL     1      -3.908 -10.262  10.764  0.00  0.00    +0.020 C 
ATOM      9  C   UNL     1      -4.484 -12.145  12.950  0.00  0.00    +0.101 C 
ATOM     10  C   UNL     1      -4.756  -9.949  12.012  0.00  0.00    +0.085 C 
BRANCH   7  12
ATOM     12  C   UNL     1      -3.116 -13.851  11.751  0.00  0.00    -0.101 C 
ATOM     14  C   UNL     1      -2.508 -14.879  11.868  0.00  0.00    +0.004 C 
ENDBRANCH   7  12
ENDBRANCH  11   5
BRANCH  11   3
ATOM      3  N   UNL     1      -3.095 -10.281  15.787  0.00  0.00    -0.311 NA
ATOM     21  H   UNL     1      -4.022 -10.065  15.421  0.00  0.00    +0.122 HD
BRANCH   3  13
ATOM     13  C   UNL     1      -3.208 -11.202  16.903  0.00  0.00    +0.116 C 
BRANCH  13  15
ATOM      1 CL   UNL     1      -7.977  -9.141  17.137  0.00  0.00    -0.084 Cl
ATOM     15  C   UNL     1      -4.484 -10.994  17.675  0.00  0.00    -0.032 A 
ATOM     16  C   UNL     1      -5.512 -10.251  17.109  0.00  0.00    +0.025 A 
ATOM     17  C   UNL     1      -4.615 -11.550  18.939  0.00  0.00    +0.005 A 
ATOM     18  C   UNL     1      -6.694 -10.060  17.824  0.00  0.00    +0.041 A 
ATOM     19  C   UNL     1      -5.798 -11.358  19.654  0.00  0.00    +0.002 A 
ATOM     20  C   UNL     1      -6.837 -10.614  19.096  0.00  0.00    +0.020 A 
ENDBRANCH  13  15
ENDBRANCH   3  13
ENDBRANCH  11   3
TORSDOF 5
ENDMDL
MODEL 10
REMARK VINA RESULT:      -5.7      3.452      6.590
REMARK  Name = 11943556
REMARK  5 active torsions:
REMARK  status: ('A' for Active; 'I' for Inactive)
REMARK    1  A    between atoms: N_3  and  C_11
REMARK    2  A    between atoms: N_3  and  C_13
REMARK    3  A    between atoms: C_5  and  C_11
REMARK    4  A    between atoms: C_7  and  C_12
REMARK    5  A    between atoms: C_13  and  C_15
REMARK                            x       y       z     vdW  Elec       q    Type
REMARK                         _______ _______ _______ _____ _____    ______ ____
ROOT
ATOM     11  C   UNL     1      14.402   9.865  18.410  0.00  0.00    +0.100 C 
ENDROOT
BRANCH  11   5
ATOM      2  N   UNL     1      14.799   7.414  18.759  0.00  0.00    -0.297 NA
ATOM      4  C   UNL     1      14.347   7.498  21.322  0.00  0.00    +0.008 C 
ATOM      5  C   UNL     1      15.054   8.786  19.277  0.00  0.00    +0.071 C 
ATOM      6  C   UNL     1      14.634   8.905  20.757  0.00  0.00    +0.025 C 
ATOM      7  C   UNL     1      13.144   6.890  20.567  0.00  0.00    +0.081 C 
ATOM      8  C   UNL     1      15.569   6.617  21.000  0.00  0.00    +0.020 C 
ATOM      9  C   UNL     1      13.400   7.008  19.050  0.00  0.00    +0.101 C 
ATOM     10  C   UNL     1      15.707   6.482  19.472  0.00  0.00    +0.085 C 
BRANCH   7  12
ATOM     12  C   UNL     1      11.873   7.524  20.951  0.00  0.00    -0.101 C 
ATOM     14  C   UNL     1      10.837   8.043  21.265  0.00  0.00    +0.004 C 
ENDBRANCH   7  12
ENDBRANCH  11   5
BRANCH  11   3
ATOM      3  N   UNL     1      13.229  10.408  19.116  0.00  0.00    -0.311 NA
ATOM     21  H   UNL     1      13.175   9.985  20.043  0.00  0.00    +0.122 HD
BRANCH   3  13
ATOM     13  C   UNL     1      13.335  11.850  19.237  0.00  0.00    +0.116 C 
BRANCH  13  15
ATOM      1 CL   UNL     1      10.720  11.051  23.661  0.00  0.00    -0.084 Cl
ATOM     15  C   UNL     1      12.433  12.390  20.314  0.00  0.00    -0.032 A 
ATOM     16  C   UNL     1      12.045  11.563  21.360  0.00  0.00    +0.025 A 
ATOM     17  C   UNL     1      12.004  13.708  20.249  0.00  0.00    +0.005 A 
ATOM     18  C   UNL     1      11.211  12.064  22.359  0.00  0.00    +0.041 A 
ATOM     19  C   UNL     1      11.169  14.209  21.248  0.00  0.00    +0.002 A 
ATOM     20  C   UNL     1      10.773  13.387  22.303  0.00  0.00    +0.020 A 
ENDBRANCH  13  15
ENDBRANCH   3  13
ENDBRANCH  11   3
TORSDOF 5
ENDMDL
