REMARK  Name = 71693182
REMARK  12 active torsions:
REMARK  status: ('A' for Active; 'I' for Inactive)
REMARK    1  A    between atoms: O_1  and  C_31
REMARK    2  A    between atoms: O_1  and  C_32
REMARK    3  A    between atoms: N_3  and  C_11
REMARK    4  A    between atoms: N_3  and  C_14
REMARK    5  A    between atoms: C_6  and  C_10
REMARK    6  A    between atoms: C_7  and  C_11
REMARK    7  A    between atoms: C_9  and  C_15
REMARK    8  A    between atoms: C_10  and  C_18
REMARK    9  A    between atoms: C_10  and  C_19
REMARK   10  A    between atoms: C_12  and  C_22
REMARK   11  A    between atoms: C_15  and  C_24
REMARK   12  A    between atoms: C_29  and  C_31
REMARK                            x       y       z     vdW  Elec       q    Type
REMARK                         _______ _______ _______ _____ _____    ______ ____
ROOT
ATOM      6  C   UNL     1      -3.485   0.346  -0.400  0.00  0.00    +0.000 C 
ATOM      7  C   UNL     1      -3.131   0.369   1.105  0.00  0.00    +0.029 C 
ATOM      8  C   UNL     1      -2.639  -0.703  -1.136  0.00  0.00    +0.012 C 
ATOM      9  C   UNL     1      -2.783  -2.124  -0.552  0.00  0.00    +0.022 C 
ATOM     12  C   UNL     1      -2.853  -2.140   0.967  0.00  0.00    -0.073 C 
ATOM     13  C   UNL     1      -2.996  -1.014   1.690  0.00  0.00    -0.023 C 
ATOM     22  C   UNL     1      -2.815  -3.480   1.651  0.00  0.00    +0.039 C 
ENDROOT
BRANCH   6  10
ATOM     10  C   UNL     1      -4.985   0.100  -0.617  0.00  0.00    -0.013 C 
ATOM     18  C   UNL     1      -5.783   1.358  -0.290  0.00  0.00    +0.007 C 
ATOM     19  C   UNL     1      -5.247  -0.350  -2.051  0.00  0.00    +0.007 C 
ENDBRANCH   6  10
BRANCH   7  11
ATOM     11  C   UNL     1      -1.843   1.155   1.371  0.00  0.00    +0.089 C 
BRANCH  11   3
ATOM      3  N   UNL     1      -1.946   2.504   0.841  0.00  0.00    -0.313 NA
ATOM     33  H   UNL     1      -2.504   3.071   1.478  0.00  0.00    +0.122 HD
BRANCH   3  14
ATOM     14  C   UNL     1      -0.624   3.095   0.646  0.00  0.00    +0.054 C 
ATOM     16  C   UNL     1      -0.736   4.624   0.623  0.00  0.00    +0.019 C 
ATOM     17  C   UNL     1      -0.003   2.567  -0.651  0.00  0.00    +0.019 C 
ATOM     20  C   UNL     1       0.618   5.276   0.345  0.00  0.00    +0.002 C 
ATOM     21  C   UNL     1       1.349   3.222  -0.928  0.00  0.00    +0.002 C 
ATOM     23  C   UNL     1       1.245   4.745  -0.940  0.00  0.00    +0.000 C 
ENDBRANCH   3  14
ENDBRANCH  11   3
ENDBRANCH   7  11
BRANCH   9  15
ATOM     15  C   UNL     1      -1.650  -2.998  -1.106  0.00  0.00    +0.082 C 
BRANCH  15  24
ATOM      4  N   UNL     1       0.676  -2.157  -1.480  0.00  0.00    -0.342 N 
ATOM      5  N   UNL     1       0.076  -2.441   0.641  0.00  0.00    -0.232 NA
ATOM     24  C   UNL     1      -0.309  -2.536  -0.612  0.00  0.00    +0.109 A 
ATOM     25  C   UNL     1       1.770  -1.792  -0.738  0.00  0.00    +0.067 A 
ATOM     26  C   UNL     1       1.370  -1.978   0.583  0.00  0.00    +0.089 A 
ATOM     27  C   UNL     1       3.036  -1.329  -1.097  0.00  0.00    +0.042 A 
ATOM     28  C   UNL     1       2.274  -1.690   1.619  0.00  0.00    +0.030 A 
ATOM     29  C   UNL     1       3.924  -1.047  -0.053  0.00  0.00    +0.061 A 
ATOM     30  C   UNL     1       3.551  -1.224   1.282  0.00  0.00    +0.017 A 
ATOM     34  H   UNL     1       0.613  -2.144  -2.489  0.00  0.00    +0.167 HD
BRANCH  29  31
ATOM      2  O   UNL     1       5.884  -0.847  -1.395  0.00  0.00    -0.245 OA
ATOM     31  C   UNL     1       5.259  -0.562  -0.366  0.00  0.00    +0.339 C 
BRANCH  31   1
ATOM      1  O   UNL     1       5.741   0.253   0.622  0.00  0.00    -0.464 OA
ATOM     32  C   UNL     1       7.052   0.796   0.429  0.00  0.00    +0.280 C 
ENDBRANCH  31   1
ENDBRANCH  29  31
ENDBRANCH  15  24
ENDBRANCH   9  15
TORSDOF 8
