REMARK  Name = 75536947
REMARK  4 active torsions:
REMARK  status: ('A' for Active; 'I' for Inactive)
REMARK    1  A    between atoms: O_2  and  C_9
REMARK    2  A    between atoms: O_2  and  C_18
REMARK    3  A    between atoms: O_5  and  C_23
REMARK    4  A    between atoms: O_5  and  C_24
REMARK                            x       y       z     vdW  Elec       q    Type
REMARK                         _______ _______ _______ _____ _____    ______ ____
ROOT
ATOM      1  O   UNL     1      -0.449  -3.299   0.558  0.00  0.00    -0.375 OA
ATOM      3  O   UNL     1      -5.890   1.603   0.627  0.00  0.00    -0.377 OA
ATOM      4  O   UNL     1      -1.228   1.362  -1.090  0.00  0.00    -0.252 OA
ATOM      6  N   UNL     1      -1.723  -0.863  -0.694  0.00  0.00    -0.280 N 
ATOM      7  N   UNL     1      -3.337   0.866  -0.315  0.00  0.00    -0.281 N 
ATOM      8  C   UNL     1      -0.602  -1.342  -1.515  0.00  0.00    +0.156 C 
ATOM      9  C   UNL     1       0.712  -1.512  -0.750  0.00  0.00    +0.216 C 
ATOM     10  C   UNL     1      -2.315  -1.815   0.257  0.00  0.00    +0.137 C 
ATOM     11  C   UNL     1       0.799  -2.755   0.143  0.00  0.00    +0.206 C 
ATOM     12  C   UNL     1      -2.045   0.507  -0.723  0.00  0.00    +0.305 C 
ATOM     13  C   UNL     1      -4.552   0.281  -0.896  0.00  0.00    +0.137 C 
ATOM     14  C   UNL     1      -3.554   2.171   0.304  0.00  0.00    +0.137 C 
ATOM     15  C   UNL     1      -1.294  -2.380   1.237  0.00  0.00    +0.179 C 
ATOM     16  C   UNL     1      -5.678   0.279   0.127  0.00  0.00    +0.179 C 
ATOM     17  C   UNL     1      -4.720   2.103   1.280  0.00  0.00    +0.179 C 
ENDROOT
BRANCH   9   2
ATOM      2  O   UNL     1       0.970  -0.338   0.020  0.00  0.00    -0.485 OA
BRANCH   2  18
ATOM     18  C   UNL     1       2.279   0.036   0.142  0.00  0.00    +0.121 A 
ATOM     19  C   UNL     1       3.028   0.338  -0.995  0.00  0.00    +0.049 A 
ATOM     20  C   UNL     1       2.866   0.115   1.405  0.00  0.00    +0.049 A 
ATOM     21  C   UNL     1       4.364   0.718  -0.870  0.00  0.00    +0.049 A 
ATOM     22  C   UNL     1       4.203   0.495   1.530  0.00  0.00    +0.049 A 
ATOM     23  C   UNL     1       4.951   0.797   0.393  0.00  0.00    +0.120 A 
BRANCH  23   5
ATOM      5  O   UNL     1       6.255   1.169   0.515  0.00  0.00    -0.495 OA
ATOM     24  C   UNL     1       6.961   1.463  -0.690  0.00  0.00    +0.277 C 
ENDBRANCH  23   5
ENDBRANCH   2  18
ENDBRANCH   9   2
TORSDOF 3
