MODEL 1
REMARK VINA RESULT:      -8.4      0.000      0.000
REMARK  Name = 26743820
REMARK  7 active torsions:
REMARK  status: ('A' for Active; 'I' for Inactive)
REMARK    1  A    between atoms: O_2  and  C_11
REMARK    2  A    between atoms: N_4  and  C_13
REMARK    3  A    between atoms: N_5  and  C_19
REMARK    4  A    between atoms: C_9  and  C_14
REMARK    5  A    between atoms: C_13  and  C_15
REMARK    6  A    between atoms: C_18  and  C_22
REMARK    7  A    between atoms: C_29  and  C_30
REMARK                            x       y       z     vdW  Elec       q    Type
REMARK                         _______ _______ _______ _____ _____    ______ ____
ROOT
ATOM      4  N   UNL     1      12.630   8.690  18.760  0.00  0.00    -0.282 NA
ATOM      9  C   UNL     1      13.445   7.482  18.519  0.00  0.00    +0.149 C 
ATOM     10  C   UNL     1      13.940   7.624  17.068  0.00  0.00    +0.061 C 
ATOM     11  C   UNL     1      13.315   8.918  16.562  0.00  0.00    +0.130 C 
ATOM     12  C   UNL     1      12.106   9.101  17.459  0.00  0.00    +0.117 C 
ENDROOT
BRANCH   9  14
ATOM      3  O   UNL     1      14.230   7.267  20.824  0.00  0.00    -0.336 OA
ATOM      6  N   UNL     1      15.869   7.271  19.297  0.00  0.00    -0.190 NA
ATOM      8  N   UNL     1      15.427   7.139  21.539  0.00  0.00    -0.056 NA
ATOM     14  C   UNL     1      14.579   7.337  19.514  0.00  0.00    +0.245 A 
ATOM     18  C   UNL     1      16.347   7.149  20.569  0.00  0.00    +0.202 A 
BRANCH  18  22
ATOM      1  F   UNL     1      20.529   4.810  20.102  0.00  0.00    -0.205 F 
ATOM     22  C   UNL     1      17.752   7.038  20.838  0.00  0.00    +0.025 A 
ATOM     25  C   UNL     1      18.476   5.959  20.331  0.00  0.00    +0.050 A 
ATOM     26  C   UNL     1      18.395   8.011  21.605  0.00  0.00    +0.012 A 
ATOM     27  C   UNL     1      19.842   5.851  20.592  0.00  0.00    +0.127 A 
ATOM     28  C   UNL     1      19.761   7.903  21.865  0.00  0.00    +0.007 A 
ATOM     29  C   UNL     1      20.484   6.824  21.360  0.00  0.00    -0.015 A 
ATOM     30  C   UNL     1      21.945   6.711  21.640  0.00  0.00    +0.047 C 
ENDBRANCH  18  22
ENDBRANCH   9  14
BRANCH  11   2
ATOM      2  O   UNL     1      12.947   8.798  15.201  0.00  0.00    -0.390 OA
ATOM     31  H   UNL     1      13.593   8.209  14.775  0.00  0.00    +0.210 HD
ENDBRANCH  11   2
BRANCH   4  13
ATOM     13  C   UNL     1      11.570   8.483  19.737  0.00  0.00    +0.159 C 
BRANCH  13  15
ATOM      5  N   UNL     1      11.080   9.354  22.046  0.00  0.00    -0.330 N 
ATOM      7  N   UNL     1      11.965  10.805  20.614  0.00  0.00    -0.231 NA
ATOM     15  C   UNL     1      11.551   9.570  20.781  0.00  0.00    +0.125 A 
ATOM     16  C   UNL     1      11.199  10.530  22.742  0.00  0.00    +0.069 A 
ATOM     17  C   UNL     1      11.754  11.419  21.827  0.00  0.00    +0.089 A 
ATOM     19  C   UNL     1      10.551   8.112  22.562  0.00  0.00    +0.150 C 
ATOM     20  C   UNL     1      10.878  10.880  24.055  0.00  0.00    +0.028 A 
ATOM     21  C   UNL     1      12.011  12.742  22.228  0.00  0.00    +0.030 A 
ATOM     23  C   UNL     1      11.142  12.199  24.436  0.00  0.00    +0.002 A 
ATOM     24  C   UNL     1      11.697  13.116  23.540  0.00  0.00    +0.002 A 
ENDBRANCH  13  15
ENDBRANCH   4  13
TORSDOF 5
ENDMDL
MODEL 2
REMARK VINA RESULT:      -8.3      3.062      8.164
REMARK  Name = 26743820
REMARK  7 active torsions:
REMARK  status: ('A' for Active; 'I' for Inactive)
REMARK    1  A    between atoms: O_2  and  C_11
REMARK    2  A    between atoms: N_4  and  C_13
REMARK    3  A    between atoms: N_5  and  C_19
REMARK    4  A    between atoms: C_9  and  C_14
REMARK    5  A    between atoms: C_13  and  C_15
REMARK    6  A    between atoms: C_18  and  C_22
REMARK    7  A    between atoms: C_29  and  C_30
REMARK                            x       y       z     vdW  Elec       q    Type
REMARK                         _______ _______ _______ _____ _____    ______ ____
ROOT
ATOM      4  N   UNL     1      12.885   7.977  20.630  0.00  0.00    -0.282 NA
ATOM      9  C   UNL     1      11.616   8.729  20.552  0.00  0.00    +0.149 C 
ATOM     10  C   UNL     1      10.573   7.810  21.214  0.00  0.00    +0.061 C 
ATOM     11  C   UNL     1      11.339   6.548  21.590  0.00  0.00    +0.130 C 
ATOM     12  C   UNL     1      12.525   6.560  20.644  0.00  0.00    +0.117 C 
ENDROOT
BRANCH   9  14
ATOM      3  O   UNL     1      12.142  11.113  20.439  0.00  0.00    -0.336 OA
ATOM      6  N   UNL     1      11.418  10.431  22.446  0.00  0.00    -0.190 NA
ATOM      8  N   UNL     1      12.139  12.249  21.258  0.00  0.00    -0.056 NA
ATOM     14  C   UNL     1      11.704  10.088  21.215  0.00  0.00    +0.245 A 
ATOM     18  C   UNL     1      11.700  11.766  22.424  0.00  0.00    +0.202 A 
BRANCH  18  22
ATOM      1  F   UNL     1      13.202  13.276  26.741  0.00  0.00    -0.205 F 
ATOM     22  C   UNL     1      11.532  12.591  23.585  0.00  0.00    +0.025 A 
ATOM     25  C   UNL     1      12.465  12.535  24.622  0.00  0.00    +0.050 A 
ATOM     26  C   UNL     1      10.437  13.450  23.679  0.00  0.00    +0.012 A 
ATOM     27  C   UNL     1      12.302  13.338  25.750  0.00  0.00    +0.127 A 
ATOM     28  C   UNL     1      10.274  14.253  24.808  0.00  0.00    +0.007 A 
ATOM     29  C   UNL     1      11.206  14.196  25.844  0.00  0.00    -0.015 A 
ATOM     30  C   UNL     1      11.029  15.055  27.050  0.00  0.00    +0.047 C 
ENDBRANCH  18  22
ENDBRANCH   9  14
BRANCH  11   2
ATOM      2  O   UNL     1      10.534   5.399  21.408  0.00  0.00    -0.390 OA
ATOM     31  H   UNL     1      10.846   4.722  22.034  0.00  0.00    +0.210 HD
ENDBRANCH  11   2
BRANCH   4  13
ATOM     13  C   UNL     1      13.809   8.296  19.550  0.00  0.00    +0.159 C 
BRANCH  13  15
ATOM      5  N   UNL     1      16.008   8.530  20.749  0.00  0.00    -0.330 N 
ATOM      7  N   UNL     1      15.826   6.810  19.354  0.00  0.00    -0.231 NA
ATOM     15  C   UNL     1      15.214   7.854  19.866  0.00  0.00    +0.125 A 
ATOM     16  C   UNL     1      17.213   7.879  20.812  0.00  0.00    +0.069 A 
ATOM     17  C   UNL     1      17.074   6.808  19.933  0.00  0.00    +0.089 A 
ATOM     19  C   UNL     1      15.647   9.719  21.487  0.00  0.00    +0.150 C 
ATOM     20  C   UNL     1      18.377   8.126  21.541  0.00  0.00    +0.028 A 
ATOM     21  C   UNL     1      18.151   5.922  19.758  0.00  0.00    +0.030 A 
ATOM     23  C   UNL     1      19.437   7.234  21.355  0.00  0.00    +0.002 A 
ATOM     24  C   UNL     1      19.329   6.150  20.479  0.00  0.00    +0.002 A 
ENDBRANCH  13  15
ENDBRANCH   4  13
TORSDOF 5
ENDMDL
MODEL 3
REMARK VINA RESULT:      -7.4     27.974     31.596
REMARK  Name = 26743820
REMARK  7 active torsions:
REMARK  status: ('A' for Active; 'I' for Inactive)
REMARK    1  A    between atoms: O_2  and  C_11
REMARK    2  A    between atoms: N_4  and  C_13
REMARK    3  A    between atoms: N_5  and  C_19
REMARK    4  A    between atoms: C_9  and  C_14
REMARK    5  A    between atoms: C_13  and  C_15
REMARK    6  A    between atoms: C_18  and  C_22
REMARK    7  A    between atoms: C_29  and  C_30
REMARK                            x       y       z     vdW  Elec       q    Type
REMARK                         _______ _______ _______ _____ _____    ______ ____
ROOT
ATOM      4  N   UNL     1     -17.325   4.350  21.702  0.00  0.00    -0.282 NA
ATOM      9  C   UNL     1     -18.292   3.684  22.597  0.00  0.00    +0.149 C 
ATOM     10  C   UNL     1     -19.040   2.684  21.696  0.00  0.00    +0.061 C 
ATOM     11  C   UNL     1     -18.456   2.893  20.305  0.00  0.00    +0.130 C 
ATOM     12  C   UNL     1     -17.905   4.305  20.361  0.00  0.00    +0.117 C 
ENDROOT
BRANCH   9  14
ATOM      3  O   UNL     1     -17.026   1.822  23.547  0.00  0.00    -0.336 OA
ATOM      6  N   UNL     1     -17.539   3.425  25.024  0.00  0.00    -0.190 NA
ATOM      8  N   UNL     1     -16.489   1.408  24.773  0.00  0.00    -0.056 NA
ATOM     14  C   UNL     1     -17.625   3.018  23.783  0.00  0.00    +0.245 A 
ATOM     18  C   UNL     1     -16.834   2.405  25.593  0.00  0.00    +0.202 A 
BRANCH  18  22
ATOM      1  F   UNL     1     -16.312   0.109  29.792  0.00  0.00    -0.205 F 
ATOM     22  C   UNL     1     -16.487   2.413  26.984  0.00  0.00    +0.025 A 
ATOM     25  C   UNL     1     -16.568   1.237  27.731  0.00  0.00    +0.050 A 
ATOM     26  C   UNL     1     -16.067   3.596  27.593  0.00  0.00    +0.012 A 
ATOM     27  C   UNL     1     -16.230   1.244  29.083  0.00  0.00    +0.127 A 
ATOM     28  C   UNL     1     -15.728   3.604  28.946  0.00  0.00    +0.007 A 
ATOM     29  C   UNL     1     -15.810   2.428  29.691  0.00  0.00    -0.015 A 
ATOM     30  C   UNL     1     -15.448   2.438  31.138  0.00  0.00    +0.047 C 
ENDBRANCH  18  22
ENDBRANCH   9  14
BRANCH  11   2
ATOM      2  O   UNL     1     -19.457   2.760  19.314  0.00  0.00    -0.390 OA
ATOM     31  H   UNL     1     -19.109   2.167  18.625  0.00  0.00    +0.210 HD
ENDBRANCH  11   2
BRANCH   4  13
ATOM     13  C   UNL     1     -17.001   5.708  22.114  0.00  0.00    +0.159 C 
BRANCH  13  15
ATOM      5  N   UNL     1     -14.495   5.882  21.971  0.00  0.00    -0.330 N 
ATOM      7  N   UNL     1     -15.647   6.962  20.408  0.00  0.00    -0.231 NA
ATOM     15  C   UNL     1     -15.728   6.200  21.475  0.00  0.00    +0.125 A 
ATOM     16  C   UNL     1     -13.555   6.479  21.171  0.00  0.00    +0.069 A 
ATOM     17  C   UNL     1     -14.299   7.146  20.202  0.00  0.00    +0.089 A 
ATOM     19  C   UNL     1     -14.225   5.063  23.132  0.00  0.00    +0.150 C 
ATOM     20  C   UNL     1     -12.160   6.491  21.210  0.00  0.00    +0.028 A 
ATOM     21  C   UNL     1     -13.628   7.875  19.205  0.00  0.00    +0.030 A 
ATOM     23  C   UNL     1     -11.509   7.220  20.210  0.00  0.00    +0.002 A 
ATOM     24  C   UNL     1     -12.228   7.902  19.224  0.00  0.00    +0.002 A 
ENDBRANCH  13  15
ENDBRANCH   4  13
TORSDOF 5
ENDMDL
MODEL 4
REMARK VINA RESULT:      -7.3     28.035     30.198
REMARK  Name = 26743820
REMARK  7 active torsions:
REMARK  status: ('A' for Active; 'I' for Inactive)
REMARK    1  A    between atoms: O_2  and  C_11
REMARK    2  A    between atoms: N_4  and  C_13
REMARK    3  A    between atoms: N_5  and  C_19
REMARK    4  A    between atoms: C_9  and  C_14
REMARK    5  A    between atoms: C_13  and  C_15
REMARK    6  A    between atoms: C_18  and  C_22
REMARK    7  A    between atoms: C_29  and  C_30
REMARK                            x       y       z     vdW  Elec       q    Type
REMARK                         _______ _______ _______ _____ _____    ______ ____
ROOT
ATOM      4  N   UNL     1      -5.477 -11.675  16.775  0.00  0.00    -0.282 NA
ATOM      9  C   UNL     1      -6.322 -12.081  17.916  0.00  0.00    +0.149 C 
ATOM     10  C   UNL     1      -5.417 -11.927  19.152  0.00  0.00    +0.061 C 
ATOM     11  C   UNL     1      -4.071 -11.474  18.601  0.00  0.00    +0.130 C 
ATOM     12  C   UNL     1      -4.096 -11.957  17.164  0.00  0.00    +0.117 C 
ENDROOT
BRANCH   9  14
ATOM      3  O   UNL     1      -8.328 -11.425  19.149  0.00  0.00    -0.336 OA
ATOM      6  N   UNL     1      -8.106 -10.415  17.163  0.00  0.00    -0.190 NA
ATOM      8  N   UNL     1      -9.439 -10.583  19.015  0.00  0.00    -0.056 NA
ATOM     14  C   UNL     1      -7.595 -11.264  18.017  0.00  0.00    +0.245 A 
ATOM     18  C   UNL     1      -9.236 -10.022  17.819  0.00  0.00    +0.202 A 
BRANCH  18  22
ATOM      1  F   UNL     1     -10.044  -5.906  15.457  0.00  0.00    -0.205 F 
ATOM     22  C   UNL     1     -10.142  -9.066  17.252  0.00  0.00    +0.025 A 
ATOM     25  C   UNL     1      -9.647  -7.926  16.616  0.00  0.00    +0.050 A 
ATOM     26  C   UNL     1     -11.519  -9.275  17.334  0.00  0.00    +0.012 A 
ATOM     27  C   UNL     1     -10.528  -6.997  16.064  0.00  0.00    +0.127 A 
ATOM     28  C   UNL     1     -12.401  -8.346  16.782  0.00  0.00    +0.007 A 
ATOM     29  C   UNL     1     -11.906  -7.207  16.148  0.00  0.00    -0.015 A 
ATOM     30  C   UNL     1     -12.850  -6.215  15.558  0.00  0.00    +0.047 C 
ENDBRANCH  18  22
ENDBRANCH   9  14
BRANCH  11   2
ATOM      2  O   UNL     1      -3.008 -12.057  19.331  0.00  0.00    -0.390 OA
ATOM     31  H   UNL     1      -2.181 -11.838  18.867  0.00  0.00    +0.210 HD
ENDBRANCH  11   2
BRANCH   4  13
ATOM     13  C   UNL     1      -5.840 -12.333  15.528  0.00  0.00    +0.159 C 
BRANCH  13  15
ATOM      5  N   UNL     1      -4.526 -11.596  13.513  0.00  0.00    -0.330 N 
ATOM      7  N   UNL     1      -6.378 -10.449  13.954  0.00  0.00    -0.231 NA
ATOM     15  C   UNL     1      -5.607 -11.442  14.335  0.00  0.00    +0.125 A 
ATOM     16  C   UNL     1      -4.605 -10.638  12.535  0.00  0.00    +0.069 A 
ATOM     17  C   UNL     1      -5.769  -9.936  12.831  0.00  0.00    +0.089 A 
ATOM     19  C   UNL     1      -3.484 -12.588  13.647  0.00  0.00    +0.150 C 
ATOM     20  C   UNL     1      -3.783 -10.336  11.448  0.00  0.00    +0.028 A 
ATOM     21  C   UNL     1      -6.152  -8.865  12.006  0.00  0.00    +0.030 A 
ATOM     23  C   UNL     1      -4.179  -9.268  10.638  0.00  0.00    +0.002 A 
ATOM     24  C   UNL     1      -5.342  -8.543  10.909  0.00  0.00    +0.002 A 
ENDBRANCH  13  15
ENDBRANCH   4  13
TORSDOF 5
ENDMDL
MODEL 5
REMARK VINA RESULT:      -7.3      1.931      2.410
REMARK  Name = 26743820
REMARK  7 active torsions:
REMARK  status: ('A' for Active; 'I' for Inactive)
REMARK    1  A    between atoms: O_2  and  C_11
REMARK    2  A    between atoms: N_4  and  C_13
REMARK    3  A    between atoms: N_5  and  C_19
REMARK    4  A    between atoms: C_9  and  C_14
REMARK    5  A    between atoms: C_13  and  C_15
REMARK    6  A    between atoms: C_18  and  C_22
REMARK    7  A    between atoms: C_29  and  C_30
REMARK                            x       y       z     vdW  Elec       q    Type
REMARK                         _______ _______ _______ _____ _____    ______ ____
ROOT
ATOM      4  N   UNL     1      13.329  10.672  20.069  0.00  0.00    -0.282 NA
ATOM      9  C   UNL     1      13.597   9.818  18.894  0.00  0.00    +0.149 C 
ATOM     10  C   UNL     1      14.040  10.796  17.789  0.00  0.00    +0.061 C 
ATOM     11  C   UNL     1      13.944  12.178  18.424  0.00  0.00    +0.130 C 
ATOM     12  C   UNL     1      12.945  11.983  19.548  0.00  0.00    +0.117 C 
ENDROOT
BRANCH   9  14
ATOM      3  O   UNL     1      14.380   7.514  18.664  0.00  0.00    -0.336 OA
ATOM      6  N   UNL     1      15.749   8.830  19.853  0.00  0.00    -0.190 NA
ATOM      8  N   UNL     1      15.458   6.707  19.051  0.00  0.00    -0.056 NA
ATOM     14  C   UNL     1      14.631   8.747  19.176  0.00  0.00    +0.245 A 
ATOM     18  C   UNL     1      16.221   7.555  19.748  0.00  0.00    +0.202 A 
BRANCH  18  22
ATOM      1  F   UNL     1      19.976   4.554  20.015  0.00  0.00    -0.205 F 
ATOM     22  C   UNL     1      17.461   7.158  20.350  0.00  0.00    +0.025 A 
ATOM     25  C   UNL     1      18.133   6.027  19.884  0.00  0.00    +0.050 A 
ATOM     26  C   UNL     1      17.997   7.904  21.400  0.00  0.00    +0.012 A 
ATOM     27  C   UNL     1      19.339   5.642  20.469  0.00  0.00    +0.127 A 
ATOM     28  C   UNL     1      19.203   7.518  21.986  0.00  0.00    +0.007 A 
ATOM     29  C   UNL     1      19.874   6.388  21.520  0.00  0.00    -0.015 A 
ATOM     30  C   UNL     1      21.163   5.978  22.147  0.00  0.00    +0.047 C 
ENDBRANCH  18  22
ENDBRANCH   9  14
BRANCH  11   2
ATOM      2  O   UNL     1      13.494  13.133  17.481  0.00  0.00    -0.390 OA
ATOM     31  H   UNL     1      14.265  13.661  17.211  0.00  0.00    +0.210 HD
ENDBRANCH  11   2
BRANCH   4  13
ATOM     13  C   UNL     1      12.320  10.120  20.962  0.00  0.00    +0.159 C 
BRANCH  13  15
ATOM      5  N   UNL     1      12.977  11.269  23.101  0.00  0.00    -0.330 N 
ATOM      7  N   UNL     1      10.927  11.683  22.352  0.00  0.00    -0.231 NA
ATOM     15  C   UNL     1      12.046  11.032  22.130  0.00  0.00    +0.125 A 
ATOM     16  C   UNL     1      12.423  12.132  24.011  0.00  0.00    +0.069 A 
ATOM     17  C   UNL     1      11.143  12.376  23.521  0.00  0.00    +0.089 A 
ATOM     19  C   UNL     1      14.310  10.712  23.163  0.00  0.00    +0.150 C 
ATOM     20  C   UNL     1      12.916  12.704  25.185  0.00  0.00    +0.028 A 
ATOM     21  C   UNL     1      10.291  13.239  24.231  0.00  0.00    +0.030 A 
ATOM     23  C   UNL     1      12.055  13.559  25.878  0.00  0.00    +0.002 A 
ATOM     24  C   UNL     1      10.764  13.824  25.412  0.00  0.00    +0.002 A 
ENDBRANCH  13  15
ENDBRANCH   4  13
TORSDOF 5
ENDMDL
MODEL 6
REMARK VINA RESULT:      -7.2     28.185     31.648
REMARK  Name = 26743820
REMARK  7 active torsions:
REMARK  status: ('A' for Active; 'I' for Inactive)
REMARK    1  A    between atoms: O_2  and  C_11
REMARK    2  A    between atoms: N_4  and  C_13
REMARK    3  A    between atoms: N_5  and  C_19
REMARK    4  A    between atoms: C_9  and  C_14
REMARK    5  A    between atoms: C_13  and  C_15
REMARK    6  A    between atoms: C_18  and  C_22
REMARK    7  A    between atoms: C_29  and  C_30
REMARK                            x       y       z     vdW  Elec       q    Type
REMARK                         _______ _______ _______ _____ _____    ______ ____
ROOT
ATOM      4  N   UNL     1     -16.656   3.493  23.983  0.00  0.00    -0.282 NA
ATOM      9  C   UNL     1     -17.717   2.917  24.832  0.00  0.00    +0.149 C 
ATOM     10  C   UNL     1     -18.480   1.950  23.908  0.00  0.00    +0.061 C 
ATOM     11  C   UNL     1     -17.803   2.086  22.550  0.00  0.00    +0.130 C 
ATOM     12  C   UNL     1     -17.159   3.458  22.611  0.00  0.00    +0.117 C 
ENDROOT
BRANCH   9  14
ATOM      3  O   UNL     1     -17.043   0.882  26.008  0.00  0.00    -0.336 OA
ATOM      6  N   UNL     1     -16.792   2.757  27.208  0.00  0.00    -0.190 NA
ATOM      8  N   UNL     1     -16.525   0.484  27.247  0.00  0.00    -0.056 NA
ATOM     14  C   UNL     1     -17.168   2.234  26.068  0.00  0.00    +0.245 A 
ATOM     18  C   UNL     1     -16.405   1.645  27.898  0.00  0.00    +0.202 A 
BRANCH  18  22
ATOM      1  F   UNL     1     -14.983  -0.480  31.976  0.00  0.00    -0.205 F 
ATOM     22  C   UNL     1     -15.900   1.728  29.238  0.00  0.00    +0.025 A 
ATOM     25  C   UNL     1     -15.680   0.563  29.974  0.00  0.00    +0.050 A 
ATOM     26  C   UNL     1     -15.627   2.973  29.805  0.00  0.00    +0.012 A 
ATOM     27  C   UNL     1     -15.189   0.643  31.277  0.00  0.00    +0.127 A 
ATOM     28  C   UNL     1     -15.136   3.054  31.109  0.00  0.00    +0.007 A 
ATOM     29  C   UNL     1     -14.917   1.889  31.844  0.00  0.00    -0.015 A 
ATOM     30  C   UNL     1     -14.392   1.978  33.237  0.00  0.00    +0.047 C 
ENDBRANCH  18  22
ENDBRANCH   9  14
BRANCH  11   2
ATOM      2  O   UNL     1     -18.753   1.999  21.504  0.00  0.00    -0.390 OA
ATOM     31  H   UNL     1     -19.608   2.296  21.862  0.00  0.00    +0.210 HD
ENDBRANCH  11   2
BRANCH   4  13
ATOM     13  C   UNL     1     -16.262   4.836  24.388  0.00  0.00    +0.159 C 
BRANCH  13  15
ATOM      5  N   UNL     1     -15.622   6.587  22.699  0.00  0.00    -0.330 N 
ATOM      7  N   UNL     1     -14.103   5.018  23.114  0.00  0.00    -0.231 NA
ATOM     15  C   UNL     1     -15.306   5.460  23.404  0.00  0.00    +0.125 A 
ATOM     16  C   UNL     1     -14.551   6.894  21.899  0.00  0.00    +0.069 A 
ATOM     17  C   UNL     1     -13.616   5.901  22.177  0.00  0.00    +0.089 A 
ATOM     19  C   UNL     1     -16.862   7.326  22.777  0.00  0.00    +0.150 C 
ATOM     20  C   UNL     1     -14.325   7.924  20.985  0.00  0.00    +0.028 A 
ATOM     21  C   UNL     1     -12.377   5.920  21.513  0.00  0.00    +0.030 A 
ATOM     23  C   UNL     1     -13.089   7.929  20.334  0.00  0.00    +0.002 A 
ATOM     24  C   UNL     1     -12.129   6.945  20.591  0.00  0.00    +0.002 A 
ENDBRANCH  13  15
ENDBRANCH   4  13
TORSDOF 5
ENDMDL
MODEL 7
REMARK VINA RESULT:      -7.2     27.146     30.114
REMARK  Name = 26743820
REMARK  7 active torsions:
REMARK  status: ('A' for Active; 'I' for Inactive)
REMARK    1  A    between atoms: O_2  and  C_11
REMARK    2  A    between atoms: N_4  and  C_13
REMARK    3  A    between atoms: N_5  and  C_19
REMARK    4  A    between atoms: C_9  and  C_14
REMARK    5  A    between atoms: C_13  and  C_15
REMARK    6  A    between atoms: C_18  and  C_22
REMARK    7  A    between atoms: C_29  and  C_30
REMARK                            x       y       z     vdW  Elec       q    Type
REMARK                         _______ _______ _______ _____ _____    ______ ____
ROOT
ATOM      4  N   UNL     1      -4.355 -11.158  14.951  0.00  0.00    -0.282 NA
ATOM      9  C   UNL     1      -4.792 -11.516  16.316  0.00  0.00    +0.149 C 
ATOM     10  C   UNL     1      -3.598 -11.156  17.219  0.00  0.00    +0.061 C 
ATOM     11  C   UNL     1      -2.523 -10.646  16.267  0.00  0.00    +0.130 C 
ATOM     12  C   UNL     1      -2.898 -11.275  14.940  0.00  0.00    +0.117 C 
ENDROOT
BRANCH   9  14
ATOM      3  O   UNL     1      -6.252  -9.558  16.227  0.00  0.00    -0.336 OA
ATOM      6  N   UNL     1      -7.038 -11.227  17.497  0.00  0.00    -0.190 NA
ATOM      8  N   UNL     1      -7.480  -9.115  16.736  0.00  0.00    -0.056 NA
ATOM     14  C   UNL     1      -6.068 -10.809  16.723  0.00  0.00    +0.245 A 
ATOM     18  C   UNL     1      -7.881 -10.155  17.474  0.00  0.00    +0.202 A 
BRANCH  18  22
ATOM      1  F   UNL     1     -12.481  -8.805  17.903  0.00  0.00    -0.205 F 
ATOM     22  C   UNL     1      -9.118 -10.153  18.199  0.00  0.00    +0.025 A 
ATOM     25  C   UNL     1     -10.223  -9.468  17.693  0.00  0.00    +0.050 A 
ATOM     26  C   UNL     1      -9.218 -10.838  19.411  0.00  0.00    +0.012 A 
ATOM     27  C   UNL     1     -11.426  -9.467  18.397  0.00  0.00    +0.127 A 
ATOM     28  C   UNL     1     -10.422 -10.837  20.116  0.00  0.00    +0.007 A 
ATOM     29  C   UNL     1     -11.526 -10.151  19.610  0.00  0.00    -0.015 A 
ATOM     30  C   UNL     1     -12.811 -10.151  20.365  0.00  0.00    +0.047 C 
ENDBRANCH  18  22
ENDBRANCH   9  14
BRANCH  11   2
ATOM      2  O   UNL     1      -1.238 -11.054  16.697  0.00  0.00    -0.390 OA
ATOM     31  H   UNL     1      -1.234 -11.030  17.670  0.00  0.00    +0.210 HD
ENDBRANCH  11   2
BRANCH   4  13
ATOM     13  C   UNL     1      -4.978 -11.971  13.916  0.00  0.00    +0.159 C 
BRANCH  13  15
ATOM      5  N   UNL     1      -4.362 -11.488  11.525  0.00  0.00    -0.330 N 
ATOM      7  N   UNL     1      -5.977 -10.235  12.398  0.00  0.00    -0.231 NA
ATOM     15  C   UNL     1      -5.128 -11.213  12.622  0.00  0.00    +0.125 A 
ATOM     16  C   UNL     1      -4.741 -10.631  10.524  0.00  0.00    +0.069 A 
ATOM     17  C   UNL     1      -5.751  -9.860  11.093  0.00  0.00    +0.089 A 
ATOM     19  C   UNL     1      -3.334 -12.500  11.431  0.00  0.00    +0.150 C 
ATOM     20  C   UNL     1      -4.302 -10.469   9.209  0.00  0.00    +0.028 A 
ATOM     21  C   UNL     1      -6.370  -8.863  10.319  0.00  0.00    +0.030 A 
ATOM     23  C   UNL     1      -4.929  -9.474   8.454  0.00  0.00    +0.002 A 
ATOM     24  C   UNL     1      -5.945  -8.682   8.997  0.00  0.00    +0.002 A 
ENDBRANCH  13  15
ENDBRANCH   4  13
TORSDOF 5
ENDMDL
MODEL 8
REMARK VINA RESULT:      -7.1     27.114     29.471
REMARK  Name = 26743820
REMARK  7 active torsions:
REMARK  status: ('A' for Active; 'I' for Inactive)
REMARK    1  A    between atoms: O_2  and  C_11
REMARK    2  A    between atoms: N_4  and  C_13
REMARK    3  A    between atoms: N_5  and  C_19
REMARK    4  A    between atoms: C_9  and  C_14
REMARK    5  A    between atoms: C_13  and  C_15
REMARK    6  A    between atoms: C_18  and  C_22
REMARK    7  A    between atoms: C_29  and  C_30
REMARK                            x       y       z     vdW  Elec       q    Type
REMARK                         _______ _______ _______ _____ _____    ______ ____
ROOT
ATOM      4  N   UNL     1      -4.123 -11.590  10.628  0.00  0.00    -0.282 NA
ATOM      9  C   UNL     1      -3.069 -10.702  11.157  0.00  0.00    +0.149 C 
ATOM     10  C   UNL     1      -3.348  -9.331  10.514  0.00  0.00    +0.061 C 
ATOM     11  C   UNL     1      -4.550  -9.559   9.605  0.00  0.00    +0.130 C 
ATOM     12  C   UNL     1      -4.503 -11.049   9.324  0.00  0.00    +0.117 C 
ENDROOT
BRANCH   9  14
ATOM      3  O   UNL     1      -1.846 -10.495  13.263  0.00  0.00    -0.336 OA
ATOM      6  N   UNL     1      -4.060 -10.727  13.511  0.00  0.00    -0.190 NA
ATOM      8  N   UNL     1      -2.088 -10.472  14.643  0.00  0.00    -0.056 NA
ATOM     14  C   UNL     1      -3.059 -10.646  12.671  0.00  0.00    +0.245 A 
ATOM     18  C   UNL     1      -3.415 -10.614  14.708  0.00  0.00    +0.202 A 
BRANCH  18  22
ATOM      1  F   UNL     1      -3.679 -11.865  19.349  0.00  0.00    -0.205 F 
ATOM     22  C   UNL     1      -4.127 -10.647  15.953  0.00  0.00    +0.025 A 
ATOM     25  C   UNL     1      -3.550 -11.250  17.071  0.00  0.00    +0.050 A 
ATOM     26  C   UNL     1      -5.395 -10.073  16.048  0.00  0.00    +0.012 A 
ATOM     27  C   UNL     1      -4.240 -11.281  18.282  0.00  0.00    +0.127 A 
ATOM     28  C   UNL     1      -6.086 -10.104  17.259  0.00  0.00    +0.007 A 
ATOM     29  C   UNL     1      -5.510 -10.708  18.376  0.00  0.00    -0.015 A 
ATOM     30  C   UNL     1      -6.251 -10.740  19.669  0.00  0.00    +0.047 C 
ENDBRANCH  18  22
ENDBRANCH   9  14
BRANCH  11   2
ATOM      2  O   UNL     1      -4.434  -8.797   8.418  0.00  0.00    -0.390 OA
ATOM     31  H   UNL     1      -4.915  -9.272   7.719  0.00  0.00    +0.210 HD
ENDBRANCH  11   2
BRANCH   4  13
ATOM     13  C   UNL     1      -3.711 -12.984  10.544  0.00  0.00    +0.159 C 
BRANCH  13  15
ATOM      5  N   UNL     1      -3.584 -14.311  12.677  0.00  0.00    -0.330 N 
ATOM      7  N   UNL     1      -5.590 -14.157  11.732  0.00  0.00    -0.231 NA
ATOM     15  C   UNL     1      -4.324 -13.817  11.640  0.00  0.00    +0.125 A 
ATOM     16  C   UNL     1      -4.429 -15.018  13.494  0.00  0.00    +0.069 A 
ATOM     17  C   UNL     1      -5.674 -14.906  12.883  0.00  0.00    +0.089 A 
ATOM     19  C   UNL     1      -2.165 -14.125  12.881  0.00  0.00    +0.150 C 
ATOM     20  C   UNL     1      -4.217 -15.724  14.680  0.00  0.00    +0.028 A 
ATOM     21  C   UNL     1      -6.786 -15.530  13.476  0.00  0.00    +0.030 A 
ATOM     23  C   UNL     1      -5.334 -16.337  15.255  0.00  0.00    +0.002 A 
ATOM     24  C   UNL     1      -6.597 -16.244  14.666  0.00  0.00    +0.002 A 
ENDBRANCH  13  15
ENDBRANCH   4  13
TORSDOF 5
ENDMDL
MODEL 9
REMARK VINA RESULT:      -7.1     17.807     21.782
REMARK  Name = 26743820
REMARK  7 active torsions:
REMARK  status: ('A' for Active; 'I' for Inactive)
REMARK    1  A    between atoms: O_2  and  C_11
REMARK    2  A    between atoms: N_4  and  C_13
REMARK    3  A    between atoms: N_5  and  C_19
REMARK    4  A    between atoms: C_9  and  C_14
REMARK    5  A    between atoms: C_13  and  C_15
REMARK    6  A    between atoms: C_18  and  C_22
REMARK    7  A    between atoms: C_29  and  C_30
REMARK                            x       y       z     vdW  Elec       q    Type
REMARK                         _______ _______ _______ _____ _____    ______ ____
ROOT
ATOM      4  N   UNL     1      13.053   3.990  -0.431  0.00  0.00    -0.282 NA
ATOM      9  C   UNL     1      13.098   3.432   0.936  0.00  0.00    +0.149 C 
ATOM     10  C   UNL     1      14.525   3.727   1.434  0.00  0.00    +0.061 C 
ATOM     11  C   UNL     1      15.218   4.412   0.263  0.00  0.00    +0.130 C 
ATOM     12  C   UNL     1      14.422   3.948  -0.941  0.00  0.00    +0.117 C 
ENDROOT
BRANCH   9  14
ATOM      3  O   UNL     1      11.560   3.202   2.821  0.00  0.00    -0.336 OA
ATOM      6  N   UNL     1      11.480   5.201   1.815  0.00  0.00    -0.190 NA
ATOM      8  N   UNL     1      10.597   3.947   3.513  0.00  0.00    -0.056 NA
ATOM     14  C   UNL     1      12.030   4.014   1.839  0.00  0.00    +0.245 A 
ATOM     18  C   UNL     1      10.608   5.113   2.861  0.00  0.00    +0.202 A 
BRANCH  18  22
ATOM      1  F   UNL     1       7.916   7.414   6.122  0.00  0.00    -0.205 F 
ATOM     22  C   UNL     1       9.761   6.210   3.229  0.00  0.00    +0.025 A 
ATOM     25  C   UNL     1       9.238   6.285   4.521  0.00  0.00    +0.050 A 
ATOM     26  C   UNL     1       9.460   7.204   2.297  0.00  0.00    +0.012 A 
ATOM     27  C   UNL     1       8.415   7.352   4.880  0.00  0.00    +0.127 A 
ATOM     28  C   UNL     1       8.636   8.272   2.656  0.00  0.00    +0.007 A 
ATOM     29  C   UNL     1       8.113   8.345   3.947  0.00  0.00    -0.015 A 
ATOM     30  C   UNL     1       7.233   9.487   4.328  0.00  0.00    +0.047 C 
ENDBRANCH  18  22
ENDBRANCH   9  14
BRANCH  11   2
ATOM      2  O   UNL     1      16.574   4.015   0.180  0.00  0.00    -0.390 OA
ATOM     31  H   UNL     1      16.713   3.634  -0.704  0.00  0.00    +0.210 HD
ENDBRANCH  11   2
BRANCH   4  13
ATOM     13  C   UNL     1      12.120   3.292  -1.306  0.00  0.00    +0.159 C 
BRANCH  13  15
ATOM      5  N   UNL     1      10.185   3.844  -2.815  0.00  0.00    -0.330 N 
ATOM      7  N   UNL     1      10.760   5.405  -1.341  0.00  0.00    -0.231 NA
ATOM     15  C   UNL     1      11.027   4.204  -1.801  0.00  0.00    +0.125 A 
ATOM     16  C   UNL     1       9.315   4.883  -3.024  0.00  0.00    +0.069 A 
ATOM     17  C   UNL     1       9.694   5.845  -2.092  0.00  0.00    +0.089 A 
ATOM     19  C   UNL     1      10.204   2.594  -3.541  0.00  0.00    +0.150 C 
ATOM     20  C   UNL     1       8.260   5.059  -3.921  0.00  0.00    +0.028 A 
ATOM     21  C   UNL     1       8.990   7.060  -2.037  0.00  0.00    +0.030 A 
ATOM     23  C   UNL     1       7.571   6.274  -3.852  0.00  0.00    +0.002 A 
ATOM     24  C   UNL     1       7.928   7.259  -2.928  0.00  0.00    +0.002 A 
ENDBRANCH  13  15
ENDBRANCH   4  13
TORSDOF 5
ENDMDL
MODEL 10
REMARK VINA RESULT:      -7.0     25.703     27.667
REMARK  Name = 26743820
REMARK  7 active torsions:
REMARK  status: ('A' for Active; 'I' for Inactive)
REMARK    1  A    between atoms: O_2  and  C_11
REMARK    2  A    between atoms: N_4  and  C_13
REMARK    3  A    between atoms: N_5  and  C_19
REMARK    4  A    between atoms: C_9  and  C_14
REMARK    5  A    between atoms: C_13  and  C_15
REMARK    6  A    between atoms: C_18  and  C_22
REMARK    7  A    between atoms: C_29  and  C_30
REMARK                            x       y       z     vdW  Elec       q    Type
REMARK                         _______ _______ _______ _____ _____    ______ ____
ROOT
ATOM      4  N   UNL     1     -11.058   9.977  16.931  0.00  0.00    -0.282 NA
ATOM      9  C   UNL     1     -10.426  10.696  18.055  0.00  0.00    +0.149 C 
ATOM     10  C   UNL     1      -9.952  12.032  17.452  0.00  0.00    +0.061 C 
ATOM     11  C   UNL     1     -10.321  11.951  15.976  0.00  0.00    +0.130 C 
ATOM     12  C   UNL     1     -10.407  10.460  15.714  0.00  0.00    +0.117 C 
ENDROOT
BRANCH   9  14
ATOM      3  O   UNL     1     -12.554  11.488  18.960  0.00  0.00    -0.336 OA
ATOM      6  N   UNL     1     -11.205  10.552  20.484  0.00  0.00    -0.190 NA
ATOM      8  N   UNL     1     -13.241  11.551  20.180  0.00  0.00    -0.056 NA
ATOM     14  C   UNL     1     -11.367  10.885  19.228  0.00  0.00    +0.245 A 
ATOM     18  C   UNL     1     -12.380  10.979  21.028  0.00  0.00    +0.202 A 
BRANCH  18  22
ATOM      1  F   UNL     1     -15.161   9.267  24.565  0.00  0.00    -0.205 F 
ATOM     22  C   UNL     1     -12.666  10.820  22.424  0.00  0.00    +0.025 A 
ATOM     25  C   UNL     1     -13.796  10.108  22.829  0.00  0.00    +0.050 A 
ATOM     26  C   UNL     1     -11.814  11.376  23.379  0.00  0.00    +0.012 A 
ATOM     27  C   UNL     1     -14.073   9.952  24.186  0.00  0.00    +0.127 A 
ATOM     28  C   UNL     1     -12.092  11.220  24.738  0.00  0.00    +0.007 A 
ATOM     29  C   UNL     1     -13.221  10.509  25.141  0.00  0.00    -0.015 A 
ATOM     30  C   UNL     1     -13.516  10.344  26.594  0.00  0.00    +0.047 C 
ENDBRANCH  18  22
ENDBRANCH   9  14
BRANCH  11   2
ATOM      2  O   UNL     1      -9.330  12.568  15.177  0.00  0.00    -0.390 OA
ATOM     31  H   UNL     1      -9.151  13.444  15.559  0.00  0.00    +0.210 HD
ENDBRANCH  11   2
BRANCH   4  13
ATOM     13  C   UNL     1     -10.977   8.528  17.058  0.00  0.00    +0.159 C 
BRANCH  13  15
ATOM      5  N   UNL     1     -13.165   8.144  18.237  0.00  0.00    -0.330 N 
ATOM      7  N   UNL     1     -11.343   7.417  19.282  0.00  0.00    -0.231 NA
ATOM     15  C   UNL     1     -11.805   8.019  18.209  0.00  0.00    +0.125 A 
ATOM     16  C   UNL     1     -13.612   7.586  19.407  0.00  0.00    +0.069 A 
ATOM     17  C   UNL     1     -12.457   7.139  20.041  0.00  0.00    +0.089 A 
ATOM     19  C   UNL     1     -13.990   8.756  17.220  0.00  0.00    +0.150 C 
ATOM     20  C   UNL     1     -14.890   7.438  19.949  0.00  0.00    +0.028 A 
ATOM     21  C   UNL     1     -12.563   6.504  21.290  0.00  0.00    +0.030 A 
ATOM     23  C   UNL     1     -14.977   6.804  21.192  0.00  0.00    +0.002 A 
ATOM     24  C   UNL     1     -13.835   6.344  21.854  0.00  0.00    +0.002 A 
ENDBRANCH  13  15
ENDBRANCH   4  13
TORSDOF 5
ENDMDL
