MODEL 1
REMARK VINA RESULT:      -6.5      0.000      0.000
REMARK  Name = 75536255
REMARK  7 active torsions:
REMARK  status: ('A' for Active; 'I' for Inactive)
REMARK    1  A    between atoms: O_3  and  C_9
REMARK    2  A    between atoms: N_5  and  C_7
REMARK    3  A    between atoms: N_5  and  C_12
REMARK    4  A    between atoms: C_8  and  C_12
REMARK    5  A    between atoms: C_13  and  C_19
REMARK    6  A    between atoms: C_19  and  C_20
REMARK    7  A    between atoms: C_22  and  C_23
REMARK                            x       y       z     vdW  Elec       q    Type
REMARK                         _______ _______ _______ _____ _____    ______ ____
ROOT
ATOM      2  O   UNL     1     -13.922   1.888  31.191  0.00  0.00    -0.369 OA
ATOM      8  C   UNL     1     -13.961   1.472  29.819  0.00  0.00    +0.161 C 
ATOM      9  C   UNL     1     -13.989  -0.057  29.700  0.00  0.00    +0.145 C 
ATOM     13  C   UNL     1     -14.977   1.379  32.011  0.00  0.00    +0.125 C 
ATOM     14  C   UNL     1     -15.054  -0.691  30.591  0.00  0.00    +0.036 C 
ATOM     15  C   UNL     1     -14.967  -0.149  32.015  0.00  0.00    +0.034 C 
ENDROOT
BRANCH   9   3
ATOM      3  O   UNL     1     -12.719  -0.574  30.105  0.00  0.00    -0.389 OA
ATOM     30  H   UNL     1     -12.253   0.133  30.586  0.00  0.00    +0.210 HD
ENDBRANCH   9   3
BRANCH   8  12
ATOM     12  C   UNL     1     -15.108   2.150  29.072  0.00  0.00    +0.115 C 
BRANCH  12   5
ATOM      5  N   UNL     1     -14.946   3.595  29.073  0.00  0.00    -0.311 NA
ATOM     29  H   UNL     1     -14.540   3.880  28.182  0.00  0.00    +0.122 HD
BRANCH   5   7
ATOM      7  C   UNL     1     -16.229   4.266  29.270  0.00  0.00    +0.054 C 
ATOM     10  C   UNL     1     -17.241   3.287  29.875  0.00  0.00    +0.019 C 
ATOM     11  C   UNL     1     -16.042   5.493  30.169  0.00  0.00    +0.019 C 
ATOM     16  C   UNL     1     -18.574   3.974  30.167  0.00  0.00    +0.002 C 
ATOM     17  C   UNL     1     -17.377   6.178  30.460  0.00  0.00    +0.002 C 
ATOM     18  C   UNL     1     -18.391   5.204  31.052  0.00  0.00    +0.000 C 
ENDBRANCH   5   7
ENDBRANCH  12   5
ENDBRANCH   8  12
BRANCH  13  19
ATOM     19  C   UNL     1     -14.768   1.926  33.418  0.00  0.00    +0.090 C 
BRANCH  19  20
ATOM      4  O   UNL     1     -15.737   5.394  33.552  0.00  0.00    -0.354 OA
ATOM      6  N   UNL     1     -16.028   4.036  33.553  0.00  0.00    -0.083 NA
ATOM     20  C   UNL     1     -14.842   3.429  33.448  0.00  0.00    +0.087 A 
ATOM     21  C   UNL     1     -13.778   4.344  33.379  0.00  0.00    +0.076 A 
ATOM     22  C   UNL     1     -14.394   5.566  33.447  0.00  0.00    +0.167 A 
BRANCH  22  23
ATOM      1  F   UNL     1     -12.636  10.844  33.403  0.00  0.00    -0.205 F 
ATOM     23  C   UNL     1     -13.940   6.926  33.435  0.00  0.00    +0.020 A 
ATOM     24  C   UNL     1     -13.385   7.485  34.586  0.00  0.00    +0.014 A 
ATOM     25  C   UNL     1     -14.054   7.689  32.274  0.00  0.00    +0.014 A 
ATOM     26  C   UNL     1     -12.944   8.809  34.576  0.00  0.00    +0.039 A 
ATOM     27  C   UNL     1     -13.613   9.012  32.263  0.00  0.00    +0.039 A 
ATOM     28  C   UNL     1     -13.059   9.573  33.414  0.00  0.00    +0.123 A 
ENDBRANCH  22  23
ENDBRANCH  19  20
ENDBRANCH  13  19
TORSDOF 7
ENDMDL
MODEL 2
REMARK VINA RESULT:      -6.5      5.503      7.165
REMARK  Name = 75536255
REMARK  7 active torsions:
REMARK  status: ('A' for Active; 'I' for Inactive)
REMARK    1  A    between atoms: O_3  and  C_9
REMARK    2  A    between atoms: N_5  and  C_7
REMARK    3  A    between atoms: N_5  and  C_12
REMARK    4  A    between atoms: C_8  and  C_12
REMARK    5  A    between atoms: C_13  and  C_19
REMARK    6  A    between atoms: C_19  and  C_20
REMARK    7  A    between atoms: C_22  and  C_23
REMARK                            x       y       z     vdW  Elec       q    Type
REMARK                         _______ _______ _______ _____ _____    ______ ____
ROOT
ATOM      2  O   UNL     1     -16.122   2.163  24.516  0.00  0.00    -0.369 OA
ATOM      8  C   UNL     1     -16.196   3.219  23.549  0.00  0.00    +0.161 C 
ATOM      9  C   UNL     1     -17.566   3.249  22.859  0.00  0.00    +0.145 C 
ATOM     13  C   UNL     1     -17.143   2.180  25.516  0.00  0.00    +0.125 C 
ATOM     14  C   UNL     1     -18.721   3.212  23.856  0.00  0.00    +0.036 C 
ATOM     15  C   UNL     1     -18.528   2.091  24.873  0.00  0.00    +0.034 C 
ENDROOT
BRANCH   9   3
ATOM      3  O   UNL     1     -17.682   2.100  22.016  0.00  0.00    -0.389 OA
ATOM     30  H   UNL     1     -17.945   2.410  21.132  0.00  0.00    +0.210 HD
ENDBRANCH   9   3
BRANCH   8  12
ATOM     12  C   UNL     1     -15.812   4.561  24.171  0.00  0.00    +0.115 C 
BRANCH  12   5
ATOM      5  N   UNL     1     -14.400   4.844  23.961  0.00  0.00    -0.311 NA
ATOM     29  H   UNL     1     -13.885   3.963  23.963  0.00  0.00    +0.122 HD
BRANCH   5   7
ATOM      7  C   UNL     1     -14.188   5.540  22.694  0.00  0.00    +0.054 C 
ATOM     10  C   UNL     1     -14.679   6.988  22.806  0.00  0.00    +0.019 C 
ATOM     11  C   UNL     1     -12.704   5.488  22.313  0.00  0.00    +0.019 C 
ATOM     16  C   UNL     1     -14.403   7.770  21.523  0.00  0.00    +0.002 C 
ATOM     17  C   UNL     1     -12.431   6.271  21.030  0.00  0.00    +0.002 C 
ATOM     18  C   UNL     1     -12.928   7.710  21.134  0.00  0.00    +0.000 C 
ENDBRANCH   5   7
ENDBRANCH  12   5
ENDBRANCH   8  12
BRANCH  13  19
ATOM     19  C   UNL     1     -16.899   0.995  26.442  0.00  0.00    +0.090 C 
BRANCH  19  20
ATOM      4  O   UNL     1     -15.770   1.278  29.853  0.00  0.00    -0.354 OA
ATOM      6  N   UNL     1     -16.276   0.552  28.782  0.00  0.00    -0.083 NA
ATOM     20  C   UNL     1     -16.377   1.434  27.783  0.00  0.00    +0.087 A 
ATOM     21  C   UNL     1     -15.952   2.720  28.162  0.00  0.00    +0.076 A 
ATOM     22  C   UNL     1     -15.581   2.567  29.472  0.00  0.00    +0.167 A 
BRANCH  22  23
ATOM      1  F   UNL     1     -13.547   5.961  33.382  0.00  0.00    -0.205 F 
ATOM     23  C   UNL     1     -15.056   3.443  30.479  0.00  0.00    +0.020 A 
ATOM     24  C   UNL     1     -13.871   3.116  31.138  0.00  0.00    +0.014 A 
ATOM     25  C   UNL     1     -15.731   4.620  30.800  0.00  0.00    +0.014 A 
ATOM     26  C   UNL     1     -13.361   3.966  32.119  0.00  0.00    +0.039 A 
ATOM     27  C   UNL     1     -15.221   5.471  31.781  0.00  0.00    +0.039 A 
ATOM     28  C   UNL     1     -14.036   5.144  32.441  0.00  0.00    +0.123 A 
ENDBRANCH  22  23
ENDBRANCH  19  20
ENDBRANCH  13  19
TORSDOF 7
ENDMDL
MODEL 3
REMARK VINA RESULT:      -6.4     20.619     24.487
REMARK  Name = 75536255
REMARK  7 active torsions:
REMARK  status: ('A' for Active; 'I' for Inactive)
REMARK    1  A    between atoms: O_3  and  C_9
REMARK    2  A    between atoms: N_5  and  C_7
REMARK    3  A    between atoms: N_5  and  C_12
REMARK    4  A    between atoms: C_8  and  C_12
REMARK    5  A    between atoms: C_13  and  C_19
REMARK    6  A    between atoms: C_19  and  C_20
REMARK    7  A    between atoms: C_22  and  C_23
REMARK                            x       y       z     vdW  Elec       q    Type
REMARK                         _______ _______ _______ _____ _____    ______ ____
ROOT
ATOM      2  O   UNL     1      -2.359 -11.450  15.698  0.00  0.00    -0.369 OA
ATOM      8  C   UNL     1      -2.036 -11.758  14.336  0.00  0.00    +0.161 C 
ATOM      9  C   UNL     1      -2.688 -13.073  13.891  0.00  0.00    +0.145 C 
ATOM     13  C   UNL     1      -3.757 -11.397  15.995  0.00  0.00    +0.125 C 
ATOM     14  C   UNL     1      -4.177 -13.126  14.223  0.00  0.00    +0.036 C 
ATOM     15  C   UNL     1      -4.426 -12.734  15.676  0.00  0.00    +0.034 C 
ENDROOT
BRANCH   9   3
ATOM      3  O   UNL     1      -2.051 -14.156  14.573  0.00  0.00    -0.389 OA
ATOM     30  H   UNL     1      -1.393 -14.539  13.966  0.00  0.00    +0.210 HD
ENDBRANCH   9   3
BRANCH   8  12
ATOM     12  C   UNL     1      -2.368 -10.585  13.414  0.00  0.00    +0.115 C 
BRANCH  12   5
ATOM      5  N   UNL     1      -2.185 -10.954  12.019  0.00  0.00    -0.311 NA
ATOM     29  H   UNL     1      -2.094 -11.968  11.957  0.00  0.00    +0.122 HD
BRANCH   5   7
ATOM      7  C   UNL     1      -3.315 -10.508  11.207  0.00  0.00    +0.054 C 
ATOM     10  C   UNL     1      -4.471 -10.076  12.116  0.00  0.00    +0.019 C 
ATOM     11  C   UNL     1      -2.877  -9.362  10.289  0.00  0.00    +0.019 C 
ATOM     16  C   UNL     1      -5.644  -9.531  11.304  0.00  0.00    +0.002 C 
ATOM     17  C   UNL     1      -4.052  -8.818   9.477  0.00  0.00    +0.002 C 
ATOM     18  C   UNL     1      -5.209  -8.397  10.378  0.00  0.00    +0.000 C 
ENDBRANCH   5   7
ENDBRANCH  12   5
ENDBRANCH   8  12
BRANCH  13  19
ATOM     19  C   UNL     1      -3.899 -11.060  17.474  0.00  0.00    +0.090 C 
BRANCH  19  20
ATOM      4  O   UNL     1      -7.076 -10.405  19.045  0.00  0.00    -0.354 OA
ATOM      6  N   UNL     1      -5.762 -10.855  19.070  0.00  0.00    -0.083 NA
ATOM     20  C   UNL     1      -5.311 -10.676  17.825  0.00  0.00    +0.087 A 
ATOM     21  C   UNL     1      -6.287 -10.121  16.979  0.00  0.00    +0.076 A 
ATOM     22  C   UNL     1      -7.377  -9.970  17.794  0.00  0.00    +0.167 A 
BRANCH  22  23
ATOM      1  F   UNL     1     -12.545  -8.033  17.092  0.00  0.00    -0.205 F 
ATOM     23  C   UNL     1      -8.709  -9.470  17.614  0.00  0.00    +0.020 A 
ATOM     24  C   UNL     1      -9.779 -10.089  18.260  0.00  0.00    +0.014 A 
ATOM     25  C   UNL     1      -8.934  -8.366  16.793  0.00  0.00    +0.014 A 
ATOM     26  C   UNL     1     -11.075  -9.604  18.084  0.00  0.00    +0.039 A 
ATOM     27  C   UNL     1     -10.230  -7.880  16.617  0.00  0.00    +0.039 A 
ATOM     28  C   UNL     1     -11.301  -8.499  17.262  0.00  0.00    +0.123 A 
ENDBRANCH  22  23
ENDBRANCH  19  20
ENDBRANCH  13  19
TORSDOF 7
ENDMDL
MODEL 4
REMARK VINA RESULT:      -6.4     22.747     25.454
REMARK  Name = 75536255
REMARK  7 active torsions:
REMARK  status: ('A' for Active; 'I' for Inactive)
REMARK    1  A    between atoms: O_3  and  C_9
REMARK    2  A    between atoms: N_5  and  C_7
REMARK    3  A    between atoms: N_5  and  C_12
REMARK    4  A    between atoms: C_8  and  C_12
REMARK    5  A    between atoms: C_13  and  C_19
REMARK    6  A    between atoms: C_19  and  C_20
REMARK    7  A    between atoms: C_22  and  C_23
REMARK                            x       y       z     vdW  Elec       q    Type
REMARK                         _______ _______ _______ _____ _____    ______ ____
ROOT
ATOM      2  O   UNL     1      -4.347  -9.293  11.454  0.00  0.00    -0.369 OA
ATOM      8  C   UNL     1      -5.607  -9.142  10.786  0.00  0.00    +0.161 C 
ATOM      9  C   UNL     1      -5.544  -9.676   9.349  0.00  0.00    +0.145 C 
ATOM     13  C   UNL     1      -3.828 -10.625  11.478  0.00  0.00    +0.125 C 
ATOM     14  C   UNL     1      -4.946 -11.078   9.275  0.00  0.00    +0.036 C 
ATOM     15  C   UNL     1      -3.637 -11.154  10.057  0.00  0.00    +0.034 C 
ENDROOT
BRANCH   9   3
ATOM      3  O   UNL     1      -4.717  -8.807   8.571  0.00  0.00    -0.389 OA
ATOM     30  H   UNL     1      -4.576  -7.995   9.088  0.00  0.00    +0.210 HD
ENDBRANCH   9   3
BRANCH   8  12
ATOM     12  C   UNL     1      -6.740  -9.759  11.603  0.00  0.00    +0.115 C 
BRANCH  12   5
ATOM      5  N   UNL     1      -6.927  -9.042  12.855  0.00  0.00    -0.311 NA
ATOM     29  H   UNL     1      -7.718  -8.406  12.754  0.00  0.00    +0.122 HD
BRANCH   5   7
ATOM      7  C   UNL     1      -7.177  -9.970  13.957  0.00  0.00    +0.054 C 
ATOM     10  C   UNL     1      -8.528  -9.652  14.609  0.00  0.00    +0.019 C 
ATOM     11  C   UNL     1      -7.138 -11.413  13.442  0.00  0.00    +0.019 C 
ATOM     16  C   UNL     1      -8.858 -10.650  15.717  0.00  0.00    +0.002 C 
ATOM     17  C   UNL     1      -7.469 -12.408  14.553  0.00  0.00    +0.002 C 
ATOM     18  C   UNL     1      -8.808 -12.090  15.212  0.00  0.00    +0.000 C 
ENDBRANCH   5   7
ENDBRANCH  12   5
ENDBRANCH   8  12
BRANCH  13  19
ATOM     19  C   UNL     1      -2.500 -10.585  12.224  0.00  0.00    +0.090 C 
BRANCH  19  20
ATOM      4  O   UNL     1      -2.213 -10.358  15.810  0.00  0.00    -0.354 OA
ATOM      6  N   UNL     1      -1.699 -10.232  14.525  0.00  0.00    -0.083 NA
ATOM     20  C   UNL     1      -2.698 -10.597  13.716  0.00  0.00    +0.087 A 
ATOM     21  C   UNL     1      -3.855 -10.960  14.427  0.00  0.00    +0.076 A 
ATOM     22  C   UNL     1      -3.497 -10.792  15.739  0.00  0.00    +0.167 A 
BRANCH  22  23
ATOM      1  F   UNL     1      -6.085 -11.469  20.617  0.00  0.00    -0.205 F 
ATOM     23  C   UNL     1      -4.165 -10.967  16.996  0.00  0.00    +0.020 A 
ATOM     24  C   UNL     1      -5.421 -10.398  17.203  0.00  0.00    +0.014 A 
ATOM     25  C   UNL     1      -3.558 -11.706  18.011  0.00  0.00    +0.014 A 
ATOM     26  C   UNL     1      -6.070 -10.568  18.426  0.00  0.00    +0.039 A 
ATOM     27  C   UNL     1      -4.206 -11.875  19.234  0.00  0.00    +0.039 A 
ATOM     28  C   UNL     1      -5.462 -11.306  19.442  0.00  0.00    +0.123 A 
ENDBRANCH  22  23
ENDBRANCH  19  20
ENDBRANCH  13  19
TORSDOF 7
ENDMDL
MODEL 5
REMARK VINA RESULT:      -6.3     39.236     41.388
REMARK  Name = 75536255
REMARK  7 active torsions:
REMARK  status: ('A' for Active; 'I' for Inactive)
REMARK    1  A    between atoms: O_3  and  C_9
REMARK    2  A    between atoms: N_5  and  C_7
REMARK    3  A    between atoms: N_5  and  C_12
REMARK    4  A    between atoms: C_8  and  C_12
REMARK    5  A    between atoms: C_13  and  C_19
REMARK    6  A    between atoms: C_19  and  C_20
REMARK    7  A    between atoms: C_22  and  C_23
REMARK                            x       y       z     vdW  Elec       q    Type
REMARK                         _______ _______ _______ _____ _____    ______ ____
ROOT
ATOM      2  O   UNL     1      12.902   2.918   0.553  0.00  0.00    -0.369 OA
ATOM      8  C   UNL     1      13.233   3.581   1.781  0.00  0.00    +0.161 C 
ATOM      9  C   UNL     1      14.656   4.151   1.741  0.00  0.00    +0.145 C 
ATOM     13  C   UNL     1      13.050   3.712  -0.626  0.00  0.00    +0.125 C 
ATOM     14  C   UNL     1      14.920   4.971   0.481  0.00  0.00    +0.036 C 
ATOM     15  C   UNL     1      14.490   4.206  -0.767  0.00  0.00    +0.034 C 
ENDROOT
BRANCH   9   3
ATOM      3  O   UNL     1      15.587   3.066   1.759  0.00  0.00    -0.389 OA
ATOM     30  H   UNL     1      16.070   3.080   0.914  0.00  0.00    +0.210 HD
ENDBRANCH   9   3
BRANCH   8  12
ATOM     12  C   UNL     1      12.180   4.627   2.140  0.00  0.00    +0.115 C 
BRANCH  12   5
ATOM      5  N   UNL     1      11.334   4.160   3.228  0.00  0.00    -0.311 NA
ATOM     29  H   UNL     1      11.899   3.600   3.866  0.00  0.00    +0.122 HD
BRANCH   5   7
ATOM      7  C   UNL     1      10.740   5.283   3.949  0.00  0.00    +0.054 C 
ATOM     10  C   UNL     1       9.968   6.179   2.973  0.00  0.00    +0.019 C 
ATOM     11  C   UNL     1       9.823   4.761   5.062  0.00  0.00    +0.019 C 
ATOM     16  C   UNL     1       9.268   7.324   3.704  0.00  0.00    +0.002 C 
ATOM     17  C   UNL     1       9.124   5.908   5.790  0.00  0.00    +0.002 C 
ATOM     18  C   UNL     1       8.364   6.809   4.822  0.00  0.00    +0.000 C 
ENDBRANCH   5   7
ENDBRANCH  12   5
ENDBRANCH   8  12
BRANCH  13  19
ATOM     19  C   UNL     1      12.656   2.845  -1.816  0.00  0.00    +0.090 C 
BRANCH  19  20
ATOM      4  O   UNL     1       9.347   3.029  -3.234  0.00  0.00    -0.354 OA
ATOM      6  N   UNL     1      10.446   2.319  -2.767  0.00  0.00    -0.083 NA
ATOM     20  C   UNL     1      11.324   3.253  -2.385  0.00  0.00    +0.087 A 
ATOM     21  C   UNL     1      10.837   4.557  -2.587  0.00  0.00    +0.076 A 
ATOM     22  C   UNL     1       9.591   4.360  -3.123  0.00  0.00    +0.167 A 
BRANCH  22  23
ATOM      1  F   UNL     1       5.506   7.717  -4.852  0.00  0.00    -0.205 F 
ATOM     23  C   UNL     1       8.538   5.225  -3.568  0.00  0.00    +0.020 A 
ATOM     24  C   UNL     1       8.018   5.085  -4.855  0.00  0.00    +0.014 A 
ATOM     25  C   UNL     1       8.033   6.206  -2.715  0.00  0.00    +0.014 A 
ATOM     26  C   UNL     1       6.994   5.927  -5.289  0.00  0.00    +0.039 A 
ATOM     27  C   UNL     1       7.010   7.048  -3.148  0.00  0.00    +0.039 A 
ATOM     28  C   UNL     1       6.490   6.909  -4.435  0.00  0.00    +0.123 A 
ENDBRANCH  22  23
ENDBRANCH  19  20
ENDBRANCH  13  19
TORSDOF 7
ENDMDL
MODEL 6
REMARK VINA RESULT:      -6.2     20.527     24.045
REMARK  Name = 75536255
REMARK  7 active torsions:
REMARK  status: ('A' for Active; 'I' for Inactive)
REMARK    1  A    between atoms: O_3  and  C_9
REMARK    2  A    between atoms: N_5  and  C_7
REMARK    3  A    between atoms: N_5  and  C_12
REMARK    4  A    between atoms: C_8  and  C_12
REMARK    5  A    between atoms: C_13  and  C_19
REMARK    6  A    between atoms: C_19  and  C_20
REMARK    7  A    between atoms: C_22  and  C_23
REMARK                            x       y       z     vdW  Elec       q    Type
REMARK                         _______ _______ _______ _____ _____    ______ ____
ROOT
ATOM      2  O   UNL     1      -6.709 -11.621  17.313  0.00  0.00    -0.369 OA
ATOM      8  C   UNL     1      -7.729 -10.816  17.920  0.00  0.00    +0.161 C 
ATOM      9  C   UNL     1      -7.585 -10.790  19.447  0.00  0.00    +0.145 C 
ATOM     13  C   UNL     1      -5.368 -11.254  17.645  0.00  0.00    +0.125 C 
ATOM     14  C   UNL     1      -6.162 -10.461  19.892  0.00  0.00    +0.036 C 
ATOM     15  C   UNL     1      -5.146 -11.330  19.155  0.00  0.00    +0.034 C 
ENDROOT
BRANCH   9   3
ATOM      3  O   UNL     1      -7.915 -12.083  19.963  0.00  0.00    -0.389 OA
ATOM     30  H   UNL     1      -8.248 -12.619  19.222  0.00  0.00    +0.210 HD
ENDBRANCH   9   3
BRANCH   8  12
ATOM     12  C   UNL     1      -7.770  -9.420  17.301  0.00  0.00    +0.115 C 
BRANCH  12   5
ATOM      5  N   UNL     1      -8.864  -8.638  17.854  0.00  0.00    -0.311 NA
ATOM     29  H   UNL     1      -8.539  -7.683  18.008  0.00  0.00    +0.122 HD
BRANCH   5   7
ATOM      7  C   UNL     1     -10.012  -8.630  16.949  0.00  0.00    +0.054 C 
ATOM     10  C   UNL     1     -11.301  -8.874  17.743  0.00  0.00    +0.019 C 
ATOM     11  C   UNL     1     -10.071  -7.297  16.195  0.00  0.00    +0.019 C 
ATOM     16  C   UNL     1     -12.532  -8.795  16.841  0.00  0.00    +0.002 C 
ATOM     17  C   UNL     1     -11.303  -7.222  15.295  0.00  0.00    +0.002 C 
ATOM     18  C   UNL     1     -12.588  -7.474  16.078  0.00  0.00    +0.000 C 
ENDBRANCH   5   7
ENDBRANCH  12   5
ENDBRANCH   8  12
BRANCH  13  19
ATOM     19  C   UNL     1      -4.436 -12.212  16.912  0.00  0.00    +0.090 C 
BRANCH  19  20
ATOM      4  O   UNL     1      -2.545 -10.961  14.111  0.00  0.00    -0.354 OA
ATOM      6  N   UNL     1      -2.638 -11.528  15.376  0.00  0.00    -0.083 NA
ATOM     20  C   UNL     1      -3.950 -11.630  15.612  0.00  0.00    +0.087 A 
ATOM     21  C   UNL     1      -4.724 -11.149  14.541  0.00  0.00    +0.076 A 
ATOM     22  C   UNL     1      -3.793 -10.740  13.624  0.00  0.00    +0.167 A 
BRANCH  22  23
ATOM      1  F   UNL     1      -4.039  -8.478   8.548  0.00  0.00    -0.205 F 
ATOM     23  C   UNL     1      -3.856 -10.156  12.316  0.00  0.00    +0.020 A 
ATOM     24  C   UNL     1      -5.077  -9.712  11.809  0.00  0.00    +0.014 A 
ATOM     25  C   UNL     1      -2.697 -10.033  11.551  0.00  0.00    +0.014 A 
ATOM     26  C   UNL     1      -5.139  -9.145  10.536  0.00  0.00    +0.039 A 
ATOM     27  C   UNL     1      -2.758  -9.466  10.278  0.00  0.00    +0.039 A 
ATOM     28  C   UNL     1      -3.979  -9.022   9.770  0.00  0.00    +0.123 A 
ENDBRANCH  22  23
ENDBRANCH  19  20
ENDBRANCH  13  19
TORSDOF 7
ENDMDL
MODEL 7
REMARK VINA RESULT:      -6.2      4.372      8.058
REMARK  Name = 75536255
REMARK  7 active torsions:
REMARK  status: ('A' for Active; 'I' for Inactive)
REMARK    1  A    between atoms: O_3  and  C_9
REMARK    2  A    between atoms: N_5  and  C_7
REMARK    3  A    between atoms: N_5  and  C_12
REMARK    4  A    between atoms: C_8  and  C_12
REMARK    5  A    between atoms: C_13  and  C_19
REMARK    6  A    between atoms: C_19  and  C_20
REMARK    7  A    between atoms: C_22  and  C_23
REMARK                            x       y       z     vdW  Elec       q    Type
REMARK                         _______ _______ _______ _____ _____    ______ ____
ROOT
ATOM      2  O   UNL     1     -14.188   9.610  32.602  0.00  0.00    -0.369 OA
ATOM      8  C   UNL     1     -13.508  10.491  31.698  0.00  0.00    +0.161 C 
ATOM      9  C   UNL     1     -11.989  10.439  31.904  0.00  0.00    +0.145 C 
ATOM     13  C   UNL     1     -13.762   8.246  32.558  0.00  0.00    +0.125 C 
ATOM     14  C   UNL     1     -11.453   9.010  31.928  0.00  0.00    +0.036 C 
ATOM     15  C   UNL     1     -12.271   8.137  32.877  0.00  0.00    +0.034 C 
ENDROOT
BRANCH   9   3
ATOM      3  O   UNL     1     -11.674  11.044  33.161  0.00  0.00    -0.389 OA
ATOM     30  H   UNL     1     -12.225  10.616  33.840  0.00  0.00    +0.210 HD
ENDBRANCH   9   3
BRANCH   8  12
ATOM     12  C   UNL     1     -13.923  10.223  30.252  0.00  0.00    +0.115 C 
BRANCH  12   5
ATOM      5  N   UNL     1     -13.414  11.257  29.365  0.00  0.00    -0.311 NA
ATOM     29  H   UNL     1     -12.691  11.783  29.856  0.00  0.00    +0.122 HD
BRANCH   5   7
ATOM      7  C   UNL     1     -12.859  10.674  28.145  0.00  0.00    +0.054 C 
ATOM     10  C   UNL     1     -12.951  11.685  26.996  0.00  0.00    +0.019 C 
ATOM     11  C   UNL     1     -11.407  10.245  28.387  0.00  0.00    +0.019 C 
ATOM     16  C   UNL     1     -12.310  11.138  25.722  0.00  0.00    +0.002 C 
ATOM     17  C   UNL     1     -10.769   9.699  27.110  0.00  0.00    +0.002 C 
ATOM     18  C   UNL     1     -10.868  10.697  25.961  0.00  0.00    +0.000 C 
ENDBRANCH   5   7
ENDBRANCH  12   5
ENDBRANCH   8  12
BRANCH  13  19
ATOM     19  C   UNL     1     -14.591   7.474  33.577  0.00  0.00    +0.090 C 
BRANCH  19  20
ATOM      4  O   UNL     1     -14.174   3.911  33.924  0.00  0.00    -0.354 OA
ATOM      6  N   UNL     1     -14.242   5.197  34.445  0.00  0.00    -0.083 NA
ATOM     20  C   UNL     1     -14.460   5.987  33.389  0.00  0.00    +0.087 A 
ATOM     21  C   UNL     1     -14.539   5.261  32.187  0.00  0.00    +0.076 A 
ATOM     22  C   UNL     1     -14.353   3.962  32.579  0.00  0.00    +0.167 A 
BRANCH  22  23
ATOM      1  F   UNL     1     -14.193  -0.931  29.936  0.00  0.00    -0.205 F 
ATOM     23  C   UNL     1     -14.311   2.700  31.899  0.00  0.00    +0.020 A 
ATOM     24  C   UNL     1     -13.702   2.603  30.648  0.00  0.00    +0.014 A 
ATOM     25  C   UNL     1     -14.879   1.571  32.487  0.00  0.00    +0.014 A 
ATOM     26  C   UNL     1     -13.662   1.377  29.984  0.00  0.00    +0.039 A 
ATOM     27  C   UNL     1     -14.840   0.344  31.824  0.00  0.00    +0.039 A 
ATOM     28  C   UNL     1     -14.231   0.247  30.573  0.00  0.00    +0.123 A 
ENDBRANCH  22  23
ENDBRANCH  19  20
ENDBRANCH  13  19
TORSDOF 7
ENDMDL
MODEL 8
REMARK VINA RESULT:      -6.0     24.066     26.613
REMARK  Name = 75536255
REMARK  7 active torsions:
REMARK  status: ('A' for Active; 'I' for Inactive)
REMARK    1  A    between atoms: O_3  and  C_9
REMARK    2  A    between atoms: N_5  and  C_7
REMARK    3  A    between atoms: N_5  and  C_12
REMARK    4  A    between atoms: C_8  and  C_12
REMARK    5  A    between atoms: C_13  and  C_19
REMARK    6  A    between atoms: C_19  and  C_20
REMARK    7  A    between atoms: C_22  and  C_23
REMARK                            x       y       z     vdW  Elec       q    Type
REMARK                         _______ _______ _______ _____ _____    ______ ____
ROOT
ATOM      2  O   UNL     1      -4.133 -12.295  15.868  0.00  0.00    -0.369 OA
ATOM      8  C   UNL     1      -5.373 -12.731  16.441  0.00  0.00    +0.161 C 
ATOM      9  C   UNL     1      -5.250 -12.921  17.958  0.00  0.00    +0.145 C 
ATOM     13  C   UNL     1      -3.582 -11.106  16.441  0.00  0.00    +0.125 C 
ATOM     14  C   UNL     1      -4.616 -11.717  18.647  0.00  0.00    +0.036 C 
ATOM     15  C   UNL     1      -3.333 -11.296  17.937  0.00  0.00    +0.034 C 
ENDROOT
BRANCH   9   3
ATOM      3  O   UNL     1      -4.420 -14.057  18.214  0.00  0.00    -0.389 OA
ATOM     30  H   UNL     1      -3.690 -14.038  17.570  0.00  0.00    +0.210 HD
ENDBRANCH   9   3
BRANCH   8  12
ATOM     12  C   UNL     1      -6.517 -11.798  16.048  0.00  0.00    +0.115 C 
BRANCH  12   5
ATOM      5  N   UNL     1      -7.537 -12.516  15.297  0.00  0.00    -0.311 NA
ATOM     29  H   UNL     1      -8.375 -12.593  15.874  0.00  0.00    +0.122 HD
BRANCH   5   7
ATOM      7  C   UNL     1      -7.856 -11.822  14.051  0.00  0.00    +0.054 C 
ATOM     10  C   UNL     1      -7.963 -10.314  14.308  0.00  0.00    +0.019 C 
ATOM     11  C   UNL     1      -6.787 -12.128  12.997  0.00  0.00    +0.019 C 
ATOM     16  C   UNL     1      -8.220  -9.547  13.013  0.00  0.00    +0.002 C 
ATOM     17  C   UNL     1      -7.047 -11.358  11.702  0.00  0.00    +0.002 C 
ATOM     18  C   UNL     1      -7.164  -9.858  11.954  0.00  0.00    +0.000 C 
ENDBRANCH   5   7
ENDBRANCH  12   5
ENDBRANCH   8  12
BRANCH  13  19
ATOM     19  C   UNL     1      -2.280 -10.805  15.709  0.00  0.00    +0.090 C 
BRANCH  19  20
ATOM      4  O   UNL     1      -2.034 -11.622  12.207  0.00  0.00    -0.354 OA
ATOM      6  N   UNL     1      -1.619 -11.736  13.528  0.00  0.00    -0.083 NA
ATOM     20  C   UNL     1      -2.437 -10.935  14.218  0.00  0.00    +0.087 A 
ATOM     21  C   UNL     1      -3.380 -10.297  13.393  0.00  0.00    +0.076 A 
ATOM     22  C   UNL     1      -3.083 -10.762  12.139  0.00  0.00    +0.167 A 
BRANCH  22  23
ATOM      1  F   UNL     1      -5.186  -9.916   7.059  0.00  0.00    -0.205 F 
ATOM     23  C   UNL     1      -3.624 -10.544  10.829  0.00  0.00    +0.020 A 
ATOM     24  C   UNL     1      -3.846  -9.245  10.374  0.00  0.00    +0.014 A 
ATOM     25  C   UNL     1      -3.929 -11.631  10.011  0.00  0.00    +0.014 A 
ATOM     26  C   UNL     1      -4.374  -9.032   9.100  0.00  0.00    +0.039 A 
ATOM     27  C   UNL     1      -4.457 -11.419   8.737  0.00  0.00    +0.039 A 
ATOM     28  C   UNL     1      -4.680 -10.120   8.282  0.00  0.00    +0.123 A 
ENDBRANCH  22  23
ENDBRANCH  19  20
ENDBRANCH  13  19
TORSDOF 7
ENDMDL
MODEL 9
REMARK VINA RESULT:      -5.9     23.113     26.539
REMARK  Name = 75536255
REMARK  7 active torsions:
REMARK  status: ('A' for Active; 'I' for Inactive)
REMARK    1  A    between atoms: O_3  and  C_9
REMARK    2  A    between atoms: N_5  and  C_7
REMARK    3  A    between atoms: N_5  and  C_12
REMARK    4  A    between atoms: C_8  and  C_12
REMARK    5  A    between atoms: C_13  and  C_19
REMARK    6  A    between atoms: C_19  and  C_20
REMARK    7  A    between atoms: C_22  and  C_23
REMARK                            x       y       z     vdW  Elec       q    Type
REMARK                         _______ _______ _______ _____ _____    ______ ____
ROOT
ATOM      2  O   UNL     1      -6.132 -10.620  10.096  0.00  0.00    -0.369 OA
ATOM      8  C   UNL     1      -5.102 -11.115   9.230  0.00  0.00    +0.161 C 
ATOM      9  C   UNL     1      -4.484  -9.986   8.396  0.00  0.00    +0.145 C 
ATOM     13  C   UNL     1      -5.733  -9.562  10.972  0.00  0.00    +0.125 C 
ATOM     14  C   UNL     1      -4.080  -8.787   9.248  0.00  0.00    +0.036 C 
ATOM     15  C   UNL     1      -5.219  -8.366  10.172  0.00  0.00    +0.034 C 
ENDROOT
BRANCH   9   3
ATOM      3  O   UNL     1      -5.449  -9.537   7.441  0.00  0.00    -0.389 OA
ATOM     30  H   UNL     1      -6.235 -10.105   7.529  0.00  0.00    +0.210 HD
ENDBRANCH   9   3
BRANCH   8  12
ATOM     12  C   UNL     1      -4.063 -11.916  10.013  0.00  0.00    +0.115 C 
BRANCH  12   5
ATOM      5  N   UNL     1      -4.696 -12.703  11.060  0.00  0.00    -0.311 NA
ATOM     29  H   UNL     1      -4.702 -13.683  10.775  0.00  0.00    +0.122 HD
BRANCH   5   7
ATOM      7  C   UNL     1      -3.982 -12.560  12.327  0.00  0.00    +0.054 C 
ATOM     10  C   UNL     1      -3.522 -13.936  12.823  0.00  0.00    +0.019 C 
ATOM     11  C   UNL     1      -2.792 -11.611  12.150  0.00  0.00    +0.019 C 
ATOM     16  C   UNL     1      -2.705 -13.818  14.108  0.00  0.00    +0.002 C 
ATOM     17  C   UNL     1      -1.976 -11.496  13.437  0.00  0.00    +0.002 C 
ATOM     18  C   UNL     1      -1.525 -12.863  13.940  0.00  0.00    +0.000 C 
ENDBRANCH   5   7
ENDBRANCH  12   5
ENDBRANCH   8  12
BRANCH  13  19
ATOM     19  C   UNL     1      -6.948  -9.175  11.806  0.00  0.00    +0.090 C 
BRANCH  19  20
ATOM      4  O   UNL     1      -7.413 -10.141  15.247  0.00  0.00    -0.354 OA
ATOM      6  N   UNL     1      -7.890  -9.703  14.018  0.00  0.00    -0.083 NA
ATOM     20  C   UNL     1      -6.810  -9.624  13.235  0.00  0.00    +0.087 A 
ATOM     21  C   UNL     1      -5.634  -9.998  13.909  0.00  0.00    +0.076 A 
ATOM     22  C   UNL     1      -6.068 -10.314  15.170  0.00  0.00    +0.167 A 
BRANCH  22  23
ATOM      1  F   UNL     1      -3.593 -12.086  19.826  0.00  0.00    -0.205 F 
ATOM     23  C   UNL     1      -5.430 -10.770  16.371  0.00  0.00    +0.020 A 
ATOM     24  C   UNL     1      -4.042 -10.902  16.415  0.00  0.00    +0.014 A 
ATOM     25  C   UNL     1      -6.197 -11.081  17.493  0.00  0.00    +0.014 A 
ATOM     26  C   UNL     1      -3.421 -11.347  17.582  0.00  0.00    +0.039 A 
ATOM     27  C   UNL     1      -5.577 -11.526  18.660  0.00  0.00    +0.039 A 
ATOM     28  C   UNL     1      -4.189 -11.659  18.705  0.00  0.00    +0.123 A 
ENDBRANCH  22  23
ENDBRANCH  19  20
ENDBRANCH  13  19
TORSDOF 7
ENDMDL
MODEL 10
REMARK VINA RESULT:      -5.8     21.834     25.882
REMARK  Name = 75536255
REMARK  7 active torsions:
REMARK  status: ('A' for Active; 'I' for Inactive)
REMARK    1  A    between atoms: O_3  and  C_9
REMARK    2  A    between atoms: N_5  and  C_7
REMARK    3  A    between atoms: N_5  and  C_12
REMARK    4  A    between atoms: C_8  and  C_12
REMARK    5  A    between atoms: C_13  and  C_19
REMARK    6  A    between atoms: C_19  and  C_20
REMARK    7  A    between atoms: C_22  and  C_23
REMARK                            x       y       z     vdW  Elec       q    Type
REMARK                         _______ _______ _______ _____ _____    ______ ____
ROOT
ATOM      2  O   UNL     1      -4.181 -12.296  15.856  0.00  0.00    -0.369 OA
ATOM      8  C   UNL     1      -5.441 -12.606  16.465  0.00  0.00    +0.161 C 
ATOM      9  C   UNL     1      -5.302 -12.773  17.983  0.00  0.00    +0.145 C 
ATOM     13  C   UNL     1      -3.514 -11.149  16.388  0.00  0.00    +0.125 C 
ATOM     14  C   UNL     1      -4.548 -11.614  18.629  0.00  0.00    +0.036 C 
ATOM     15  C   UNL     1      -3.248 -11.325  17.883  0.00  0.00    +0.034 C 
ENDROOT
BRANCH   9   3
ATOM      3  O   UNL     1      -4.569 -13.972  18.249  0.00  0.00    -0.389 OA
ATOM     30  H   UNL     1      -3.856 -14.033  17.590  0.00  0.00    +0.210 HD
ENDBRANCH   9   3
BRANCH   8  12
ATOM     12  C   UNL     1      -6.507 -11.585  16.072  0.00  0.00    +0.115 C 
BRANCH  12   5
ATOM      5  N   UNL     1      -7.841 -12.149  16.205  0.00  0.00    -0.311 NA
ATOM     29  H   UNL     1      -7.855 -12.768  17.016  0.00  0.00    +0.122 HD
BRANCH   5   7
ATOM      7  C   UNL     1      -8.841 -11.096  16.369  0.00  0.00    +0.054 C 
ATOM     10  C   UNL     1      -8.928 -10.685  17.844  0.00  0.00    +0.019 C 
ATOM     11  C   UNL     1      -8.486  -9.898  15.482  0.00  0.00    +0.019 C 
ATOM     16  C   UNL     1      -9.910  -9.531  18.042  0.00  0.00    +0.002 C 
ATOM     17  C   UNL     1      -9.469  -8.746  15.683  0.00  0.00    +0.002 C 
ATOM     18  C   UNL     1      -9.566  -8.340  17.151  0.00  0.00    +0.000 C 
ENDBRANCH   5   7
ENDBRANCH  12   5
ENDBRANCH   8  12
BRANCH  13  19
ATOM     19  C   UNL     1      -2.207 -10.981  15.622  0.00  0.00    +0.090 C 
BRANCH  19  20
ATOM      4  O   UNL     1      -2.147 -11.877  12.131  0.00  0.00    -0.354 OA
ATOM      6  N   UNL     1      -1.723 -12.026  13.446  0.00  0.00    -0.083 NA
ATOM     20  C   UNL     1      -2.412 -11.112  14.136  0.00  0.00    +0.087 A 
ATOM     21  C   UNL     1      -3.278 -10.366  13.318  0.00  0.00    +0.076 A 
ATOM     22  C   UNL     1      -3.073 -10.886  12.067  0.00  0.00    +0.167 A 
BRANCH  22  23
ATOM      1  F   UNL     1      -5.153  -9.844   7.014  0.00  0.00    -0.205 F 
ATOM     23  C   UNL     1      -3.608 -10.618  10.764  0.00  0.00    +0.020 A 
ATOM     24  C   UNL     1      -3.693  -9.304  10.303  0.00  0.00    +0.014 A 
ATOM     25  C   UNL     1      -4.044 -11.669   9.959  0.00  0.00    +0.014 A 
ATOM     26  C   UNL     1      -4.215  -9.042   9.036  0.00  0.00    +0.039 A 
ATOM     27  C   UNL     1      -4.566 -11.408   8.692  0.00  0.00    +0.039 A 
ATOM     28  C   UNL     1      -4.652 -10.095   8.230  0.00  0.00    +0.123 A 
ENDBRANCH  22  23
ENDBRANCH  19  20
ENDBRANCH  13  19
TORSDOF 7
ENDMDL
