REMARK  Name = 11867242
REMARK  8 active torsions:
REMARK  status: ('A' for Active; 'I' for Inactive)
REMARK    1  A    between atoms: S_1  and  N_10
REMARK    2  A    between atoms: S_1  and  C_25
REMARK    3  A    between atoms: O_6  and  C_26
REMARK    4  A    between atoms: N_10  and  C_21
REMARK    5  A    between atoms: C_20  and  C_23
REMARK    6  A    between atoms: C_23  and  C_24
REMARK    7  A    between atoms: C_24  and  C_26
REMARK    8  A    between atoms: C_25  and  C_27
REMARK                            x       y       z     vdW  Elec       q    Type
REMARK                         _______ _______ _______ _____ _____    ______ ____
ROOT
ATOM      2  O   UNL     1       1.172   2.774  -1.819  0.00  0.00    -0.266 OA
ATOM      3  O   UNL     1       1.660  -2.561  -1.944  0.00  0.00    -0.276 OA
ATOM      8  N   UNL     1       3.034  -1.648  -0.308  0.00  0.00    -0.301 N 
ATOM      9  N   UNL     1       2.454   1.496  -0.331  0.00  0.00    -0.310 N 
ATOM     11  C   UNL     1       4.543   0.202  -1.043  0.00  0.00    +0.027 C 
ATOM     12  C   UNL     1       3.784   0.102   1.294  0.00  0.00    +0.054 C 
ATOM     13  C   UNL     1       4.987   0.399   0.401  0.00  0.00    +0.018 C 
ATOM     14  C   UNL     1       4.062  -1.242  -1.268  0.00  0.00    +0.113 C 
ATOM     15  C   UNL     1       3.454   1.230  -1.372  0.00  0.00    +0.130 C 
ATOM     16  C   UNL     1       3.346  -1.362   1.101  0.00  0.00    +0.117 C 
ATOM     17  C   UNL     1       2.627   1.032   0.980  0.00  0.00    +0.027 A 
ATOM     18  C   UNL     1       1.760   1.383   1.947  0.00  0.00    +0.024 A 
ATOM     19  C   UNL     1       1.369   2.324  -0.691  0.00  0.00    +0.274 A 
ATOM     20  C   UNL     1       1.904  -2.331  -0.757  0.00  0.00    +0.216 C 
ATOM     21  C   UNL     1       0.435   2.657   0.413  0.00  0.00    +0.112 A 
ATOM     22  C   UNL     1       0.627   2.220   1.658  0.00  0.00    +0.031 A 
ENDROOT
BRANCH  21  10
ATOM     10  N   UNL     1      -0.688   3.467   0.170  0.00  0.00    -0.215 N 
ATOM     33  H   UNL     1      -0.626   3.973  -0.724  0.00  0.00    +0.173 HD
BRANCH  10   1
ATOM      1  S   UNL     1      -2.199   2.725   0.441  0.00  0.00    +0.047 S 
ATOM      4  O   UNL     1      -2.265   2.233   1.804  0.00  0.00    -0.155 OA
ATOM      5  O   UNL     1      -3.250   3.561  -0.107  0.00  0.00    -0.155 OA
BRANCH   1  25
ATOM     25  C   UNL     1      -2.031   1.311  -0.621  0.00  0.00    +0.223 C 
BRANCH  25  27
ATOM     27  C   UNL     1      -3.293   0.511  -0.519  0.00  0.00    -0.025 A 
ATOM     28  C   UNL     1      -4.349   0.773  -1.387  0.00  0.00    +0.005 A 
ATOM     29  C   UNL     1      -3.401  -0.489   0.443  0.00  0.00    +0.005 A 
ATOM     30  C   UNL     1      -5.524   0.028  -1.292  0.00  0.00    +0.000 A 
ATOM     31  C   UNL     1      -4.577  -1.234   0.538  0.00  0.00    +0.000 A 
ATOM     32  C   UNL     1      -5.638  -0.976  -0.330  0.00  0.00    +0.000 A 
ENDBRANCH  25  27
ENDBRANCH   1  25
ENDBRANCH  10   1
ENDBRANCH  21  10
BRANCH  20  23
ATOM     23  C   UNL     1       0.933  -2.799   0.298  0.00  0.00    +0.107 C 
BRANCH  23  24
ATOM     24  C   UNL     1      -0.230  -3.518  -0.355  0.00  0.00    +0.129 C 
BRANCH  24  26
ATOM      7  O   UNL     1      -1.141  -3.743   1.871  0.00  0.00    -0.251 OA
ATOM     26  C   UNL     1      -1.255  -3.940   0.668  0.00  0.00    +0.305 C 
BRANCH  26   6
ATOM      6  O   UNL     1      -2.311  -4.584   0.114  0.00  0.00    -0.481 OA
ATOM     34  H   UNL     1      -2.967  -4.860   0.790  0.00  0.00    +0.295 HD
ENDBRANCH  26   6
ENDBRANCH  24  26
ENDBRANCH  23  24
ENDBRANCH  20  23
TORSDOF 8
