MODEL 1
REMARK VINA RESULT:      -6.5      0.000      0.000
REMARK  Name = 56774237
REMARK  9 active torsions:
REMARK  status: ('A' for Active; 'I' for Inactive)
REMARK    1  A    between atoms: N_3  and  C_9
REMARK    2  A    between atoms: N_5  and  C_24
REMARK    3  A    between atoms: N_6  and  C_18
REMARK    4  A    between atoms: C_7  and  C_12
REMARK    5  A    between atoms: C_7  and  C_13
REMARK    6  A    between atoms: C_8  and  C_11
REMARK    7  A    between atoms: C_11  and  C_14
REMARK    8  A    between atoms: C_17  and  C_18
REMARK    9  A    between atoms: C_24  and  C_25
REMARK                            x       y       z     vdW  Elec       q    Type
REMARK                         _______ _______ _______ _____ _____    ______ ____
ROOT
ATOM      7  C   UNL     1      -6.266 -11.534  17.885  0.00  0.00    -0.013 C 
ATOM      8  C   UNL     1      -5.436 -10.912  16.742  0.00  0.00    +0.004 C 
ATOM      9  C   UNL     1      -7.468 -10.728  17.348  0.00  0.00    +0.081 C 
ATOM     10  C   UNL     1      -6.442  -9.741  16.753  0.00  0.00    +0.027 C 
ATOM     12  C   UNL     1      -5.773 -11.159  19.265  0.00  0.00    +0.013 C 
ATOM     13  C   UNL     1      -6.481 -13.034  17.806  0.00  0.00    +0.013 C 
ENDROOT
BRANCH   9   3
ATOM      2  O   UNL     1     -10.049 -11.687  18.214  0.00  0.00    -0.253 OA
ATOM      3  N   UNL     1      -8.338 -10.128  18.366  0.00  0.00    -0.296 N 
ATOM      5  N   UNL     1     -10.202  -9.914  19.706  0.00  0.00    -0.300 N 
ATOM     15  C   UNL     1      -9.577 -10.670  18.719  0.00  0.00    +0.300 C 
ATOM     26  H   UNL     1      -8.052  -9.279  18.846  0.00  0.00    +0.151 HD
ATOM     27  H   UNL     1      -9.729  -9.093  20.070  0.00  0.00    +0.150 HD
BRANCH   5  24
ATOM     24  C   UNL     1     -11.496 -10.258  20.248  0.00  0.00    +0.102 C 
ATOM     25  C   UNL     1     -12.619  -9.690  19.404  0.00  0.00    +0.024 C 
ENDBRANCH   5  24
ENDBRANCH   9   3
BRANCH   8  11
ATOM     11  C   UNL     1      -3.987 -10.520  17.060  0.00  0.00    +0.063 C 
BRANCH  11  14
ATOM      1  O   UNL     1      -1.292 -10.946  14.754  0.00  0.00    -0.358 OA
ATOM      4  N   UNL     1      -1.797 -10.795  16.040  0.00  0.00    -0.083 NA
ATOM     14  C   UNL     1      -3.120 -10.691  15.882  0.00  0.00    +0.084 A 
ATOM     16  C   UNL     1      -3.504 -10.768  14.532  0.00  0.00    +0.072 A 
ATOM     17  C   UNL     1      -2.319 -10.929  13.865  0.00  0.00    +0.151 A 
BRANCH  17  18
ATOM     18  C   UNL     1      -1.953 -11.081  12.413  0.00  0.00    +0.161 C 
BRANCH  18   6
ATOM      6  N   UNL     1      -3.047 -10.674  11.531  0.00  0.00    -0.295 NA
ATOM     19  C   UNL     1      -2.635  -9.542  10.690  0.00  0.00    +0.085 C 
ATOM     20  C   UNL     1      -3.494 -11.809  10.711  0.00  0.00    +0.085 C 
ATOM     21  C   UNL     1      -3.784  -9.072   9.796  0.00  0.00    +0.015 C 
ATOM     22  C   UNL     1      -4.672 -11.413   9.817  0.00  0.00    +0.015 C 
ATOM     23  C   UNL     1      -4.325 -10.213   8.943  0.00  0.00    +0.002 C 
ENDBRANCH  18   6
ENDBRANCH  17  18
ENDBRANCH  11  14
ENDBRANCH   8  11
TORSDOF 6
ENDMDL
MODEL 2
REMARK VINA RESULT:      -6.4     27.960     31.009
REMARK  Name = 56774237
REMARK  9 active torsions:
REMARK  status: ('A' for Active; 'I' for Inactive)
REMARK    1  A    between atoms: N_3  and  C_9
REMARK    2  A    between atoms: N_5  and  C_24
REMARK    3  A    between atoms: N_6  and  C_18
REMARK    4  A    between atoms: C_7  and  C_12
REMARK    5  A    between atoms: C_7  and  C_13
REMARK    6  A    between atoms: C_8  and  C_11
REMARK    7  A    between atoms: C_11  and  C_14
REMARK    8  A    between atoms: C_17  and  C_18
REMARK    9  A    between atoms: C_24  and  C_25
REMARK                            x       y       z     vdW  Elec       q    Type
REMARK                         _______ _______ _______ _____ _____    ______ ____
ROOT
ATOM      7  C   UNL     1      21.474   6.199  21.261  0.00  0.00    -0.013 C 
ATOM      8  C   UNL     1      20.053   6.428  20.702  0.00  0.00    +0.004 C 
ATOM      9  C   UNL     1      21.566   4.982  20.316  0.00  0.00    +0.081 C 
ATOM     10  C   UNL     1      20.025   4.922  20.367  0.00  0.00    +0.027 C 
ATOM     12  C   UNL     1      21.499   5.898  22.744  0.00  0.00    +0.013 C 
ATOM     13  C   UNL     1      22.494   7.274  20.937  0.00  0.00    +0.013 C 
ENDROOT
BRANCH   9   3
ATOM      2  O   UNL     1      24.332   4.213  20.008  0.00  0.00    -0.253 OA
ATOM      3  N   UNL     1      22.221   3.793  20.872  0.00  0.00    -0.296 N 
ATOM      5  N   UNL     1      23.945   2.323  21.300  0.00  0.00    -0.300 N 
ATOM     15  C   UNL     1      23.573   3.505  20.668  0.00  0.00    +0.300 C 
ATOM     26  H   UNL     1      21.688   3.131  21.430  0.00  0.00    +0.151 HD
ATOM     27  H   UNL     1      23.249   1.810  21.832  0.00  0.00    +0.150 HD
BRANCH   5  24
ATOM     24  C   UNL     1      25.290   1.799  21.244  0.00  0.00    +0.102 C 
ATOM     25  C   UNL     1      25.388   0.449  21.923  0.00  0.00    +0.024 C 
ENDBRANCH   5  24
ENDBRANCH   9   3
BRANCH   8  11
ATOM     11  C   UNL     1      18.975   6.889  21.691  0.00  0.00    +0.063 C 
BRANCH  11  14
ATOM      1  O   UNL     1      16.285   8.683  20.174  0.00  0.00    -0.358 OA
ATOM      4  N   UNL     1      17.476   8.626  20.888  0.00  0.00    -0.083 NA
ATOM     14  C   UNL     1      17.758   7.323  20.987  0.00  0.00    +0.084 A 
ATOM     16  C   UNL     1      16.789   6.519  20.361  0.00  0.00    +0.072 A 
ATOM     17  C   UNL     1      15.886   7.422  19.866  0.00  0.00    +0.151 A 
BRANCH  17  18
ATOM     18  C   UNL     1      14.604   7.293  19.089  0.00  0.00    +0.161 C 
BRANCH  18   6
ATOM      6  N   UNL     1      13.476   7.902  19.794  0.00  0.00    -0.295 NA
ATOM     19  C   UNL     1      12.296   7.962  18.920  0.00  0.00    +0.085 C 
ATOM     20  C   UNL     1      13.185   7.163  21.031  0.00  0.00    +0.085 C 
ATOM     21  C   UNL     1      11.121   8.642  19.626  0.00  0.00    +0.015 C 
ATOM     22  C   UNL     1      12.038   7.816  21.806  0.00  0.00    +0.015 C 
ATOM     23  C   UNL     1      10.789   7.948  20.942  0.00  0.00    +0.002 C 
ENDBRANCH  18   6
ENDBRANCH  17  18
ENDBRANCH  11  14
ENDBRANCH   8  11
TORSDOF 6
ENDMDL
MODEL 3
REMARK VINA RESULT:      -6.2      0.900      1.327
REMARK  Name = 56774237
REMARK  9 active torsions:
REMARK  status: ('A' for Active; 'I' for Inactive)
REMARK    1  A    between atoms: N_3  and  C_9
REMARK    2  A    between atoms: N_5  and  C_24
REMARK    3  A    between atoms: N_6  and  C_18
REMARK    4  A    between atoms: C_7  and  C_12
REMARK    5  A    between atoms: C_7  and  C_13
REMARK    6  A    between atoms: C_8  and  C_11
REMARK    7  A    between atoms: C_11  and  C_14
REMARK    8  A    between atoms: C_17  and  C_18
REMARK    9  A    between atoms: C_24  and  C_25
REMARK                            x       y       z     vdW  Elec       q    Type
REMARK                         _______ _______ _______ _____ _____    ______ ____
ROOT
ATOM      7  C   UNL     1      -6.593 -10.761  16.949  0.00  0.00    -0.013 C 
ATOM      8  C   UNL     1      -5.151 -10.407  17.370  0.00  0.00    +0.004 C 
ATOM      9  C   UNL     1      -7.063 -10.032  18.225  0.00  0.00    +0.081 C 
ATOM     10  C   UNL     1      -5.673 -10.339  18.821  0.00  0.00    +0.027 C 
ATOM     12  C   UNL     1      -6.859 -12.249  16.893  0.00  0.00    +0.013 C 
ATOM     13  C   UNL     1      -7.092 -10.101  15.677  0.00  0.00    +0.013 C 
ENDROOT
BRANCH   9   3
ATOM      2  O   UNL     1      -9.886  -9.526  17.890  0.00  0.00    -0.253 OA
ATOM      3  N   UNL     1      -8.168 -10.668  18.951  0.00  0.00    -0.296 N 
ATOM      5  N   UNL     1     -10.358 -11.097  19.534  0.00  0.00    -0.300 N 
ATOM     15  C   UNL     1      -9.510 -10.356  18.717  0.00  0.00    +0.300 C 
ATOM     26  H   UNL     1      -7.976 -11.366  19.665  0.00  0.00    +0.151 HD
ATOM     27  H   UNL     1      -9.954 -11.767  20.180  0.00  0.00    +0.150 HD
BRANCH   5  24
ATOM     24  C   UNL     1     -11.796 -10.963  19.490  0.00  0.00    +0.102 C 
ATOM     25  C   UNL     1     -12.288  -9.945  20.498  0.00  0.00    +0.024 C 
ENDBRANCH   5  24
ENDBRANCH   9   3
BRANCH   8  11
ATOM     11  C   UNL     1      -4.067 -11.465  17.124  0.00  0.00    +0.063 C 
BRANCH  11  14
ATOM      1  O   UNL     1      -1.385 -10.402  15.018  0.00  0.00    -0.358 OA
ATOM      4  N   UNL     1      -1.928 -10.696  16.264  0.00  0.00    -0.083 NA
ATOM     14  C   UNL     1      -3.185 -11.073  16.013  0.00  0.00    +0.084 A 
ATOM     16  C   UNL     1      -3.489 -11.036  14.641  0.00  0.00    +0.072 A 
ATOM     17  C   UNL     1      -2.325 -10.609  14.060  0.00  0.00    +0.151 A 
BRANCH  17  18
ATOM     18  C   UNL     1      -1.907 -10.338  12.639  0.00  0.00    +0.161 C 
BRANCH  18   6
ATOM      6  N   UNL     1      -3.040 -10.410  11.717  0.00  0.00    -0.295 NA
ATOM     19  C   UNL     1      -2.890  -9.420  10.641  0.00  0.00    +0.085 C 
ATOM     20  C   UNL     1      -3.174 -11.769  11.173  0.00  0.00    +0.085 C 
ATOM     21  C   UNL     1      -4.091  -9.449   9.694  0.00  0.00    +0.015 C 
ATOM     22  C   UNL     1      -4.384 -11.875  10.242  0.00  0.00    +0.015 C 
ATOM     23  C   UNL     1      -4.312 -10.844   9.121  0.00  0.00    +0.002 C 
ENDBRANCH  18   6
ENDBRANCH  17  18
ENDBRANCH  11  14
ENDBRANCH   8  11
TORSDOF 6
ENDMDL
MODEL 4
REMARK VINA RESULT:      -6.2     27.823     30.175
REMARK  Name = 56774237
REMARK  9 active torsions:
REMARK  status: ('A' for Active; 'I' for Inactive)
REMARK    1  A    between atoms: N_3  and  C_9
REMARK    2  A    between atoms: N_5  and  C_24
REMARK    3  A    between atoms: N_6  and  C_18
REMARK    4  A    between atoms: C_7  and  C_12
REMARK    5  A    between atoms: C_7  and  C_13
REMARK    6  A    between atoms: C_8  and  C_11
REMARK    7  A    between atoms: C_11  and  C_14
REMARK    8  A    between atoms: C_17  and  C_18
REMARK    9  A    between atoms: C_24  and  C_25
REMARK                            x       y       z     vdW  Elec       q    Type
REMARK                         _______ _______ _______ _____ _____    ______ ____
ROOT
ATOM      7  C   UNL     1      15.602   7.782  20.857  0.00  0.00    -0.013 C 
ATOM      8  C   UNL     1      16.771   6.794  20.651  0.00  0.00    +0.004 C 
ATOM      9  C   UNL     1      14.858   7.013  19.744  0.00  0.00    +0.081 C 
ATOM     10  C   UNL     1      16.244   6.590  19.214  0.00  0.00    +0.027 C 
ATOM     12  C   UNL     1      15.964   9.219  20.551  0.00  0.00    +0.013 C 
ATOM     13  C   UNL     1      14.898   7.703  22.198  0.00  0.00    +0.013 C 
ENDROOT
BRANCH   9   3
ATOM      2  O   UNL     1      12.094   6.679  18.978  0.00  0.00    -0.253 OA
ATOM      3  N   UNL     1      14.095   7.840  18.801  0.00  0.00    -0.296 N 
ATOM      5  N   UNL     1      12.265   8.522  17.575  0.00  0.00    -0.300 N 
ATOM     15  C   UNL     1      12.754   7.598  18.494  0.00  0.00    +0.300 C 
ATOM     26  H   UNL     1      14.541   8.625  18.334  0.00  0.00    +0.151 HD
ATOM     27  H   UNL     1      12.884   9.253  17.239  0.00  0.00    +0.150 HD
BRANCH   5  24
ATOM     24  C   UNL     1      10.905   8.494  17.090  0.00  0.00    +0.102 C 
ATOM     25  C   UNL     1      10.800   9.091  15.702  0.00  0.00    +0.024 C 
ENDBRANCH   5  24
ENDBRANCH   9   3
BRANCH   8  11
ATOM     11  C   UNL     1      18.194   7.360  20.742  0.00  0.00    +0.063 C 
BRANCH  11  14
ATOM      1  O   UNL     1      20.137   4.423  20.149  0.00  0.00    -0.358 OA
ATOM      4  N   UNL     1      19.030   5.232  19.919  0.00  0.00    -0.083 NA
ATOM     14  C   UNL     1      19.196   6.283  20.727  0.00  0.00    +0.084 A 
ATOM     16  C   UNL     1      20.377   6.193  21.484  0.00  0.00    +0.072 A 
ATOM     17  C   UNL     1      20.932   5.007  21.082  0.00  0.00    +0.151 A 
BRANCH  17  18
ATOM     18  C   UNL     1      22.186   4.263  21.458  0.00  0.00    +0.161 C 
BRANCH  18   6
ATOM      6  N   UNL     1      23.306   4.609  20.584  0.00  0.00    -0.295 NA
ATOM     19  C   UNL     1      24.011   5.792  21.099  0.00  0.00    +0.085 C 
ATOM     20  C   UNL     1      24.220   3.467  20.442  0.00  0.00    +0.085 C 
ATOM     21  C   UNL     1      25.157   6.199  20.170  0.00  0.00    +0.015 C 
ATOM     22  C   UNL     1      25.373   3.798  19.492  0.00  0.00    +0.015 C 
ATOM     23  C   UNL     1      26.126   5.044  19.946  0.00  0.00    +0.002 C 
ENDBRANCH  18   6
ENDBRANCH  17  18
ENDBRANCH  11  14
ENDBRANCH   8  11
TORSDOF 6
ENDMDL
MODEL 5
REMARK VINA RESULT:      -6.1      3.237      8.687
REMARK  Name = 56774237
REMARK  9 active torsions:
REMARK  status: ('A' for Active; 'I' for Inactive)
REMARK    1  A    between atoms: N_3  and  C_9
REMARK    2  A    between atoms: N_5  and  C_24
REMARK    3  A    between atoms: N_6  and  C_18
REMARK    4  A    between atoms: C_7  and  C_12
REMARK    5  A    between atoms: C_7  and  C_13
REMARK    6  A    between atoms: C_8  and  C_11
REMARK    7  A    between atoms: C_11  and  C_14
REMARK    8  A    between atoms: C_17  and  C_18
REMARK    9  A    between atoms: C_24  and  C_25
REMARK                            x       y       z     vdW  Elec       q    Type
REMARK                         _______ _______ _______ _____ _____    ______ ____
ROOT
ATOM      7  C   UNL     1      -4.755  -9.806  10.337  0.00  0.00    -0.013 C 
ATOM      8  C   UNL     1      -4.453 -11.203  10.922  0.00  0.00    +0.004 C 
ATOM      9  C   UNL     1      -5.763 -10.502   9.398  0.00  0.00    +0.081 C 
ATOM     10  C   UNL     1      -4.923 -11.784   9.571  0.00  0.00    +0.027 C 
ATOM     12  C   UNL     1      -3.561  -9.156   9.674  0.00  0.00    +0.013 C 
ATOM     13  C   UNL     1      -5.416  -8.822  11.284  0.00  0.00    +0.013 C 
ENDROOT
BRANCH   9   3
ATOM      2  O   UNL     1      -7.818  -8.878   8.183  0.00  0.00    -0.253 OA
ATOM      3  N   UNL     1      -5.796 -10.002   8.018  0.00  0.00    -0.296 N 
ATOM      5  N   UNL     1      -6.631  -8.876   6.187  0.00  0.00    -0.300 N 
ATOM     15  C   UNL     1      -6.839  -9.218   7.520  0.00  0.00    +0.300 C 
ATOM     26  H   UNL     1      -5.041 -10.227   7.376  0.00  0.00    +0.151 HD
ATOM     27  H   UNL     1      -5.785  -9.196   5.725  0.00  0.00    +0.150 HD
BRANCH   5  24
ATOM     24  C   UNL     1      -7.563  -8.069   5.435  0.00  0.00    +0.102 C 
ATOM     25  C   UNL     1      -7.994  -8.765   4.160  0.00  0.00    +0.024 C 
ENDBRANCH   5  24
ENDBRANCH   9   3
BRANCH   8  11
ATOM     11  C   UNL     1      -2.995 -11.512  11.285  0.00  0.00    +0.063 C 
BRANCH  11  14
ATOM      1  O   UNL     1      -1.721 -10.040  14.279  0.00  0.00    -0.358 OA
ATOM      4  N   UNL     1      -1.744 -10.192  12.898  0.00  0.00    -0.083 NA
ATOM     14  C   UNL     1      -2.693 -11.104  12.666  0.00  0.00    +0.084 A 
ATOM     16  C   UNL     1      -3.296 -11.559  13.852  0.00  0.00    +0.072 A 
ATOM     17  C   UNL     1      -2.650 -10.859  14.836  0.00  0.00    +0.151 A 
BRANCH  17  18
ATOM     18  C   UNL     1      -2.763 -10.826  16.337  0.00  0.00    +0.161 C 
BRANCH  18   6
ATOM      6  N   UNL     1      -4.129 -11.094  16.785  0.00  0.00    -0.295 NA
ATOM     19  C   UNL     1      -4.130 -11.558  18.179  0.00  0.00    +0.085 C 
ATOM     20  C   UNL     1      -4.967  -9.898  16.622  0.00  0.00    +0.085 C 
ATOM     21  C   UNL     1      -5.547 -11.890  18.650  0.00  0.00    +0.015 C 
ATOM     22  C   UNL     1      -6.412 -10.175  17.042  0.00  0.00    +0.015 C 
ATOM     23  C   UNL     1      -6.483 -10.700  18.472  0.00  0.00    +0.002 C 
ENDBRANCH  18   6
ENDBRANCH  17  18
ENDBRANCH  11  14
ENDBRANCH   8  11
TORSDOF 6
ENDMDL
MODEL 6
REMARK VINA RESULT:      -5.7     19.487     22.404
REMARK  Name = 56774237
REMARK  9 active torsions:
REMARK  status: ('A' for Active; 'I' for Inactive)
REMARK    1  A    between atoms: N_3  and  C_9
REMARK    2  A    between atoms: N_5  and  C_24
REMARK    3  A    between atoms: N_6  and  C_18
REMARK    4  A    between atoms: C_7  and  C_12
REMARK    5  A    between atoms: C_7  and  C_13
REMARK    6  A    between atoms: C_8  and  C_11
REMARK    7  A    between atoms: C_11  and  C_14
REMARK    8  A    between atoms: C_17  and  C_18
REMARK    9  A    between atoms: C_24  and  C_25
REMARK                            x       y       z     vdW  Elec       q    Type
REMARK                         _______ _______ _______ _____ _____    ______ ____
ROOT
ATOM      7  C   UNL     1     -17.464   3.960  24.044  0.00  0.00    -0.013 C 
ATOM      8  C   UNL     1     -17.506   2.670  24.890  0.00  0.00    +0.004 C 
ATOM      9  C   UNL     1     -16.134   3.442  23.458  0.00  0.00    +0.081 C 
ATOM     10  C   UNL     1     -15.969   2.625  24.756  0.00  0.00    +0.027 C 
ATOM     12  C   UNL     1     -17.383   5.224  24.871  0.00  0.00    +0.013 C 
ATOM     13  C   UNL     1     -18.553   4.099  22.996  0.00  0.00    +0.013 C 
ENDROOT
BRANCH   9   3
ATOM      2  O   UNL     1     -15.601   4.952  21.055  0.00  0.00    -0.253 OA
ATOM      3  N   UNL     1     -15.088   4.452  23.262  0.00  0.00    -0.296 N 
ATOM      5  N   UNL     1     -13.852   6.037  22.131  0.00  0.00    -0.300 N 
ATOM     15  C   UNL     1     -14.909   5.134  22.056  0.00  0.00    +0.300 C 
ATOM     26  H   UNL     1     -14.450   4.681  24.020  0.00  0.00    +0.151 HD
ATOM     27  H   UNL     1     -13.344   6.125  23.005  0.00  0.00    +0.150 HD
BRANCH   5  24
ATOM     24  C   UNL     1     -13.457   6.869  21.018  0.00  0.00    +0.102 C 
ATOM     25  C   UNL     1     -11.959   6.822  20.796  0.00  0.00    +0.024 C 
ENDBRANCH   5  24
ENDBRANCH   9   3
BRANCH   8  11
ATOM     11  C   UNL     1     -18.025   2.790  26.329  0.00  0.00    +0.063 C 
BRANCH  11  14
ATOM      1  O   UNL     1     -16.098   0.570  28.357  0.00  0.00    -0.358 OA
ATOM      4  N   UNL     1     -17.063   0.826  27.391  0.00  0.00    -0.083 NA
ATOM     14  C   UNL     1     -17.099   2.157  27.282  0.00  0.00    +0.084 A 
ATOM     16  C   UNL     1     -16.188   2.788  28.147  0.00  0.00    +0.072 A 
ATOM     17  C   UNL     1     -15.584   1.746  28.800  0.00  0.00    +0.151 A 
BRANCH  17  18
ATOM     18  C   UNL     1     -14.517   1.657  29.859  0.00  0.00    +0.161 C 
BRANCH  18   6
ATOM      6  N   UNL     1     -14.983   2.176  31.144  0.00  0.00    -0.295 NA
ATOM     19  C   UNL     1     -14.305   1.488  32.252  0.00  0.00    +0.085 C 
ATOM     20  C   UNL     1     -14.778   3.630  31.217  0.00  0.00    +0.085 C 
ATOM     21  C   UNL     1     -14.816   1.984  33.605  0.00  0.00    +0.015 C 
ATOM     22  C   UNL     1     -15.304   4.196  32.537  0.00  0.00    +0.015 C 
ATOM     23  C   UNL     1     -14.669   3.496  33.734  0.00  0.00    +0.002 C 
ENDBRANCH  18   6
ENDBRANCH  17  18
ENDBRANCH  11  14
ENDBRANCH   8  11
TORSDOF 6
ENDMDL
MODEL 7
REMARK VINA RESULT:      -5.7     19.302     20.513
REMARK  Name = 56774237
REMARK  9 active torsions:
REMARK  status: ('A' for Active; 'I' for Inactive)
REMARK    1  A    between atoms: N_3  and  C_9
REMARK    2  A    between atoms: N_5  and  C_24
REMARK    3  A    between atoms: N_6  and  C_18
REMARK    4  A    between atoms: C_7  and  C_12
REMARK    5  A    between atoms: C_7  and  C_13
REMARK    6  A    between atoms: C_8  and  C_11
REMARK    7  A    between atoms: C_11  and  C_14
REMARK    8  A    between atoms: C_17  and  C_18
REMARK    9  A    between atoms: C_24  and  C_25
REMARK                            x       y       z     vdW  Elec       q    Type
REMARK                         _______ _______ _______ _____ _____    ______ ____
ROOT
ATOM      7  C   UNL     1     -15.761   5.640  22.946  0.00  0.00    -0.013 C 
ATOM      8  C   UNL     1     -14.435   6.225  22.413  0.00  0.00    +0.004 C 
ATOM      9  C   UNL     1     -14.905   4.699  23.820  0.00  0.00    +0.081 C 
ATOM     10  C   UNL     1     -13.784   4.873  22.775  0.00  0.00    +0.027 C 
ATOM     12  C   UNL     1     -16.604   4.979  21.878  0.00  0.00    +0.013 C 
ATOM     13  C   UNL     1     -16.618   6.586  23.767  0.00  0.00    +0.013 C 
ENDROOT
BRANCH   9   3
ATOM      2  O   UNL     1     -16.103   3.463  26.138  0.00  0.00    -0.253 OA
ATOM      3  N   UNL     1     -15.393   3.319  23.935  0.00  0.00    -0.296 N 
ATOM      5  N   UNL     1     -16.341   1.480  24.952  0.00  0.00    -0.300 N 
ATOM     15  C   UNL     1     -15.961   2.810  25.105  0.00  0.00    +0.300 C 
ATOM     26  H   UNL     1     -15.321   2.685  23.143  0.00  0.00    +0.151 HD
ATOM     27  H   UNL     1     -16.193   1.027  24.056  0.00  0.00    +0.150 HD
BRANCH   5  24
ATOM     24  C   UNL     1     -16.954   0.718  26.016  0.00  0.00    +0.102 C 
ATOM     25  C   UNL     1     -18.451   0.598  25.819  0.00  0.00    +0.024 C 
ENDBRANCH   5  24
ENDBRANCH   9   3
BRANCH   8  11
ATOM     11  C   UNL     1     -14.378   6.590  20.924  0.00  0.00    +0.063 C 
BRANCH  11  14
ATOM      1  O   UNL     1     -11.048   7.664  20.207  0.00  0.00    -0.358 OA
ATOM      4  N   UNL     1     -11.983   6.684  20.516  0.00  0.00    -0.083 NA
ATOM     14  C   UNL     1     -13.148   7.333  20.607  0.00  0.00    +0.084 A 
ATOM     16  C   UNL     1     -13.009   8.712  20.369  0.00  0.00    +0.072 A 
ATOM     17  C   UNL     1     -11.671   8.867  20.122  0.00  0.00    +0.151 A 
BRANCH  17  18
ATOM     18  C   UNL     1     -10.803  10.053  19.793  0.00  0.00    +0.161 C 
BRANCH  18   6
ATOM      6  N   UNL     1     -11.013  10.517  18.422  0.00  0.00    -0.295 NA
ATOM     19  C   UNL     1     -10.792  11.967  18.332  0.00  0.00    +0.085 C 
ATOM     20  C   UNL     1     -10.139   9.788  17.493  0.00  0.00    +0.085 C 
ATOM     21  C   UNL     1     -11.055  12.479  16.915  0.00  0.00    +0.015 C 
ATOM     22  C   UNL     1     -10.381  10.228  16.047  0.00  0.00    +0.015 C 
ATOM     23  C   UNL     1     -10.207  11.735  15.890  0.00  0.00    +0.002 C 
ENDBRANCH  18   6
ENDBRANCH  17  18
ENDBRANCH  11  14
ENDBRANCH   8  11
TORSDOF 6
ENDMDL
MODEL 8
REMARK VINA RESULT:      -5.7     18.956     20.183
REMARK  Name = 56774237
REMARK  9 active torsions:
REMARK  status: ('A' for Active; 'I' for Inactive)
REMARK    1  A    between atoms: N_3  and  C_9
REMARK    2  A    between atoms: N_5  and  C_24
REMARK    3  A    between atoms: N_6  and  C_18
REMARK    4  A    between atoms: C_7  and  C_12
REMARK    5  A    between atoms: C_7  and  C_13
REMARK    6  A    between atoms: C_8  and  C_11
REMARK    7  A    between atoms: C_11  and  C_14
REMARK    8  A    between atoms: C_17  and  C_18
REMARK    9  A    between atoms: C_24  and  C_25
REMARK                            x       y       z     vdW  Elec       q    Type
REMARK                         _______ _______ _______ _____ _____    ______ ____
ROOT
ATOM      7  C   UNL     1     -15.303   6.259  22.412  0.00  0.00    -0.013 C 
ATOM      8  C   UNL     1     -14.011   6.791  21.756  0.00  0.00    +0.004 C 
ATOM      9  C   UNL     1     -14.405   5.304  23.226  0.00  0.00    +0.081 C 
ATOM     10  C   UNL     1     -13.373   5.424  22.086  0.00  0.00    +0.027 C 
ATOM     12  C   UNL     1     -16.255   5.608  21.432  0.00  0.00    +0.013 C 
ATOM     13  C   UNL     1     -16.057   7.245  23.284  0.00  0.00    +0.013 C 
ENDROOT
BRANCH   9   3
ATOM      2  O   UNL     1     -16.011   4.332  25.421  0.00  0.00    -0.253 OA
ATOM      3  N   UNL     1     -14.924   3.943  23.409  0.00  0.00    -0.296 N 
ATOM      5  N   UNL     1     -16.062   2.226  24.444  0.00  0.00    -0.300 N 
ATOM     15  C   UNL     1     -15.698   3.567  24.510  0.00  0.00    +0.300 C 
ATOM     26  H   UNL     1     -14.721   3.223  22.720  0.00  0.00    +0.151 HD
ATOM     27  H   UNL     1     -15.764   1.674  23.646  0.00  0.00    +0.150 HD
BRANCH   5  24
ATOM     24  C   UNL     1     -16.864   1.586  25.461  0.00  0.00    +0.102 C 
ATOM     25  C   UNL     1     -17.606   0.387  24.908  0.00  0.00    +0.024 C 
ENDBRANCH   5  24
ENDBRANCH   9   3
BRANCH   8  11
ATOM     11  C   UNL     1     -14.070   7.130  20.261  0.00  0.00    +0.063 C 
BRANCH  11  14
ATOM      1  O   UNL     1     -11.611   9.688  19.854  0.00  0.00    -0.358 OA
ATOM      4  N   UNL     1     -12.752   9.163  20.450  0.00  0.00    -0.083 NA
ATOM     14  C   UNL     1     -12.934   7.977  19.863  0.00  0.00    +0.084 A 
ATOM     16  C   UNL     1     -11.949   7.702  18.898  0.00  0.00    +0.072 A 
ATOM     17  C   UNL     1     -11.143   8.809  18.932  0.00  0.00    +0.151 A 
BRANCH  17  18
ATOM     18  C   UNL     1      -9.903   9.217  18.182  0.00  0.00    +0.161 C 
BRANCH  18   6
ATOM      6  N   UNL     1     -10.187   9.507  16.776  0.00  0.00    -0.295 NA
ATOM     19  C   UNL     1     -10.546   8.274  16.061  0.00  0.00    +0.085 C 
ATOM     20  C   UNL     1     -11.251  10.515  16.665  0.00  0.00    +0.085 C 
ATOM     21  C   UNL     1     -10.800   8.551  14.578  0.00  0.00    +0.015 C 
ATOM     22  C   UNL     1     -11.528  10.865  15.201  0.00  0.00    +0.015 C 
ATOM     23  C   UNL     1     -11.869   9.620  14.388  0.00  0.00    +0.002 C 
ENDBRANCH  18   6
ENDBRANCH  17  18
ENDBRANCH  11  14
ENDBRANCH   8  11
TORSDOF 6
ENDMDL
MODEL 9
REMARK VINA RESULT:      -5.6      7.604     12.400
REMARK  Name = 56774237
REMARK  9 active torsions:
REMARK  status: ('A' for Active; 'I' for Inactive)
REMARK    1  A    between atoms: N_3  and  C_9
REMARK    2  A    between atoms: N_5  and  C_24
REMARK    3  A    between atoms: N_6  and  C_18
REMARK    4  A    between atoms: C_7  and  C_12
REMARK    5  A    between atoms: C_7  and  C_13
REMARK    6  A    between atoms: C_8  and  C_11
REMARK    7  A    between atoms: C_11  and  C_14
REMARK    8  A    between atoms: C_17  and  C_18
REMARK    9  A    between atoms: C_24  and  C_25
REMARK                            x       y       z     vdW  Elec       q    Type
REMARK                         _______ _______ _______ _____ _____    ______ ____
ROOT
ATOM      7  C   UNL     1     -10.970  -6.481   8.808  0.00  0.00    -0.013 C 
ATOM      8  C   UNL     1     -10.680  -5.229   9.665  0.00  0.00    +0.004 C 
ATOM      9  C   UNL     1      -9.582  -6.269   8.168  0.00  0.00    +0.081 C 
ATOM     10  C   UNL     1      -9.720  -4.779   8.543  0.00  0.00    +0.027 C 
ATOM     12  C   UNL     1     -12.162  -6.323   7.890  0.00  0.00    +0.013 C 
ATOM     13  C   UNL     1     -11.075  -7.791   9.566  0.00  0.00    +0.013 C 
ENDROOT
BRANCH   9   3
ATOM      2  O   UNL     1      -7.718  -7.984   6.781  0.00  0.00    -0.253 OA
ATOM      3  N   UNL     1      -9.506  -6.507   6.722  0.00  0.00    -0.296 N 
ATOM      5  N   UNL     1      -8.703  -7.411   4.758  0.00  0.00    -0.300 N 
ATOM     15  C   UNL     1      -8.563  -7.360   6.142  0.00  0.00    +0.300 C 
ATOM     26  H   UNL     1     -10.152  -6.038   6.093  0.00  0.00    +0.151 HD
ATOM     27  H   UNL     1      -9.439  -6.867   4.319  0.00  0.00    +0.150 HD
BRANCH   5  24
ATOM     24  C   UNL     1      -7.850  -8.220   3.918  0.00  0.00    +0.102 C 
ATOM     25  C   UNL     1      -7.876  -7.743   2.481  0.00  0.00    +0.024 C 
ENDBRANCH   5  24
ENDBRANCH   9   3
BRANCH   8  11
ATOM     11  C   UNL     1     -11.851  -4.275   9.932  0.00  0.00    +0.063 C 
BRANCH  11  14
ATOM      1  O   UNL     1     -12.828  -3.672  13.314  0.00  0.00    -0.358 OA
ATOM      4  N   UNL     1     -12.389  -3.244  12.067  0.00  0.00    -0.083 NA
ATOM     14  C   UNL     1     -12.294  -4.357  11.334  0.00  0.00    +0.084 A 
ATOM     16  C   UNL     1     -12.655  -5.506  12.059  0.00  0.00    +0.072 A 
ATOM     17  C   UNL     1     -12.983  -5.021  13.296  0.00  0.00    +0.151 A 
BRANCH  17  18
ATOM     18  C   UNL     1     -13.456  -5.660  14.575  0.00  0.00    +0.161 C 
BRANCH  18   6
ATOM      6  N   UNL     1     -12.500  -6.648  15.074  0.00  0.00    -0.295 NA
ATOM     19  C   UNL     1     -11.302  -5.981  15.603  0.00  0.00    +0.085 C 
ATOM     20  C   UNL     1     -13.128  -7.500  16.094  0.00  0.00    +0.085 C 
ATOM     21  C   UNL     1     -10.270  -7.002  16.086  0.00  0.00    +0.015 C 
ATOM     22  C   UNL     1     -12.155  -8.571  16.593  0.00  0.00    +0.015 C 
ATOM     23  C   UNL     1     -10.867  -7.948  17.121  0.00  0.00    +0.002 C 
ENDBRANCH  18   6
ENDBRANCH  17  18
ENDBRANCH  11  14
ENDBRANCH   8  11
TORSDOF 6
ENDMDL
MODEL 10
REMARK VINA RESULT:      -5.6     19.831     22.252
REMARK  Name = 56774237
REMARK  9 active torsions:
REMARK  status: ('A' for Active; 'I' for Inactive)
REMARK    1  A    between atoms: N_3  and  C_9
REMARK    2  A    between atoms: N_5  and  C_24
REMARK    3  A    between atoms: N_6  and  C_18
REMARK    4  A    between atoms: C_7  and  C_12
REMARK    5  A    between atoms: C_7  and  C_13
REMARK    6  A    between atoms: C_8  and  C_11
REMARK    7  A    between atoms: C_11  and  C_14
REMARK    8  A    between atoms: C_17  and  C_18
REMARK    9  A    between atoms: C_24  and  C_25
REMARK                            x       y       z     vdW  Elec       q    Type
REMARK                         _______ _______ _______ _____ _____    ______ ____
ROOT
ATOM      7  C   UNL     1     -13.204   7.618  21.054  0.00  0.00    -0.013 C 
ATOM      8  C   UNL     1     -14.347   6.874  21.778  0.00  0.00    +0.004 C 
ATOM      9  C   UNL     1     -14.175   7.795  19.868  0.00  0.00    +0.081 C 
ATOM     10  C   UNL     1     -14.911   6.540  20.381  0.00  0.00    +0.027 C 
ATOM     12  C   UNL     1     -11.987   6.756  20.799  0.00  0.00    +0.013 C 
ATOM     13  C   UNL     1     -12.780   8.938  21.670  0.00  0.00    +0.013 C 
ENDROOT
BRANCH   9   3
ATOM      2  O   UNL     1     -13.178   9.877  18.132  0.00  0.00    -0.253 OA
ATOM      3  N   UNL     1     -13.586   7.629  18.534  0.00  0.00    -0.296 N 
ATOM      5  N   UNL     1     -12.618   8.277  16.544  0.00  0.00    -0.300 N 
ATOM     15  C   UNL     1     -13.129   8.703  17.766  0.00  0.00    +0.300 C 
ATOM     26  H   UNL     1     -13.501   6.701  18.126  0.00  0.00    +0.151 HD
ATOM     27  H   UNL     1     -12.610   7.284  16.334  0.00  0.00    +0.150 HD
BRANCH   5  24
ATOM     24  C   UNL     1     -12.081   9.192  15.563  0.00  0.00    +0.102 C 
ATOM     25  C   UNL     1     -10.598   9.418  15.771  0.00  0.00    +0.024 C 
ENDBRANCH   5  24
ENDBRANCH   9   3
BRANCH   8  11
ATOM     11  C   UNL     1     -13.964   5.654  22.627  0.00  0.00    +0.063 C 
BRANCH  11  14
ATOM      1  O   UNL     1     -16.942   5.413  24.583  0.00  0.00    -0.358 OA
ATOM      4  N   UNL     1     -16.092   6.090  23.717  0.00  0.00    -0.083 NA
ATOM     14  C   UNL     1     -15.069   5.255  23.512  0.00  0.00    +0.084 A 
ATOM     16  C   UNL     1     -15.218   4.048  24.217  0.00  0.00    +0.072 A 
ATOM     17  C   UNL     1     -16.411   4.198  24.873  0.00  0.00    +0.151 A 
BRANCH  17  18
ATOM     18  C   UNL     1     -17.204   3.322  25.806  0.00  0.00    +0.161 C 
BRANCH  18   6
ATOM      6  N   UNL     1     -16.397   2.857  26.933  0.00  0.00    -0.295 NA
ATOM     19  C   UNL     1     -16.350   3.880  27.987  0.00  0.00    +0.085 C 
ATOM     20  C   UNL     1     -16.921   1.585  27.450  0.00  0.00    +0.085 C 
ATOM     21  C   UNL     1     -15.469   3.430  29.154  0.00  0.00    +0.015 C 
ATOM     22  C   UNL     1     -16.058   1.059  28.600  0.00  0.00    +0.015 C 
ATOM     23  C   UNL     1     -15.934   2.091  29.716  0.00  0.00    +0.002 C 
ENDBRANCH  18   6
ENDBRANCH  17  18
ENDBRANCH  11  14
ENDBRANCH   8  11
TORSDOF 6
ENDMDL
