MODEL 1
REMARK VINA RESULT:      -8.2      0.000      0.000
REMARK  Name = 7682251
REMARK  3 active torsions:
REMARK  status: ('A' for Active; 'I' for Inactive)
REMARK    1  A    between atoms: N_4  and  C_13
REMARK    2  A    between atoms: C_13  and  C_17
REMARK    3  A    between atoms: C_14  and  C_19
REMARK                            x       y       z     vdW  Elec       q    Type
REMARK                         _______ _______ _______ _____ _____    ______ ____
ROOT
ATOM      3  O   UNL     1      11.698   6.307  20.093  0.00  0.00    -0.268 OA
ATOM      4  N   UNL     1      15.203   9.748  20.900  0.00  0.00    -0.294 NA
ATOM      5  N   UNL     1      12.321   8.557  20.279  0.00  0.00    -0.311 N 
ATOM      6  C   UNL     1      14.040   9.610  18.690  0.00  0.00    +0.024 C 
ATOM      7  C   UNL     1      13.050  10.954  20.479  0.00  0.00    +0.051 C 
ATOM      8  C   UNL     1      13.286  10.899  18.972  0.00  0.00    +0.017 C 
ATOM      9  C   UNL     1      15.381   9.595  19.451  0.00  0.00    +0.090 C 
ATOM     10  C   UNL     1      14.413  10.947  21.214  0.00  0.00    +0.094 C 
ATOM     11  C   UNL     1      13.141   8.430  19.066  0.00  0.00    +0.130 C 
ATOM     12  C   UNL     1      12.170   9.789  20.951  0.00  0.00    +0.034 A 
ATOM     14  C   UNL     1      11.287   9.894  21.979  0.00  0.00    +0.009 A 
ATOM     15  C   UNL     1      11.613   7.402  20.653  0.00  0.00    +0.252 A 
ATOM     16  C   UNL     1      10.543   8.719  22.394  0.00  0.00    +0.016 A 
ATOM     18  C   UNL     1      10.687   7.535  21.799  0.00  0.00    +0.071 A 
ENDROOT
BRANCH  14  19
ATOM      1  S   UNL     1      11.173  11.189  24.372  0.00  0.00    -0.097 S 
ATOM     19  C   UNL     1      11.098  11.146  22.662  0.00  0.00    +0.021 A 
ATOM     21  C   UNL     1      10.853  12.389  22.124  0.00  0.00    +0.016 A 
ATOM     24  C   UNL     1      10.725  13.391  23.129  0.00  0.00    +0.008 A 
ATOM     25  C   UNL     1      10.876  12.874  24.397  0.00  0.00    +0.046 A 
ENDBRANCH  14  19
BRANCH   4  13
ATOM     13  C   UNL     1      16.492   9.777  21.586  0.00  0.00    +0.158 C 
BRANCH  13  17
ATOM      2  O   UNL     1      18.615   8.657  21.665  0.00  0.00    -0.458 OA
ATOM     17  C   UNL     1      17.343   8.591  21.234  0.00  0.00    +0.120 A 
ATOM     20  C   UNL     1      17.073   7.451  20.555  0.00  0.00    +0.054 A 
ATOM     22  C   UNL     1      18.289   6.718  20.553  0.00  0.00    +0.020 A 
ATOM     23  C   UNL     1      19.204   7.501  21.247  0.00  0.00    +0.135 A 
ATOM     26  C   UNL     1      18.716   5.479  20.042  0.00  0.00    +0.011 A 
ATOM     27  C   UNL     1      20.531   7.139  21.472  0.00  0.00    +0.047 A 
ATOM     28  C   UNL     1      20.045   5.087  20.252  0.00  0.00    +0.001 A 
ATOM     29  C   UNL     1      20.935   5.904  20.954  0.00  0.00    +0.004 A 
ENDBRANCH  13  17
ENDBRANCH   4  13
TORSDOF 3
ENDMDL
MODEL 2
REMARK VINA RESULT:      -7.5     15.453     17.772
REMARK  Name = 7682251
REMARK  3 active torsions:
REMARK  status: ('A' for Active; 'I' for Inactive)
REMARK    1  A    between atoms: N_4  and  C_13
REMARK    2  A    between atoms: C_13  and  C_17
REMARK    3  A    between atoms: C_14  and  C_19
REMARK                            x       y       z     vdW  Elec       q    Type
REMARK                         _______ _______ _______ _____ _____    ______ ____
ROOT
ATOM      3  O   UNL     1       7.258   9.149   4.181  0.00  0.00    -0.268 OA
ATOM      4  N   UNL     1      11.349   7.768   6.656  0.00  0.00    -0.294 NA
ATOM      5  N   UNL     1       8.805   7.492   4.771  0.00  0.00    -0.311 N 
ATOM      6  C   UNL     1       9.127   6.764   7.211  0.00  0.00    +0.024 C 
ATOM      7  C   UNL     1      10.488   5.753   5.446  0.00  0.00    +0.051 C 
ATOM      8  C   UNL     1       9.541   5.436   6.601  0.00  0.00    +0.017 C 
ATOM      9  C   UNL     1      10.365   7.531   7.718  0.00  0.00    +0.090 C 
ATOM     10  C   UNL     1      11.723   6.514   5.989  0.00  0.00    +0.094 C 
ATOM     11  C   UNL     1       8.340   7.554   6.164  0.00  0.00    +0.130 C 
ATOM     12  C   UNL     1       9.784   6.566   4.353  0.00  0.00    +0.034 A 
ATOM     14  C   UNL     1      10.077   6.443   3.031  0.00  0.00    +0.009 A 
ATOM     15  C   UNL     1       8.129   8.334   3.871  0.00  0.00    +0.252 A 
ATOM     16  C   UNL     1       9.401   7.301   2.075  0.00  0.00    +0.016 A 
ATOM     18  C   UNL     1       8.493   8.205   2.443  0.00  0.00    +0.071 A 
ENDROOT
BRANCH  14  19
ATOM      1  S   UNL     1      12.650   6.013   2.252  0.00  0.00    -0.097 S 
ATOM     19  C   UNL     1      11.053   5.489   2.580  0.00  0.00    +0.021 A 
ATOM     21  C   UNL     1      10.896   4.139   2.356  0.00  0.00    +0.016 A 
ATOM     24  C   UNL     1      12.103   3.526   1.911  0.00  0.00    +0.008 A 
ATOM     25  C   UNL     1      13.136   4.432   1.810  0.00  0.00    +0.046 A 
ENDBRANCH  14  19
BRANCH   4  13
ATOM     13  C   UNL     1      12.529   8.454   7.178  0.00  0.00    +0.158 C 
BRANCH  13  17
ATOM      2  O   UNL     1      13.427   9.073   5.039  0.00  0.00    -0.458 OA
ATOM     17  C   UNL     1      13.667   8.439   6.200  0.00  0.00    +0.120 A 
ATOM     20  C   UNL     1      14.908   7.900   6.261  0.00  0.00    +0.054 A 
ATOM     22  C   UNL     1      15.520   8.223   5.021  0.00  0.00    +0.020 A 
ATOM     23  C   UNL     1      14.569   8.943   4.306  0.00  0.00    +0.135 A 
ATOM     26  C   UNL     1      16.771   7.985   4.425  0.00  0.00    +0.011 A 
ATOM     27  C   UNL     1      14.774   9.451   3.024  0.00  0.00    +0.047 A 
ATOM     28  C   UNL     1      17.007   8.482   3.135  0.00  0.00    +0.001 A 
ATOM     29  C   UNL     1      16.024   9.202   2.450  0.00  0.00    +0.004 A 
ENDBRANCH  13  17
ENDBRANCH   4  13
TORSDOF 3
ENDMDL
MODEL 3
REMARK VINA RESULT:      -7.5      4.065      6.464
REMARK  Name = 7682251
REMARK  3 active torsions:
REMARK  status: ('A' for Active; 'I' for Inactive)
REMARK    1  A    between atoms: N_4  and  C_13
REMARK    2  A    between atoms: C_13  and  C_17
REMARK    3  A    between atoms: C_14  and  C_19
REMARK                            x       y       z     vdW  Elec       q    Type
REMARK                         _______ _______ _______ _____ _____    ______ ____
ROOT
ATOM      3  O   UNL     1      16.168   5.831  19.001  0.00  0.00    -0.268 OA
ATOM      4  N   UNL     1      14.508  10.317  17.626  0.00  0.00    -0.294 NA
ATOM      5  N   UNL     1      14.466   7.440  18.978  0.00  0.00    -0.311 N 
ATOM      6  C   UNL     1      13.404   8.238  16.782  0.00  0.00    +0.024 C 
ATOM      7  C   UNL     1      12.673   9.199  18.910  0.00  0.00    +0.051 C 
ATOM      8  C   UNL     1      12.181   8.501  17.645  0.00  0.00    +0.017 C 
ATOM      9  C   UNL     1      14.109   9.565  16.432  0.00  0.00    +0.090 C 
ATOM     10  C   UNL     1      13.367  10.530  18.527  0.00  0.00    +0.094 C 
ATOM     11  C   UNL     1      14.323   7.267  17.525  0.00  0.00    +0.130 C 
ATOM     12  C   UNL     1      13.623   8.301  19.712  0.00  0.00    +0.034 A 
ATOM     14  C   UNL     1      13.693   8.318  21.070  0.00  0.00    +0.009 A 
ATOM     15  C   UNL     1      15.418   6.609  19.593  0.00  0.00    +0.252 A 
ATOM     16  C   UNL     1      14.668   7.476  21.738  0.00  0.00    +0.016 A 
ATOM     18  C   UNL     1      15.498   6.675  21.069  0.00  0.00    +0.071 A 
ENDROOT
BRANCH  14  19
ATOM      1  S   UNL     1      11.280   8.597  22.300  0.00  0.00    -0.097 S 
ATOM     19  C   UNL     1      12.826   9.169  21.840  0.00  0.00    +0.021 A 
ATOM     21  C   UNL     1      13.060  10.449  22.292  0.00  0.00    +0.016 A 
ATOM     24  C   UNL     1      11.954  10.967  23.027  0.00  0.00    +0.008 A 
ATOM     25  C   UNL     1      10.918  10.063  23.107  0.00  0.00    +0.046 A 
ENDBRANCH  14  19
BRANCH   4  13
ATOM     13  C   UNL     1      15.130  11.588  17.261  0.00  0.00    +0.158 C 
BRANCH  13  17
ATOM      2  O   UNL     1      13.954  12.317  15.299  0.00  0.00    -0.458 OA
ATOM     17  C   UNL     1      15.107  11.820  15.778  0.00  0.00    +0.120 A 
ATOM     20  C   UNL     1      16.038  11.621  14.815  0.00  0.00    +0.054 A 
ATOM     22  C   UNL     1      15.420  12.032  13.605  0.00  0.00    +0.020 A 
ATOM     23  C   UNL     1      14.142  12.451  13.956  0.00  0.00    +0.135 A 
ATOM     26  C   UNL     1      15.800  12.097  12.252  0.00  0.00    +0.011 A 
ATOM     27  C   UNL     1      13.200  12.936  13.049  0.00  0.00    +0.047 A 
ATOM     28  C   UNL     1      14.875  12.578  11.316  0.00  0.00    +0.001 A 
ATOM     29  C   UNL     1      13.599  12.989  11.709  0.00  0.00    +0.004 A 
ENDBRANCH  13  17
ENDBRANCH   4  13
TORSDOF 3
ENDMDL
MODEL 4
REMARK VINA RESULT:      -7.5     15.852     18.024
REMARK  Name = 7682251
REMARK  3 active torsions:
REMARK  status: ('A' for Active; 'I' for Inactive)
REMARK    1  A    between atoms: N_4  and  C_13
REMARK    2  A    between atoms: C_13  and  C_17
REMARK    3  A    between atoms: C_14  and  C_19
REMARK                            x       y       z     vdW  Elec       q    Type
REMARK                         _______ _______ _______ _____ _____    ______ ____
ROOT
ATOM      3  O   UNL     1      12.921   9.650   6.503  0.00  0.00    -0.268 OA
ATOM      4  N   UNL     1       9.845   5.899   5.390  0.00  0.00    -0.294 NA
ATOM      5  N   UNL     1      10.745   8.802   6.322  0.00  0.00    -0.311 N 
ATOM      6  C   UNL     1       9.966   6.796   7.721  0.00  0.00    +0.024 C 
ATOM      7  C   UNL     1       8.435   7.835   6.120  0.00  0.00    +0.051 C 
ATOM      8  C   UNL     1       8.591   7.427   7.582  0.00  0.00    +0.017 C 
ATOM      9  C   UNL     1      10.089   5.567   6.798  0.00  0.00    +0.090 C 
ATOM     10  C   UNL     1       8.553   6.579   5.221  0.00  0.00    +0.094 C 
ATOM     11  C   UNL     1      11.021   7.862   7.418  0.00  0.00    +0.130 C 
ATOM     12  C   UNL     1       9.472   8.891   5.719  0.00  0.00    +0.034 A 
ATOM     14  C   UNL     1       9.221   9.874   4.814  0.00  0.00    +0.009 A 
ATOM     15  C   UNL     1      11.797   9.676   5.998  0.00  0.00    +0.252 A 
ATOM     16  C   UNL     1      10.287  10.791   4.453  0.00  0.00    +0.016 A 
ATOM     18  C   UNL     1      11.507  10.712   4.982  0.00  0.00    +0.071 A 
ENDROOT
BRANCH  14  19
ATOM      1  S   UNL     1       7.659   9.335   2.650  0.00  0.00    -0.097 S 
ATOM     19  C   UNL     1       7.924   9.999   4.206  0.00  0.00    +0.021 A 
ATOM     21  C   UNL     1       6.795  10.606   4.709  0.00  0.00    +0.016 A 
ATOM     24  C   UNL     1       5.696  10.524   3.805  0.00  0.00    +0.008 A 
ATOM     25  C   UNL     1       6.028   9.859   2.646  0.00  0.00    +0.046 A 
ENDBRANCH  14  19
BRANCH   4  13
ATOM     13  C   UNL     1       9.922   4.707   4.549  0.00  0.00    +0.158 C 
BRANCH  13  17
ATOM      2  O   UNL     1      11.363   3.670   2.932  0.00  0.00    -0.458 OA
ATOM     17  C   UNL     1      10.983   4.831   3.494  0.00  0.00    +0.120 A 
ATOM     20  C   UNL     1      11.641   5.903   2.991  0.00  0.00    +0.054 A 
ATOM     22  C   UNL     1      12.525   5.376   2.014  0.00  0.00    +0.020 A 
ATOM     23  C   UNL     1      12.316   4.001   2.015  0.00  0.00    +0.135 A 
ATOM     26  C   UNL     1      13.478   5.909   1.128  0.00  0.00    +0.011 A 
ATOM     27  C   UNL     1      12.995   3.106   1.190  0.00  0.00    +0.047 A 
ATOM     28  C   UNL     1      14.178   5.034   0.286  0.00  0.00    +0.001 A 
ATOM     29  C   UNL     1      13.939   3.658   0.319  0.00  0.00    +0.004 A 
ENDBRANCH  13  17
ENDBRANCH   4  13
TORSDOF 3
ENDMDL
MODEL 5
REMARK VINA RESULT:      -7.5      2.862      4.235
REMARK  Name = 7682251
REMARK  3 active torsions:
REMARK  status: ('A' for Active; 'I' for Inactive)
REMARK    1  A    between atoms: N_4  and  C_13
REMARK    2  A    between atoms: C_13  and  C_17
REMARK    3  A    between atoms: C_14  and  C_19
REMARK                            x       y       z     vdW  Elec       q    Type
REMARK                         _______ _______ _______ _____ _____    ______ ____
ROOT
ATOM      3  O   UNL     1      16.169   6.146  18.852  0.00  0.00    -0.268 OA
ATOM      4  N   UNL     1      14.437  10.700  17.833  0.00  0.00    -0.294 NA
ATOM      5  N   UNL     1      14.422   7.705  18.900  0.00  0.00    -0.311 N 
ATOM      6  C   UNL     1      13.437   8.684  16.741  0.00  0.00    +0.024 C 
ATOM      7  C   UNL     1      12.581   9.415  18.914  0.00  0.00    +0.051 C 
ATOM      8  C   UNL     1      12.169   8.829  17.566  0.00  0.00    +0.017 C 
ATOM      9  C   UNL     1      14.116  10.056  16.554  0.00  0.00    +0.090 C 
ATOM     10  C   UNL     1      13.250  10.794  18.694  0.00  0.00    +0.094 C 
ATOM     11  C   UNL     1      14.351   7.670  17.432  0.00  0.00    +0.130 C 
ATOM     12  C   UNL     1      13.520   8.468  19.672  0.00  0.00    +0.034 A 
ATOM     14  C   UNL     1      13.527   8.355  21.027  0.00  0.00    +0.009 A 
ATOM     15  C   UNL     1      15.370   6.843  19.479  0.00  0.00    +0.252 A 
ATOM     16  C   UNL     1      14.497   7.478  21.657  0.00  0.00    +0.016 A 
ATOM     18  C   UNL     1      15.381   6.768  20.956  0.00  0.00    +0.071 A 
ENDROOT
BRANCH  14  19
ATOM      1  S   UNL     1      13.088  10.606  22.495  0.00  0.00    -0.097 S 
ATOM     19  C   UNL     1      12.601   9.105  21.832  0.00  0.00    +0.021 A 
ATOM     21  C   UNL     1      11.306   8.784  22.173  0.00  0.00    +0.016 A 
ATOM     24  C   UNL     1      10.705   9.786  22.990  0.00  0.00    +0.008 A 
ATOM     25  C   UNL     1      11.565  10.833  23.242  0.00  0.00    +0.046 A 
ENDBRANCH  14  19
BRANCH   4  13
ATOM     13  C   UNL     1      15.036  12.015  17.622  0.00  0.00    +0.158 C 
BRANCH  13  17
ATOM      2  O   UNL     1      16.474  11.445  19.458  0.00  0.00    -0.458 OA
ATOM     17  C   UNL     1      16.359  12.150  18.319  0.00  0.00    +0.120 A 
ATOM     20  C   UNL     1      17.475  12.855  18.018  0.00  0.00    +0.054 A 
ATOM     22  C   UNL     1      18.391  12.572  19.065  0.00  0.00    +0.020 A 
ATOM     23  C   UNL     1      17.729  11.702  19.924  0.00  0.00    +0.135 A 
ATOM     26  C   UNL     1      19.707  12.956  19.380  0.00  0.00    +0.011 A 
ATOM     27  C   UNL     1      18.286  11.179  21.090  0.00  0.00    +0.047 A 
ATOM     28  C   UNL     1      20.295  12.447  20.547  0.00  0.00    +0.001 A 
ATOM     29  C   UNL     1      19.595  11.575  21.385  0.00  0.00    +0.004 A 
ENDBRANCH  13  17
ENDBRANCH   4  13
TORSDOF 3
ENDMDL
MODEL 6
REMARK VINA RESULT:      -7.3     15.433     17.484
REMARK  Name = 7682251
REMARK  3 active torsions:
REMARK  status: ('A' for Active; 'I' for Inactive)
REMARK    1  A    between atoms: N_4  and  C_13
REMARK    2  A    between atoms: C_13  and  C_17
REMARK    3  A    between atoms: C_14  and  C_19
REMARK                            x       y       z     vdW  Elec       q    Type
REMARK                         _______ _______ _______ _____ _____    ______ ____
ROOT
ATOM      3  O   UNL     1       8.719  10.151   3.301  0.00  0.00    -0.268 OA
ATOM      4  N   UNL     1      13.002   8.198   4.916  0.00  0.00    -0.294 NA
ATOM      5  N   UNL     1      10.014   9.276   5.045  0.00  0.00    -0.311 N 
ATOM      6  C   UNL     1      12.199  10.400   5.788  0.00  0.00    +0.024 C 
ATOM      7  C   UNL     1      11.454   8.340   6.878  0.00  0.00    +0.051 C 
ATOM      8  C   UNL     1      11.879   9.782   7.139  0.00  0.00    +0.017 C 
ATOM      9  C   UNL     1      13.332   9.617   5.094  0.00  0.00    +0.090 C 
ATOM     10  C   UNL     1      12.614   7.578   6.191  0.00  0.00    +0.094 C 
ATOM     11  C   UNL     1      10.916  10.433   4.955  0.00  0.00    +0.130 C 
ATOM     12  C   UNL     1      10.180   8.276   6.026  0.00  0.00    +0.034 A 
ATOM     14  C   UNL     1       9.239   7.305   6.168  0.00  0.00    +0.009 A 
ATOM     15  C   UNL     1       8.918   9.296   4.165  0.00  0.00    +0.252 A 
ATOM     16  C   UNL     1       8.097   7.293   5.272  0.00  0.00    +0.016 A 
ATOM     18  C   UNL     1       7.928   8.206   4.316  0.00  0.00    +0.071 A 
ENDROOT
BRANCH  14  19
ATOM      1  S   UNL     1       9.943   4.737   6.736  0.00  0.00    -0.097 S 
ATOM     19  C   UNL     1       9.376   6.290   7.178  0.00  0.00    +0.021 A 
ATOM     21  C   UNL     1       9.104   6.378   8.525  0.00  0.00    +0.016 A 
ATOM     24  C   UNL     1       9.367   5.153   9.204  0.00  0.00    +0.008 A 
ATOM     25  C   UNL     1       9.828   4.176   8.349  0.00  0.00    +0.046 A 
ENDBRANCH  14  19
BRANCH   4  13
ATOM     13  C   UNL     1      14.112   7.476   4.300  0.00  0.00    +0.158 C 
BRANCH  13  17
ATOM      2  O   UNL     1      14.629   5.957   2.513  0.00  0.00    -0.458 OA
ATOM     17  C   UNL     1      13.646   6.553   3.210  0.00  0.00    +0.120 A 
ATOM     20  C   UNL     1      12.409   6.202   2.787  0.00  0.00    +0.054 A 
ATOM     22  C   UNL     1      12.622   5.292   1.718  0.00  0.00    +0.020 A 
ATOM     23  C   UNL     1      14.001   5.175   1.589  0.00  0.00    +0.135 A 
ATOM     26  C   UNL     1      11.801   4.556   0.845  0.00  0.00    +0.011 A 
ATOM     27  C   UNL     1      14.633   4.369   0.644  0.00  0.00    +0.047 A 
ATOM     28  C   UNL     1      12.407   3.736  -0.117  0.00  0.00    +0.001 A 
ATOM     29  C   UNL     1      13.798   3.646  -0.214  0.00  0.00    +0.004 A 
ENDBRANCH  13  17
ENDBRANCH   4  13
TORSDOF 3
ENDMDL
MODEL 7
REMARK VINA RESULT:      -7.3     26.317     29.710
REMARK  Name = 7682251
REMARK  3 active torsions:
REMARK  status: ('A' for Active; 'I' for Inactive)
REMARK    1  A    between atoms: N_4  and  C_13
REMARK    2  A    between atoms: C_13  and  C_17
REMARK    3  A    between atoms: C_14  and  C_19
REMARK                            x       y       z     vdW  Elec       q    Type
REMARK                         _______ _______ _______ _____ _____    ______ ____
ROOT
ATOM      3  O   UNL     1      -7.016 -15.040  16.484  0.00  0.00    -0.268 OA
ATOM      4  N   UNL     1      -7.481 -10.356  14.865  0.00  0.00    -0.294 NA
ATOM      5  N   UNL     1      -6.270 -12.820  16.469  0.00  0.00    -0.311 N 
ATOM      6  C   UNL     1      -7.759 -10.898  17.291  0.00  0.00    +0.024 C 
ATOM      7  C   UNL     1      -5.522 -10.422  16.422  0.00  0.00    +0.051 C 
ATOM      8  C   UNL     1      -6.441 -10.221  17.624  0.00  0.00    +0.017 C 
ATOM      9  C   UNL     1      -8.378 -10.274  16.024  0.00  0.00    +0.090 C 
ATOM     10  C   UNL     1      -6.166  -9.777  15.170  0.00  0.00    +0.094 C 
ATOM     11  C   UNL     1      -7.508 -12.400  17.140  0.00  0.00    +0.130 C 
ATOM     12  C   UNL     1      -5.232 -11.908  16.181  0.00  0.00    +0.034 A 
ATOM     14  C   UNL     1      -4.046 -12.365  15.696  0.00  0.00    +0.009 A 
ATOM     15  C   UNL     1      -6.147 -14.201  16.240  0.00  0.00    +0.252 A 
ATOM     16  C   UNL     1      -3.888 -13.785  15.443  0.00  0.00    +0.016 A 
ATOM     18  C   UNL     1      -4.860 -14.666  15.676  0.00  0.00    +0.071 A 
ENDROOT
BRANCH  14  19
ATOM      1  S   UNL     1      -2.738 -10.886  13.822  0.00  0.00    -0.097 S 
ATOM     19  C   UNL     1      -2.966 -11.457  15.420  0.00  0.00    +0.021 A 
ATOM     21  C   UNL     1      -2.031 -10.945  16.291  0.00  0.00    +0.016 A 
ATOM     24  C   UNL     1      -1.114 -10.071  15.638  0.00  0.00    +0.008 A 
ATOM     25  C   UNL     1      -1.384  -9.949  14.293  0.00  0.00    +0.046 A 
ENDBRANCH  14  19
BRANCH   4  13
ATOM     13  C   UNL     1      -8.076  -9.716  13.695  0.00  0.00    +0.158 C 
BRANCH  13  17
ATOM      2  O   UNL     1      -6.508  -8.763  12.147  0.00  0.00    -0.458 OA
ATOM     17  C   UNL     1      -7.212  -9.860  12.475  0.00  0.00    +0.120 A 
ATOM     20  C   UNL     1      -7.003 -10.896  11.629  0.00  0.00    +0.054 A 
ATOM     22  C   UNL     1      -6.075 -10.415  10.669  0.00  0.00    +0.020 A 
ATOM     23  C   UNL     1      -5.802  -9.100  11.031  0.00  0.00    +0.135 A 
ATOM     26  C   UNL     1      -5.435 -10.945   9.534  0.00  0.00    +0.011 A 
ATOM     27  C   UNL     1      -4.928  -8.263  10.338  0.00  0.00    +0.047 A 
ATOM     28  C   UNL     1      -4.552 -10.128   8.816  0.00  0.00    +0.001 A 
ATOM     29  C   UNL     1      -4.305  -8.811   9.213  0.00  0.00    +0.004 A 
ENDBRANCH  13  17
ENDBRANCH   4  13
TORSDOF 3
ENDMDL
MODEL 8
REMARK VINA RESULT:      -7.2     27.897     30.140
REMARK  Name = 7682251
REMARK  3 active torsions:
REMARK  status: ('A' for Active; 'I' for Inactive)
REMARK    1  A    between atoms: N_4  and  C_13
REMARK    2  A    between atoms: C_13  and  C_17
REMARK    3  A    between atoms: C_14  and  C_19
REMARK                            x       y       z     vdW  Elec       q    Type
REMARK                         _______ _______ _______ _____ _____    ______ ____
ROOT
ATOM      3  O   UNL     1      -7.947  -8.869  17.389  0.00  0.00    -0.268 OA
ATOM      4  N   UNL     1      -4.070 -11.580  15.842  0.00  0.00    -0.294 NA
ATOM      5  N   UNL     1      -6.803 -10.912  17.322  0.00  0.00    -0.311 N 
ATOM      6  C   UNL     1      -4.435 -11.156  18.280  0.00  0.00    +0.024 C 
ATOM      7  C   UNL     1      -5.527 -13.074  17.224  0.00  0.00    +0.051 C 
ATOM      8  C   UNL     1      -4.838 -12.604  18.502  0.00  0.00    +0.017 C 
ATOM      9  C   UNL     1      -3.480 -11.044  17.074  0.00  0.00    +0.090 C 
ATOM     10  C   UNL     1      -4.542 -12.958  16.036  0.00  0.00    +0.094 C 
ATOM     11  C   UNL     1      -5.705 -10.322  18.099  0.00  0.00    +0.130 C 
ATOM     12  C   UNL     1      -6.807 -12.274  16.952  0.00  0.00    +0.034 A 
ATOM     14  C   UNL     1      -7.909 -12.812  16.364  0.00  0.00    +0.009 A 
ATOM     15  C   UNL     1      -7.894 -10.060  17.075  0.00  0.00    +0.252 A 
ATOM     16  C   UNL     1      -9.050 -11.958  16.090  0.00  0.00    +0.016 A 
ATOM     18  C   UNL     1      -9.065 -10.662  16.400  0.00  0.00    +0.071 A 
ENDROOT
BRANCH  14  19
ATOM      1  S   UNL     1      -8.499 -15.354  17.140  0.00  0.00    -0.097 S 
ATOM     19  C   UNL     1      -7.944 -14.202  16.001  0.00  0.00    +0.021 A 
ATOM     21  C   UNL     1      -7.578 -14.788  14.810  0.00  0.00    +0.016 A 
ATOM     24  C   UNL     1      -7.757 -16.201  14.831  0.00  0.00    +0.008 A 
ATOM     25  C   UNL     1      -8.252 -16.642  16.039  0.00  0.00    +0.046 A 
ENDBRANCH  14  19
BRANCH   4  13
ATOM     13  C   UNL     1      -3.126 -11.502  14.731  0.00  0.00    +0.158 C 
BRANCH  13  17
ATOM      2  O   UNL     1      -2.852 -10.577  12.532  0.00  0.00    -0.458 OA
ATOM     17  C   UNL     1      -3.707 -10.783  13.548  0.00  0.00    +0.120 A 
ATOM     20  C   UNL     1      -4.946 -10.293  13.304  0.00  0.00    +0.054 A 
ATOM     22  C   UNL     1      -4.875  -9.721  12.006  0.00  0.00    +0.020 A 
ATOM     23  C   UNL     1      -3.568  -9.921  11.575  0.00  0.00    +0.135 A 
ATOM     26  C   UNL     1      -5.771  -9.057  11.150  0.00  0.00    +0.011 A 
ATOM     27  C   UNL     1      -3.080  -9.503  10.338  0.00  0.00    +0.047 A 
ATOM     28  C   UNL     1      -5.309  -8.623   9.899  0.00  0.00    +0.001 A 
ATOM     29  C   UNL     1      -3.987  -8.843   9.503  0.00  0.00    +0.004 A 
ENDBRANCH  13  17
ENDBRANCH   4  13
TORSDOF 3
ENDMDL
MODEL 9
REMARK VINA RESULT:      -7.0     27.162     30.027
REMARK  Name = 7682251
REMARK  3 active torsions:
REMARK  status: ('A' for Active; 'I' for Inactive)
REMARK    1  A    between atoms: N_4  and  C_13
REMARK    2  A    between atoms: C_13  and  C_17
REMARK    3  A    between atoms: C_14  and  C_19
REMARK                            x       y       z     vdW  Elec       q    Type
REMARK                         _______ _______ _______ _____ _____    ______ ____
ROOT
ATOM      3  O   UNL     1      -1.060 -12.676  13.720  0.00  0.00    -0.268 OA
ATOM      4  N   UNL     1      -5.960 -13.490  13.395  0.00  0.00    -0.294 NA
ATOM      5  N   UNL     1      -3.118 -13.087  14.761  0.00  0.00    -0.311 N 
ATOM      6  C   UNL     1      -4.437 -15.244  14.322  0.00  0.00    +0.024 C 
ATOM      7  C   UNL     1      -5.350 -13.540  15.822  0.00  0.00    +0.051 C 
ATOM      8  C   UNL     1      -4.980 -15.017  15.723  0.00  0.00    +0.017 C 
ATOM      9  C   UNL     1      -5.502 -14.878  13.268  0.00  0.00    +0.090 C 
ATOM     10  C   UNL     1      -6.426 -13.206  14.760  0.00  0.00    +0.094 C 
ATOM     11  C   UNL     1      -3.153 -14.428  14.162  0.00  0.00    +0.130 C 
ATOM     12  C   UNL     1      -4.118 -12.642  15.651  0.00  0.00    +0.034 A 
ATOM     14  C   UNL     1      -3.969 -11.454  16.296  0.00  0.00    +0.009 A 
ATOM     15  C   UNL     1      -1.968 -12.329  14.477  0.00  0.00    +0.252 A 
ATOM     16  C   UNL     1      -2.796 -10.644  16.022  0.00  0.00    +0.016 A 
ATOM     18  C   UNL     1      -1.850 -11.024  15.164  0.00  0.00    +0.071 A 
ENDROOT
BRANCH  14  19
ATOM      1  S   UNL     1      -6.245 -10.006  16.663  0.00  0.00    -0.097 S 
ATOM     19  C   UNL     1      -4.964 -10.992  17.226  0.00  0.00    +0.021 A 
ATOM     21  C   UNL     1      -5.053 -11.233  18.578  0.00  0.00    +0.016 A 
ATOM     24  C   UNL     1      -6.189 -10.600  19.161  0.00  0.00    +0.008 A 
ATOM     25  C   UNL     1      -6.924  -9.899  18.231  0.00  0.00    +0.046 A 
ENDBRANCH  14  19
BRANCH   4  13
ATOM     13  C   UNL     1      -7.000 -13.189  12.414  0.00  0.00    +0.158 C 
BRANCH  13  17
ATOM      2  O   UNL     1      -5.549 -11.408  11.715  0.00  0.00    -0.458 OA
ATOM     17  C   UNL     1      -6.504 -12.273  11.332  0.00  0.00    +0.120 A 
ATOM     20  C   UNL     1      -6.839 -12.148  10.026  0.00  0.00    +0.054 A 
ATOM     22  C   UNL     1      -6.018 -11.103   9.526  0.00  0.00    +0.020 A 
ATOM     23  C   UNL     1      -5.244 -10.682  10.602  0.00  0.00    +0.135 A 
ATOM     26  C   UNL     1      -5.844 -10.468   8.284  0.00  0.00    +0.011 A 
ATOM     27  C   UNL     1      -4.298  -9.661  10.532  0.00  0.00    +0.047 A 
ATOM     28  C   UNL     1      -4.900  -9.437   8.182  0.00  0.00    +0.001 A 
ATOM     29  C   UNL     1      -4.142  -9.042   9.287  0.00  0.00    +0.004 A 
ENDBRANCH  13  17
ENDBRANCH   4  13
TORSDOF 3
ENDMDL
MODEL 10
REMARK VINA RESULT:      -7.0     27.870     30.423
REMARK  Name = 7682251
REMARK  3 active torsions:
REMARK  status: ('A' for Active; 'I' for Inactive)
REMARK    1  A    between atoms: N_4  and  C_13
REMARK    2  A    between atoms: C_13  and  C_17
REMARK    3  A    between atoms: C_14  and  C_19
REMARK                            x       y       z     vdW  Elec       q    Type
REMARK                         _______ _______ _______ _____ _____    ______ ____
ROOT
ATOM      3  O   UNL     1      -5.911 -15.108  16.195  0.00  0.00    -0.268 OA
ATOM      4  N   UNL     1      -6.553 -10.329  17.430  0.00  0.00    -0.294 NA
ATOM      5  N   UNL     1      -5.352 -12.851  15.912  0.00  0.00    -0.311 N 
ATOM      6  C   UNL     1      -4.360 -11.463  17.830  0.00  0.00    +0.024 C 
ATOM      7  C   UNL     1      -4.785 -10.416  15.660  0.00  0.00    +0.051 C 
ATOM      8  C   UNL     1      -3.709 -10.665  16.714  0.00  0.00    +0.017 C 
ATOM      9  C   UNL     1      -5.542 -10.677  18.434  0.00  0.00    +0.090 C 
ATOM     10  C   UNL     1      -5.951  -9.618  16.294  0.00  0.00    +0.094 C 
ATOM     11  C   UNL     1      -4.789 -12.821  17.269  0.00  0.00    +0.130 C 
ATOM     12  C   UNL     1      -5.291 -11.731  15.055  0.00  0.00    +0.034 A 
ATOM     14  C   UNL     1      -5.690 -11.849  13.760  0.00  0.00    +0.009 A 
ATOM     15  C   UNL     1      -5.848 -14.098  15.492  0.00  0.00    +0.252 A 
ATOM     16  C   UNL     1      -6.212 -13.121  13.295  0.00  0.00    +0.016 A 
ATOM     18  C   UNL     1      -6.310 -14.187  14.089  0.00  0.00    +0.071 A 
ENDROOT
BRANCH  14  19
ATOM      1  S   UNL     1      -4.212 -10.515  11.903  0.00  0.00    -0.097 S 
ATOM     19  C   UNL     1      -5.613 -10.729  12.863  0.00  0.00    +0.021 A 
ATOM     21  C   UNL     1      -6.547  -9.741  12.641  0.00  0.00    +0.016 A 
ATOM     24  C   UNL     1      -6.106  -8.797  11.669  0.00  0.00    +0.008 A 
ATOM     25  C   UNL     1      -4.851  -9.098  11.187  0.00  0.00    +0.046 A 
ENDBRANCH  14  19
BRANCH   4  13
ATOM     13  C   UNL     1      -7.634  -9.547  18.024  0.00  0.00    +0.158 C 
BRANCH  13  17
ATOM      2  O   UNL     1      -9.187  -7.921  17.181  0.00  0.00    -0.458 OA
ATOM     17  C   UNL     1      -8.663  -9.147  17.007  0.00  0.00    +0.120 A 
ATOM     20  C   UNL     1      -9.175  -9.793  15.932  0.00  0.00    +0.054 A 
ATOM     22  C   UNL     1     -10.114  -8.892  15.364  0.00  0.00    +0.020 A 
ATOM     23  C   UNL     1     -10.084  -7.757  16.167  0.00  0.00    +0.135 A 
ATOM     26  C   UNL     1     -10.985  -8.911  14.260  0.00  0.00    +0.011 A 
ATOM     27  C   UNL     1     -10.868  -6.625  15.951  0.00  0.00    +0.047 A 
ATOM     28  C   UNL     1     -11.787  -7.787  14.017  0.00  0.00    +0.001 A 
ATOM     29  C   UNL     1     -11.728  -6.666  14.849  0.00  0.00    +0.004 A 
ENDBRANCH  13  17
ENDBRANCH   4  13
TORSDOF 3
ENDMDL
