MODEL 1
REMARK VINA RESULT:      -6.9      0.000      0.000
REMARK  Name = 86768995
REMARK  9 active torsions:
REMARK  status: ('A' for Active; 'I' for Inactive)
REMARK    1  A    between atoms: O_2  and  C_9
REMARK    2  A    between atoms: O_4  and  C_23
REMARK    3  A    between atoms: O_4  and  C_24
REMARK    4  A    between atoms: N_5  and  C_11
REMARK    5  A    between atoms: N_5  and  C_14
REMARK    6  A    between atoms: C_8  and  C_14
REMARK    7  A    between atoms: C_10  and  C_17
REMARK    8  A    between atoms: C_17  and  C_20
REMARK    9  A    between atoms: C_22  and  C_23
REMARK                            x       y       z     vdW  Elec       q    Type
REMARK                         _______ _______ _______ _____ _____    ______ ____
ROOT
ATOM      1  O   UNL     1      10.622   8.379  19.725  0.00  0.00    -0.369 OA
ATOM      8  C   UNL     1      10.822   8.254  21.139  0.00  0.00    +0.161 C 
ATOM      9  C   UNL     1      11.614   6.984  21.479  0.00  0.00    +0.145 C 
ATOM     10  C   UNL     1      11.814   8.353  18.937  0.00  0.00    +0.125 C 
ATOM     12  C   UNL     1      12.881   6.846  20.640  0.00  0.00    +0.036 C 
ATOM     13  C   UNL     1      12.577   7.048  19.158  0.00  0.00    +0.034 C 
ENDROOT
BRANCH   9   2
ATOM      2  O   UNL     1      10.791   5.845  21.219  0.00  0.00    -0.389 OA
ATOM     27  H   UNL     1      11.277   5.265  20.607  0.00  0.00    +0.210 HD
ENDBRANCH   9   2
BRANCH   8  14
ATOM     14  C   UNL     1      11.446   9.520  21.721  0.00  0.00    +0.115 C 
BRANCH  14   5
ATOM      5  N   UNL     1      11.235   9.590  23.158  0.00  0.00    -0.311 NA
ATOM     25  H   UNL     1      10.562   8.871  23.427  0.00  0.00    +0.122 HD
BRANCH   5  11
ATOM      6  N   UNL     1      11.272  13.678  24.336  0.00  0.00    -0.316 NA
ATOM     11  C   UNL     1      10.737  10.905  23.552  0.00  0.00    +0.056 C 
ATOM     15  C   UNL     1      11.255  11.274  24.946  0.00  0.00    +0.034 C 
ATOM     16  C   UNL     1      11.149  11.976  22.536  0.00  0.00    +0.034 C 
ATOM     18  C   UNL     1      10.832  12.694  25.327  0.00  0.00    +0.082 C 
ATOM     19  C   UNL     1      10.729  13.368  23.011  0.00  0.00    +0.082 C 
ATOM     26  H   UNL     1      10.956  14.605  24.620  0.00  0.00    +0.122 HD
ENDBRANCH   5  11
ENDBRANCH  14   5
ENDBRANCH   8  14
BRANCH  10  17
ATOM     17  C   UNL     1      11.403   8.500  17.477  0.00  0.00    +0.090 C 
BRANCH  17  20
ATOM      3  O   UNL     1      13.520   9.909  14.923  0.00  0.00    -0.357 OA
ATOM      7  N   UNL     1      12.443   9.135  15.340  0.00  0.00    -0.083 NA
ATOM     20  C   UNL     1      12.448   9.225  16.674  0.00  0.00    +0.086 A 
ATOM     21  C   UNL     1      13.494  10.034  17.149  0.00  0.00    +0.073 A 
ATOM     22  C   UNL     1      14.138  10.439  16.009  0.00  0.00    +0.163 A 
BRANCH  22  23
ATOM     23  C   UNL     1      15.304  11.291  15.749  0.00  0.00    +0.236 C 
BRANCH  23   4
ATOM      4  O   UNL     1      15.203  11.889  14.453  0.00  0.00    -0.375 OA
ATOM     24  C   UNL     1      16.484  12.113  13.890  0.00  0.00    +0.194 C 
ENDBRANCH  23   4
ENDBRANCH  22  23
ENDBRANCH  17  20
ENDBRANCH  10  17
TORSDOF 8
ENDMDL
MODEL 2
REMARK VINA RESULT:      -6.6      3.773      7.309
REMARK  Name = 86768995
REMARK  9 active torsions:
REMARK  status: ('A' for Active; 'I' for Inactive)
REMARK    1  A    between atoms: O_2  and  C_9
REMARK    2  A    between atoms: O_4  and  C_23
REMARK    3  A    between atoms: O_4  and  C_24
REMARK    4  A    between atoms: N_5  and  C_11
REMARK    5  A    between atoms: N_5  and  C_14
REMARK    6  A    between atoms: C_8  and  C_14
REMARK    7  A    between atoms: C_10  and  C_17
REMARK    8  A    between atoms: C_17  and  C_20
REMARK    9  A    between atoms: C_22  and  C_23
REMARK                            x       y       z     vdW  Elec       q    Type
REMARK                         _______ _______ _______ _____ _____    ______ ____
ROOT
ATOM      1  O   UNL     1      12.537   7.679  21.927  0.00  0.00    -0.369 OA
ATOM      8  C   UNL     1      13.467   7.183  20.955  0.00  0.00    +0.161 C 
ATOM      9  C   UNL     1      12.785   6.946  19.601  0.00  0.00    +0.145 C 
ATOM     10  C   UNL     1      11.837   8.866  21.549  0.00  0.00    +0.125 C 
ATOM     12  C   UNL     1      11.964   8.149  19.145  0.00  0.00    +0.036 C 
ATOM     13  C   UNL     1      11.045   8.638  20.261  0.00  0.00    +0.034 C 
ENDROOT
BRANCH   9   2
ATOM      2  O   UNL     1      11.897   5.833  19.722  0.00  0.00    -0.389 OA
ATOM     27  H   UNL     1      12.070   5.410  20.581  0.00  0.00    +0.210 HD
ENDBRANCH   9   2
BRANCH   8  14
ATOM     14  C   UNL     1      14.693   8.088  20.856  0.00  0.00    +0.115 C 
BRANCH  14   5
ATOM      5  N   UNL     1      15.822   7.512  21.570  0.00  0.00    -0.311 NA
ATOM     25  H   UNL     1      16.145   8.182  22.269  0.00  0.00    +0.122 HD
BRANCH   5  11
ATOM      6  N   UNL     1      18.798   5.227  19.563  0.00  0.00    -0.316 NA
ATOM     11  C   UNL     1      16.913   7.188  20.654  0.00  0.00    +0.056 C 
ATOM     15  C   UNL     1      18.142   6.715  21.436  0.00  0.00    +0.034 C 
ATOM     16  C   UNL     1      16.484   6.115  19.646  0.00  0.00    +0.034 C 
ATOM     18  C   UNL     1      19.254   6.269  20.486  0.00  0.00    +0.082 C 
ATOM     19  C   UNL     1      17.661   5.693  18.766  0.00  0.00    +0.082 C 
ATOM     26  H   UNL     1      19.563   4.971  18.941  0.00  0.00    +0.122 HD
ENDBRANCH   5  11
ENDBRANCH  14   5
ENDBRANCH   8  14
BRANCH  10  17
ATOM     17  C   UNL     1      10.907   9.237  22.698  0.00  0.00    +0.090 C 
BRANCH  17  20
ATOM      3  O   UNL     1      10.687  12.561  24.072  0.00  0.00    -0.357 OA
ATOM      7  N   UNL     1      10.585  11.179  24.174  0.00  0.00    -0.083 NA
ATOM     20  C   UNL     1      10.909  10.718  22.961  0.00  0.00    +0.086 A 
ATOM     21  C   UNL     1      11.222  11.753  22.064  0.00  0.00    +0.073 A 
ATOM     22  C   UNL     1      11.067  12.891  22.811  0.00  0.00    +0.163 A 
BRANCH  22  23
ATOM     23  C   UNL     1      11.226  14.323  22.528  0.00  0.00    +0.236 C 
BRANCH  23   4
ATOM      4  O   UNL     1      11.605  14.519  21.162  0.00  0.00    -0.375 OA
ATOM     24  C   UNL     1      10.538  15.070  20.409  0.00  0.00    +0.194 C 
ENDBRANCH  23   4
ENDBRANCH  22  23
ENDBRANCH  17  20
ENDBRANCH  10  17
TORSDOF 8
ENDMDL
MODEL 3
REMARK VINA RESULT:      -6.2      2.044      2.357
REMARK  Name = 86768995
REMARK  9 active torsions:
REMARK  status: ('A' for Active; 'I' for Inactive)
REMARK    1  A    between atoms: O_2  and  C_9
REMARK    2  A    between atoms: O_4  and  C_23
REMARK    3  A    between atoms: O_4  and  C_24
REMARK    4  A    between atoms: N_5  and  C_11
REMARK    5  A    between atoms: N_5  and  C_14
REMARK    6  A    between atoms: C_8  and  C_14
REMARK    7  A    between atoms: C_10  and  C_17
REMARK    8  A    between atoms: C_17  and  C_20
REMARK    9  A    between atoms: C_22  and  C_23
REMARK                            x       y       z     vdW  Elec       q    Type
REMARK                         _______ _______ _______ _____ _____    ______ ____
ROOT
ATOM      1  O   UNL     1      10.635   8.050  19.768  0.00  0.00    -0.369 OA
ATOM      8  C   UNL     1      10.653   7.786  21.177  0.00  0.00    +0.161 C 
ATOM      9  C   UNL     1      11.595   6.622  21.513  0.00  0.00    +0.145 C 
ATOM     10  C   UNL     1      11.913   8.306  19.180  0.00  0.00    +0.125 C 
ATOM     12  C   UNL     1      12.972   6.785  20.875  0.00  0.00    +0.036 C 
ATOM     13  C   UNL     1      12.850   7.117  19.391  0.00  0.00    +0.034 C 
ENDROOT
BRANCH   9   2
ATOM      2  O   UNL     1      11.025   5.410  21.015  0.00  0.00    -0.389 OA
ATOM     27  H   UNL     1      11.663   5.017  20.394  0.00  0.00    +0.210 HD
ENDBRANCH   9   2
BRANCH   8  14
ATOM     14  C   UNL     1      10.964   9.053  21.970  0.00  0.00    +0.115 C 
BRANCH  14   5
ATOM      5  N   UNL     1      12.327   9.028  22.475  0.00  0.00    -0.311 NA
ATOM     25  H   UNL     1      12.303   8.861  23.482  0.00  0.00    +0.122 HD
BRANCH   5  11
ATOM      6  N   UNL     1      14.109  12.197  20.264  0.00  0.00    -0.316 NA
ATOM     11  C   UNL     1      13.012  10.288  22.200  0.00  0.00    +0.056 C 
ATOM     15  C   UNL     1      14.323  10.029  21.450  0.00  0.00    +0.034 C 
ATOM     16  C   UNL     1      12.119  11.233  21.388  0.00  0.00    +0.034 C 
ATOM     18  C   UNL     1      14.997  11.344  21.059  0.00  0.00    +0.082 C 
ATOM     19  C   UNL     1      12.879  12.502  20.999  0.00  0.00    +0.082 C 
ATOM     26  H   UNL     1      14.591  13.066  20.039  0.00  0.00    +0.122 HD
ENDBRANCH   5  11
ENDBRANCH  14   5
ENDBRANCH   8  14
BRANCH  10  17
ATOM     17  C   UNL     1      11.692   8.564  17.695  0.00  0.00    +0.090 C 
BRANCH  17  20
ATOM      3  O   UNL     1      14.047  11.236  17.140  0.00  0.00    -0.357 OA
ATOM      7  N   UNL     1      13.182  10.507  17.947  0.00  0.00    -0.083 NA
ATOM     20  C   UNL     1      12.682   9.558  17.149  0.00  0.00    +0.086 A 
ATOM     21  C   UNL     1      13.190   9.638  15.841  0.00  0.00    +0.073 A 
ATOM     22  C   UNL     1      14.044  10.709  15.888  0.00  0.00    +0.163 A 
BRANCH  22  23
ATOM     23  C   UNL     1      14.910  11.362  14.900  0.00  0.00    +0.236 C 
BRANCH  23   4
ATOM      4  O   UNL     1      16.129  11.791  15.515  0.00  0.00    -0.375 OA
ATOM     24  C   UNL     1      17.209  11.745  14.598  0.00  0.00    +0.194 C 
ENDBRANCH  23   4
ENDBRANCH  22  23
ENDBRANCH  17  20
ENDBRANCH  10  17
TORSDOF 8
ENDMDL
MODEL 4
REMARK VINA RESULT:      -6.0      3.755      6.400
REMARK  Name = 86768995
REMARK  9 active torsions:
REMARK  status: ('A' for Active; 'I' for Inactive)
REMARK    1  A    between atoms: O_2  and  C_9
REMARK    2  A    between atoms: O_4  and  C_23
REMARK    3  A    between atoms: O_4  and  C_24
REMARK    4  A    between atoms: N_5  and  C_11
REMARK    5  A    between atoms: N_5  and  C_14
REMARK    6  A    between atoms: C_8  and  C_14
REMARK    7  A    between atoms: C_10  and  C_17
REMARK    8  A    between atoms: C_17  and  C_20
REMARK    9  A    between atoms: C_22  and  C_23
REMARK                            x       y       z     vdW  Elec       q    Type
REMARK                         _______ _______ _______ _____ _____    ______ ____
ROOT
ATOM      1  O   UNL     1      13.131   8.589  21.474  0.00  0.00    -0.369 OA
ATOM      8  C   UNL     1      11.719   8.483  21.249  0.00  0.00    +0.161 C 
ATOM      9  C   UNL     1      10.940   9.469  22.130  0.00  0.00    +0.145 C 
ATOM     10  C   UNL     1      13.679   9.898  21.298  0.00  0.00    +0.125 C 
ATOM     12  C   UNL     1      11.496  10.888  22.047  0.00  0.00    +0.036 C 
ATOM     13  C   UNL     1      13.009  10.893  22.244  0.00  0.00    +0.034 C 
ENDROOT
BRANCH   9   2
ATOM      2  O   UNL     1      11.032   9.044  23.491  0.00  0.00    -0.389 OA
ATOM     27  H   UNL     1      11.874   9.378  23.847  0.00  0.00    +0.210 HD
ENDBRANCH   9   2
BRANCH   8  14
ATOM     14  C   UNL     1      11.387   8.617  19.765  0.00  0.00    +0.115 C 
BRANCH  14   5
ATOM      5  N   UNL     1      12.087   7.609  18.984  0.00  0.00    -0.311 NA
ATOM     25  H   UNL     1      13.037   7.513  19.347  0.00  0.00    +0.122 HD
BRANCH   5  11
ATOM      6  N   UNL     1      11.936  10.032  15.490  0.00  0.00    -0.316 NA
ATOM     11  C   UNL     1      12.133   7.978  17.571  0.00  0.00    +0.056 C 
ATOM     15  C   UNL     1      10.789   8.570  17.132  0.00  0.00    +0.034 C 
ATOM     16  C   UNL     1      13.263   8.979  17.301  0.00  0.00    +0.034 C 
ATOM     18  C   UNL     1      10.857   9.061  15.686  0.00  0.00    +0.082 C 
ATOM     19  C   UNL     1      13.234   9.454  15.848  0.00  0.00    +0.082 C 
ATOM     26  H   UNL     1      11.955  10.321  14.512  0.00  0.00    +0.122 HD
ENDBRANCH   5  11
ENDBRANCH  14   5
ENDBRANCH   8  14
BRANCH  10  17
ATOM     17  C   UNL     1      15.175   9.810  21.575  0.00  0.00    +0.090 C 
BRANCH  17  20
ATOM      3  O   UNL     1      16.063   7.173  19.285  0.00  0.00    -0.357 OA
ATOM      7  N   UNL     1      15.218   8.182  19.730  0.00  0.00    -0.083 NA
ATOM     20  C   UNL     1      15.817   8.679  20.817  0.00  0.00    +0.086 A 
ATOM     21  C   UNL     1      17.029   8.028  21.103  0.00  0.00    +0.073 A 
ATOM     22  C   UNL     1      17.138   7.090  20.110  0.00  0.00    +0.163 A 
BRANCH  22  23
ATOM     23  C   UNL     1      18.139   6.068  19.783  0.00  0.00    +0.236 C 
BRANCH  23   4
ATOM      4  O   UNL     1      19.067   5.920  20.861  0.00  0.00    -0.375 OA
ATOM     24  C   UNL     1      20.181   5.133  20.475  0.00  0.00    +0.194 C 
ENDBRANCH  23   4
ENDBRANCH  22  23
ENDBRANCH  17  20
ENDBRANCH  10  17
TORSDOF 8
ENDMDL
MODEL 5
REMARK VINA RESULT:      -5.9     24.314     26.352
REMARK  Name = 86768995
REMARK  9 active torsions:
REMARK  status: ('A' for Active; 'I' for Inactive)
REMARK    1  A    between atoms: O_2  and  C_9
REMARK    2  A    between atoms: O_4  and  C_23
REMARK    3  A    between atoms: O_4  and  C_24
REMARK    4  A    between atoms: N_5  and  C_11
REMARK    5  A    between atoms: N_5  and  C_14
REMARK    6  A    between atoms: C_8  and  C_14
REMARK    7  A    between atoms: C_10  and  C_17
REMARK    8  A    between atoms: C_17  and  C_20
REMARK    9  A    between atoms: C_22  and  C_23
REMARK                            x       y       z     vdW  Elec       q    Type
REMARK                         _______ _______ _______ _____ _____    ______ ____
ROOT
ATOM      1  O   UNL     1     -10.842   9.003  20.078  0.00  0.00    -0.369 OA
ATOM      8  C   UNL     1     -10.770  10.224  19.330  0.00  0.00    +0.161 C 
ATOM      9  C   UNL     1     -10.629   9.949  17.826  0.00  0.00    +0.145 C 
ATOM     10  C   UNL     1     -11.876   8.102  19.674  0.00  0.00    +0.125 C 
ATOM     12  C   UNL     1     -11.663   8.948  17.318  0.00  0.00    +0.036 C 
ATOM     13  C   UNL     1     -11.704   7.708  18.207  0.00  0.00    +0.034 C 
ENDROOT
BRANCH   9   2
ATOM      2  O   UNL     1      -9.333   9.401  17.579  0.00  0.00    -0.389 OA
ATOM     27  H   UNL     1      -8.784   9.575  18.364  0.00  0.00    +0.210 HD
ENDBRANCH   9   2
BRANCH   8  14
ATOM     14  C   UNL     1     -11.944  11.142  19.661  0.00  0.00    +0.115 C 
BRANCH  14   5
ATOM      5  N   UNL     1     -11.956  11.480  21.075  0.00  0.00    -0.311 NA
ATOM     25  H   UNL     1     -11.207  10.968  21.542  0.00  0.00    +0.122 HD
BRANCH   5  11
ATOM      6  N   UNL     1     -15.384   9.198  22.146  0.00  0.00    -0.316 NA
ATOM     11  C   UNL     1     -13.240  11.143  21.685  0.00  0.00    +0.056 C 
ATOM     15  C   UNL     1     -14.265  10.786  20.604  0.00  0.00    +0.034 C 
ATOM     16  C   UNL     1     -13.090   9.980  22.673  0.00  0.00    +0.034 C 
ATOM     18  C   UNL     1     -15.581  10.325  21.232  0.00  0.00    +0.082 C 
ATOM     19  C   UNL     1     -14.452   9.551  23.220  0.00  0.00    +0.082 C 
ATOM     26  H   UNL     1     -16.281   8.934  22.552  0.00  0.00    +0.122 HD
ENDBRANCH   5  11
ENDBRANCH  14   5
ENDBRANCH   8  14
BRANCH  10  17
ATOM     17  C   UNL     1     -11.796   6.877  20.576  0.00  0.00    +0.090 C 
BRANCH  17  20
ATOM      3  O   UNL     1     -15.305   6.424  21.260  0.00  0.00    -0.357 OA
ATOM      7  N   UNL     1     -14.255   6.974  20.536  0.00  0.00    -0.083 NA
ATOM     20  C   UNL     1     -13.148   6.488  21.109  0.00  0.00    +0.086 A 
ATOM     21  C   UNL     1     -13.438   5.635  22.188  0.00  0.00    +0.073 A 
ATOM     22  C   UNL     1     -14.807   5.628  22.241  0.00  0.00    +0.163 A 
BRANCH  22  23
ATOM     23  C   UNL     1     -15.787   4.962  23.106  0.00  0.00    +0.236 C 
BRANCH  23   4
ATOM      4  O   UNL     1     -15.915   3.584  22.742  0.00  0.00    -0.375 OA
ATOM     24  C   UNL     1     -16.493   2.827  23.792  0.00  0.00    +0.194 C 
ENDBRANCH  23   4
ENDBRANCH  22  23
ENDBRANCH  17  20
ENDBRANCH  10  17
TORSDOF 8
ENDMDL
MODEL 6
REMARK VINA RESULT:      -5.9      1.973      2.749
REMARK  Name = 86768995
REMARK  9 active torsions:
REMARK  status: ('A' for Active; 'I' for Inactive)
REMARK    1  A    between atoms: O_2  and  C_9
REMARK    2  A    between atoms: O_4  and  C_23
REMARK    3  A    between atoms: O_4  and  C_24
REMARK    4  A    between atoms: N_5  and  C_11
REMARK    5  A    between atoms: N_5  and  C_14
REMARK    6  A    between atoms: C_8  and  C_14
REMARK    7  A    between atoms: C_10  and  C_17
REMARK    8  A    between atoms: C_17  and  C_20
REMARK    9  A    between atoms: C_22  and  C_23
REMARK                            x       y       z     vdW  Elec       q    Type
REMARK                         _______ _______ _______ _____ _____    ______ ____
ROOT
ATOM      1  O   UNL     1      12.784   9.660  20.697  0.00  0.00    -0.369 OA
ATOM      8  C   UNL     1      11.540   9.764  21.402  0.00  0.00    +0.161 C 
ATOM      9  C   UNL     1      10.763   8.442  21.360  0.00  0.00    +0.145 C 
ATOM     10  C   UNL     1      13.644   8.604  21.133  0.00  0.00    +0.125 C 
ATOM     12  C   UNL     1      11.625   7.247  21.758  0.00  0.00    +0.036 C 
ATOM     13  C   UNL     1      12.948   7.251  20.997  0.00  0.00    +0.034 C 
ENDROOT
BRANCH   9   2
ATOM      2  O   UNL     1      10.302   8.221  20.025  0.00  0.00    -0.389 OA
ATOM     27  H   UNL     1      10.894   8.708  19.425  0.00  0.00    +0.210 HD
ENDBRANCH   9   2
BRANCH   8  14
ATOM     14  C   UNL     1      11.755  10.285  22.821  0.00  0.00    +0.115 C 
BRANCH  14   5
ATOM      5  N   UNL     1      10.531  10.867  23.351  0.00  0.00    -0.311 NA
ATOM     25  H   UNL     1      10.055  11.371  22.602  0.00  0.00    +0.122 HD
BRANCH   5  11
ATOM      6  N   UNL     1      12.114  14.212  25.451  0.00  0.00    -0.316 NA
ATOM     11  C   UNL     1      10.818  11.778  24.456  0.00  0.00    +0.056 C 
ATOM     15  C   UNL     1      12.329  11.857  24.701  0.00  0.00    +0.034 C 
ATOM     16  C   UNL     1      10.256  13.177  24.174  0.00  0.00    +0.034 C 
ATOM     18  C   UNL     1      12.652  12.890  25.781  0.00  0.00    +0.082 C 
ATOM     19  C   UNL     1      10.660  14.158  25.276  0.00  0.00    +0.082 C 
ATOM     26  H   UNL     1      12.338  14.863  26.202  0.00  0.00    +0.122 HD
ENDBRANCH   5  11
ENDBRANCH  14   5
ENDBRANCH   8  14
BRANCH  10  17
ATOM     17  C   UNL     1      14.903   8.655  20.277  0.00  0.00    +0.090 C 
BRANCH  17  20
ATOM      3  O   UNL     1      14.734  10.839  17.415  0.00  0.00    -0.357 OA
ATOM      7  N   UNL     1      15.149  10.533  18.706  0.00  0.00    -0.083 NA
ATOM     20  C   UNL     1      14.649   9.317  18.950  0.00  0.00    +0.086 A 
ATOM     21  C   UNL     1      13.918   8.813  17.860  0.00  0.00    +0.073 A 
ATOM     22  C   UNL     1      14.003   9.807  16.922  0.00  0.00    +0.163 A 
BRANCH  22  23
ATOM     23  C   UNL     1      13.483   9.965  15.558  0.00  0.00    +0.236 C 
BRANCH  23   4
ATOM      4  O   UNL     1      12.570   8.907  15.250  0.00  0.00    -0.375 OA
ATOM     24  C   UNL     1      11.233   9.284  15.535  0.00  0.00    +0.194 C 
ENDBRANCH  23   4
ENDBRANCH  22  23
ENDBRANCH  17  20
ENDBRANCH  10  17
TORSDOF 8
ENDMDL
MODEL 7
REMARK VINA RESULT:      -5.9     25.906     27.351
REMARK  Name = 86768995
REMARK  9 active torsions:
REMARK  status: ('A' for Active; 'I' for Inactive)
REMARK    1  A    between atoms: O_2  and  C_9
REMARK    2  A    between atoms: O_4  and  C_23
REMARK    3  A    between atoms: O_4  and  C_24
REMARK    4  A    between atoms: N_5  and  C_11
REMARK    5  A    between atoms: N_5  and  C_14
REMARK    6  A    between atoms: C_8  and  C_14
REMARK    7  A    between atoms: C_10  and  C_17
REMARK    8  A    between atoms: C_17  and  C_20
REMARK    9  A    between atoms: C_22  and  C_23
REMARK                            x       y       z     vdW  Elec       q    Type
REMARK                         _______ _______ _______ _____ _____    ______ ____
ROOT
ATOM      1  O   UNL     1      -4.072 -11.524  13.036  0.00  0.00    -0.369 OA
ATOM      8  C   UNL     1      -4.139 -11.449  14.466  0.00  0.00    +0.161 C 
ATOM      9  C   UNL     1      -2.737 -11.389  15.088  0.00  0.00    +0.145 C 
ATOM     10  C   UNL     1      -3.332 -10.475  12.407  0.00  0.00    +0.125 C 
ATOM     12  C   UNL     1      -1.856 -10.328  14.433  0.00  0.00    +0.036 C 
ATOM     13  C   UNL     1      -1.891 -10.454  12.913  0.00  0.00    +0.034 C 
ENDROOT
BRANCH   9   2
ATOM      2  O   UNL     1      -2.100 -12.655  14.911  0.00  0.00    -0.389 OA
ATOM     27  H   UNL     1      -1.155 -12.540  15.115  0.00  0.00    +0.210 HD
ENDBRANCH   9   2
BRANCH   8  14
ATOM     14  C   UNL     1      -5.041 -10.302  14.915  0.00  0.00    +0.115 C 
BRANCH  14   5
ATOM      5  N   UNL     1      -4.775  -9.944  16.299  0.00  0.00    -0.311 NA
ATOM     25  H   UNL     1      -3.832 -10.251  16.543  0.00  0.00    +0.122 HD
BRANCH   5  11
ATOM      6  N   UNL     1      -7.383 -10.433  19.626  0.00  0.00    -0.316 NA
ATOM     11  C   UNL     1      -5.745 -10.564  17.199  0.00  0.00    +0.056 C 
ATOM     15  C   UNL     1      -5.144 -10.726  18.599  0.00  0.00    +0.034 C 
ATOM     16  C   UNL     1      -7.034  -9.737  17.270  0.00  0.00    +0.034 C 
ATOM     18  C   UNL     1      -6.184 -11.273  19.578  0.00  0.00    +0.082 C 
ATOM     19  C   UNL     1      -8.000 -10.323  18.301  0.00  0.00    +0.082 C 
ATOM     26  H   UNL     1      -8.053 -10.841  20.276  0.00  0.00    +0.122 HD
ENDBRANCH   5  11
ENDBRANCH  14   5
ENDBRANCH   8  14
BRANCH  10  17
ATOM     17  C   UNL     1      -3.375 -10.722  10.903  0.00  0.00    +0.090 C 
BRANCH  17  20
ATOM      3  O   UNL     1      -5.357  -7.997   9.626  0.00  0.00    -0.357 OA
ATOM      7  N   UNL     1      -4.306  -8.506  10.379  0.00  0.00    -0.083 NA
ATOM     20  C   UNL     1      -4.377  -9.832  10.220  0.00  0.00    +0.086 A 
ATOM     21  C   UNL     1      -5.442 -10.212   9.387  0.00  0.00    +0.073 A 
ATOM     22  C   UNL     1      -6.027  -9.022   9.040  0.00  0.00    +0.163 A 
BRANCH  22  23
ATOM     23  C   UNL     1      -7.176  -8.661   8.202  0.00  0.00    +0.236 C 
BRANCH  23   4
ATOM      4  O   UNL     1      -7.555  -7.302   8.438  0.00  0.00    -0.375 OA
ATOM     24  C   UNL     1      -8.320  -6.788   7.361  0.00  0.00    +0.194 C 
ENDBRANCH  23   4
ENDBRANCH  22  23
ENDBRANCH  17  20
ENDBRANCH  10  17
TORSDOF 8
ENDMDL
MODEL 8
REMARK VINA RESULT:      -5.8     16.415     20.238
REMARK  Name = 86768995
REMARK  9 active torsions:
REMARK  status: ('A' for Active; 'I' for Inactive)
REMARK    1  A    between atoms: O_2  and  C_9
REMARK    2  A    between atoms: O_4  and  C_23
REMARK    3  A    between atoms: O_4  and  C_24
REMARK    4  A    between atoms: N_5  and  C_11
REMARK    5  A    between atoms: N_5  and  C_14
REMARK    6  A    between atoms: C_8  and  C_14
REMARK    7  A    between atoms: C_10  and  C_17
REMARK    8  A    between atoms: C_17  and  C_20
REMARK    9  A    between atoms: C_22  and  C_23
REMARK                            x       y       z     vdW  Elec       q    Type
REMARK                         _______ _______ _______ _____ _____    ______ ____
ROOT
ATOM      1  O   UNL     1      12.847   2.827   0.610  0.00  0.00    -0.369 OA
ATOM      8  C   UNL     1      13.174   3.619   1.759  0.00  0.00    +0.161 C 
ATOM      9  C   UNL     1      14.581   4.220   1.641  0.00  0.00    +0.145 C 
ATOM     10  C   UNL     1      12.958   3.502  -0.645  0.00  0.00    +0.125 C 
ATOM     12  C   UNL     1      14.806   4.914   0.301  0.00  0.00    +0.036 C 
ATOM     13  C   UNL     1      14.381   4.016  -0.857  0.00  0.00    +0.034 C 
ENDROOT
BRANCH   9   2
ATOM      2  O   UNL     1      15.541   3.167   1.754  0.00  0.00    -0.389 OA
ATOM     27  H   UNL     1      15.546   2.681   0.911  0.00  0.00    +0.210 HD
ENDBRANCH   9   2
BRANCH   8  14
ATOM     14  C   UNL     1      12.098   4.669   2.027  0.00  0.00    +0.115 C 
BRANCH  14   5
ATOM      5  N   UNL     1      12.512   5.578   3.084  0.00  0.00    -0.311 NA
ATOM     25  H   UNL     1      13.220   5.117   3.657  0.00  0.00    +0.122 HD
BRANCH   5  11
ATOM      6  N   UNL     1       9.891   5.717   6.433  0.00  0.00    -0.316 NA
ATOM     11  C   UNL     1      11.377   5.964   3.919  0.00  0.00    +0.056 C 
ATOM     15  C   UNL     1      10.511   4.741   4.239  0.00  0.00    +0.034 C 
ATOM     16  C   UNL     1      11.850   6.630   5.217  0.00  0.00    +0.034 C 
ATOM     18  C   UNL     1       9.382   5.110   5.202  0.00  0.00    +0.082 C 
ATOM     19  C   UNL     1      10.668   6.924   6.141  0.00  0.00    +0.082 C 
ATOM     26  H   UNL     1       9.106   5.961   7.037  0.00  0.00    +0.122 HD
ENDBRANCH   5  11
ENDBRANCH  14   5
ENDBRANCH   8  14
BRANCH  10  17
ATOM     17  C   UNL     1      12.572   2.509  -1.735  0.00  0.00    +0.090 C 
BRANCH  17  20
ATOM      3  O   UNL     1       9.341   2.745  -3.315  0.00  0.00    -0.357 OA
ATOM      7  N   UNL     1      10.330   2.044  -2.636  0.00  0.00    -0.083 NA
ATOM     20  C   UNL     1      11.316   2.927  -2.451  0.00  0.00    +0.086 A 
ATOM     21  C   UNL     1      11.009   4.189  -2.987  0.00  0.00    +0.073 A 
ATOM     22  C   UNL     1       9.756   4.022  -3.518  0.00  0.00    +0.163 A 
BRANCH  22  23
ATOM     23  C   UNL     1       8.826   4.909  -4.226  0.00  0.00    +0.236 C 
BRANCH  23   4
ATOM      4  O   UNL     1       7.970   5.577  -3.294  0.00  0.00    -0.375 OA
ATOM     24  C   UNL     1       8.478   6.857  -2.958  0.00  0.00    +0.194 C 
ENDBRANCH  23   4
ENDBRANCH  22  23
ENDBRANCH  17  20
ENDBRANCH  10  17
TORSDOF 8
ENDMDL
MODEL 9
REMARK VINA RESULT:      -5.7     26.372     28.444
REMARK  Name = 86768995
REMARK  9 active torsions:
REMARK  status: ('A' for Active; 'I' for Inactive)
REMARK    1  A    between atoms: O_2  and  C_9
REMARK    2  A    between atoms: O_4  and  C_23
REMARK    3  A    between atoms: O_4  and  C_24
REMARK    4  A    between atoms: N_5  and  C_11
REMARK    5  A    between atoms: N_5  and  C_14
REMARK    6  A    between atoms: C_8  and  C_14
REMARK    7  A    between atoms: C_10  and  C_17
REMARK    8  A    between atoms: C_17  and  C_20
REMARK    9  A    between atoms: C_22  and  C_23
REMARK                            x       y       z     vdW  Elec       q    Type
REMARK                         _______ _______ _______ _____ _____    ______ ____
ROOT
ATOM      1  O   UNL     1      -2.625 -11.305  15.690  0.00  0.00    -0.369 OA
ATOM      8  C   UNL     1      -2.168 -11.679  14.384  0.00  0.00    +0.161 C 
ATOM      9  C   UNL     1      -2.805 -12.998  13.927  0.00  0.00    +0.145 C 
ATOM     10  C   UNL     1      -4.044 -11.206  15.832  0.00  0.00    +0.125 C 
ATOM     12  C   UNL     1      -4.322 -13.001  14.098  0.00  0.00    +0.036 C 
ATOM     13  C   UNL     1      -4.714 -12.539  15.499  0.00  0.00    +0.034 C 
ENDROOT
BRANCH   9   2
ATOM      2  O   UNL     1      -2.275 -14.064  14.717  0.00  0.00    -0.389 OA
ATOM     27  H   UNL     1      -2.929 -14.273  15.407  0.00  0.00    +0.210 HD
ENDBRANCH   9   2
BRANCH   8  14
ATOM     14  C   UNL     1      -2.367 -10.542  13.385  0.00  0.00    +0.115 C 
BRANCH  14   5
ATOM      5  N   UNL     1      -2.268 -11.029  12.018  0.00  0.00    -0.311 NA
ATOM     25  H   UNL     1      -1.375 -10.728  11.625  0.00  0.00    +0.122 HD
BRANCH   5  11
ATOM      6  N   UNL     1      -5.107  -8.300  10.407  0.00  0.00    -0.316 NA
ATOM     11  C   UNL     1      -3.365 -10.520  11.198  0.00  0.00    +0.056 C 
ATOM     15  C   UNL     1      -4.508 -10.022  12.089  0.00  0.00    +0.034 C 
ATOM     16  C   UNL     1      -2.884  -9.393  10.277  0.00  0.00    +0.034 C 
ATOM     18  C   UNL     1      -5.616  -9.386  11.248  0.00  0.00    +0.082 C 
ATOM     19  C   UNL     1      -4.056  -8.782   9.507  0.00  0.00    +0.082 C 
ATOM     26  H   UNL     1      -5.873  -7.917   9.855  0.00  0.00    +0.122 HD
ENDBRANCH   5  11
ENDBRANCH  14   5
ENDBRANCH   8  14
BRANCH  10  17
ATOM     17  C   UNL     1      -4.334 -10.800  17.272  0.00  0.00    +0.090 C 
BRANCH  17  20
ATOM      3  O   UNL     1      -7.688  -9.489  17.127  0.00  0.00    -0.357 OA
ATOM      7  N   UNL     1      -6.377  -9.564  16.675  0.00  0.00    -0.083 NA
ATOM     20  C   UNL     1      -5.786 -10.458  17.474  0.00  0.00    +0.086 A 
ATOM     21  C   UNL     1      -6.667 -10.975  18.439  0.00  0.00    +0.073 A 
ATOM     22  C   UNL     1      -7.850 -10.334  18.178  0.00  0.00    +0.163 A 
BRANCH  22  23
ATOM     23  C   UNL     1      -9.186 -10.381  18.782  0.00  0.00    +0.236 C 
BRANCH  23   4
ATOM      4  O   UNL     1      -9.147 -11.102  20.017  0.00  0.00    -0.375 OA
ATOM     24  C   UNL     1     -10.308 -11.899  20.183  0.00  0.00    +0.194 C 
ENDBRANCH  23   4
ENDBRANCH  22  23
ENDBRANCH  17  20
ENDBRANCH  10  17
TORSDOF 8
ENDMDL
MODEL 10
REMARK VINA RESULT:      -5.6     13.091     16.235
REMARK  Name = 86768995
REMARK  9 active torsions:
REMARK  status: ('A' for Active; 'I' for Inactive)
REMARK    1  A    between atoms: O_2  and  C_9
REMARK    2  A    between atoms: O_4  and  C_23
REMARK    3  A    between atoms: O_4  and  C_24
REMARK    4  A    between atoms: N_5  and  C_11
REMARK    5  A    between atoms: N_5  and  C_14
REMARK    6  A    between atoms: C_8  and  C_14
REMARK    7  A    between atoms: C_10  and  C_17
REMARK    8  A    between atoms: C_17  and  C_20
REMARK    9  A    between atoms: C_22  and  C_23
REMARK                            x       y       z     vdW  Elec       q    Type
REMARK                         _______ _______ _______ _____ _____    ______ ____
ROOT
ATOM      1  O   UNL     1      10.673   7.243   5.824  0.00  0.00    -0.369 OA
ATOM      8  C   UNL     1      11.156   7.167   7.171  0.00  0.00    +0.161 C 
ATOM      9  C   UNL     1      10.198   6.366   8.063  0.00  0.00    +0.145 C 
ATOM     10  C   UNL     1      10.407   5.983   5.201  0.00  0.00    +0.125 C 
ATOM     12  C   UNL     1       9.814   5.024   7.446  0.00  0.00    +0.036 C 
ATOM     13  C   UNL     1       9.365   5.198   5.997  0.00  0.00    +0.034 C 
ENDROOT
BRANCH   9   2
ATOM      2  O   UNL     1       8.998   7.121   8.245  0.00  0.00    -0.389 OA
ATOM     27  H   UNL     1       9.196   8.047   8.020  0.00  0.00    +0.210 HD
ENDBRANCH   9   2
BRANCH   8  14
ATOM     14  C   UNL     1      12.589   6.643   7.213  0.00  0.00    +0.115 C 
BRANCH  14   5
ATOM      5  N   UNL     1      13.544   7.735   7.110  0.00  0.00    -0.311 NA
ATOM     25  H   UNL     1      13.044   8.587   6.851  0.00  0.00    +0.122 HD
BRANCH   5  11
ATOM      6  N   UNL     1      16.034   8.213   3.693  0.00  0.00    -0.316 NA
ATOM     11  C   UNL     1      14.571   7.442   6.113  0.00  0.00    +0.056 C 
ATOM     15  C   UNL     1      13.946   7.352   4.717  0.00  0.00    +0.034 C 
ATOM     16  C   UNL     1      15.672   8.509   6.129  0.00  0.00    +0.034 C 
ATOM     18  C   UNL     1      15.023   7.155   3.650  0.00  0.00    +0.082 C 
ATOM     19  C   UNL     1      16.682   8.266   5.007  0.00  0.00    +0.082 C 
ATOM     26  H   UNL     1      16.738   8.034   2.978  0.00  0.00    +0.122 HD
ENDBRANCH   5  11
ENDBRANCH  14   5
ENDBRANCH   8  14
BRANCH  10  17
ATOM     17  C   UNL     1       9.910   6.265   3.789  0.00  0.00    +0.090 C 
BRANCH  17  20
ATOM      3  O   UNL     1      11.819   5.350   0.872  0.00  0.00    -0.357 OA
ATOM      7  N   UNL     1      10.991   6.213   1.579  0.00  0.00    -0.083 NA
ATOM     20  C   UNL     1      10.778   5.606   2.751  0.00  0.00    +0.086 A 
ATOM     21  C   UNL     1      11.439   4.369   2.838  0.00  0.00    +0.073 A 
ATOM     22  C   UNL     1      12.079   4.255   1.632  0.00  0.00    +0.163 A 
BRANCH  22  23
ATOM     23  C   UNL     1      12.946   3.233   1.034  0.00  0.00    +0.236 C 
BRANCH  23   4
ATOM      4  O   UNL     1      14.150   3.096   1.796  0.00  0.00    -0.375 OA
ATOM     24  C   UNL     1      15.246   3.707   1.136  0.00  0.00    +0.194 C 
ENDBRANCH  23   4
ENDBRANCH  22  23
ENDBRANCH  17  20
ENDBRANCH  10  17
TORSDOF 8
ENDMDL
