MODEL 1
REMARK VINA RESULT:      -7.9      0.000      0.000
REMARK  Name = 11880092
REMARK  12 active torsions:
REMARK  status: ('A' for Active; 'I' for Inactive)
REMARK    1  A    between atoms: O_1  and  C_12
REMARK    2  A    between atoms: O_2  and  C_15
REMARK    3  A    between atoms: O_3  and  C_17
REMARK    4  A    between atoms: N_8  and  C_13
REMARK    5  A    between atoms: N_9  and  C_19
REMARK    6  A    between atoms: N_10  and  C_24
REMARK    7  A    between atoms: C_12  and  C_18
REMARK    8  A    between atoms: C_19  and  C_21
REMARK    9  A    between atoms: C_19  and  C_22
REMARK   10  A    between atoms: C_21  and  C_23
REMARK   11  A    between atoms: C_34  and  C_35
REMARK   12  A    between atoms: C_35  and  C_36
REMARK                            x       y       z     vdW  Elec       q    Type
REMARK                         _______ _______ _______ _____ _____    ______ ____
ROOT
ATOM     12  C   UNL     1      -5.486 -10.989  17.093  0.00  0.00    +0.146 C 
ATOM     13  C   UNL     1      -7.677  -9.971  17.881  0.00  0.00    +0.109 C 
ATOM     14  C   UNL     1      -6.460  -9.816  16.963  0.00  0.00    +0.069 C 
ATOM     15  C   UNL     1      -7.265 -10.212  19.339  0.00  0.00    +0.163 C 
ATOM     16  C   UNL     1      -5.069 -11.206  18.546  0.00  0.00    +0.078 C 
ATOM     17  C   UNL     1      -6.275 -11.371  19.472  0.00  0.00    +0.148 C 
ENDROOT
BRANCH  13   8
ATOM      5  O   UNL     1      -9.748  -9.518  15.956  0.00  0.00    -0.252 OA
ATOM      8  N   UNL     1      -8.519  -8.799  17.777  0.00  0.00    -0.294 N 
ATOM     10  N   UNL     1     -10.160  -7.430  16.948  0.00  0.00    -0.269 N 
ATOM     20  C   UNL     1      -9.511  -8.659  16.802  0.00  0.00    +0.304 C 
ATOM     37  H   UNL     1      -8.332  -8.014  18.392  0.00  0.00    +0.151 HD
ATOM     42  H   UNL     1      -9.840  -6.833  17.706  0.00  0.00    +0.156 HD
BRANCH  10  24
ATOM     24  C   UNL     1     -11.217  -6.909  16.165  0.00  0.00    +0.035 A 
ATOM     27  C   UNL     1     -12.510  -7.351  16.390  0.00  0.00    +0.024 A 
ATOM     28  C   UNL     1     -10.937  -5.966  15.191  0.00  0.00    +0.024 A 
ATOM     32  C   UNL     1     -13.552  -6.835  15.619  0.00  0.00    +0.013 A 
ATOM     33  C   UNL     1     -11.978  -5.450  14.419  0.00  0.00    +0.013 A 
ATOM     34  C   UNL     1     -13.286  -5.885  14.633  0.00  0.00    +0.017 A 
BRANCH  34  35
ATOM      7  O   UNL     1     -15.488  -5.905  13.790  0.00  0.00    -0.292 OA
ATOM     35  C   UNL     1     -14.373  -5.348  13.829  0.00  0.00    +0.160 C 
ATOM     36  C   UNL     1     -14.168  -4.081  13.007  0.00  0.00    +0.091 C 
ENDBRANCH  34  35
ENDBRANCH  10  24
ENDBRANCH  13   8
BRANCH  12  18
ATOM      4  O   UNL     1      -3.357 -10.031  16.586  0.00  0.00    -0.273 OA
ATOM      9  N   UNL     1      -4.347 -11.461  15.038  0.00  0.00    -0.301 N 
ATOM     18  C   UNL     1      -4.275 -10.768  16.234  0.00  0.00    +0.246 C 
ATOM     41  H   UNL     1      -5.089 -12.143  14.911  0.00  0.00    +0.150 HD
BRANCH   9  19
ATOM     19  C   UNL     1      -3.317 -11.399  14.026  0.00  0.00    +0.163 C 
BRANCH  19  22
ATOM      6  O   UNL     1      -2.155 -13.527  14.169  0.00  0.00    -0.274 OA
ATOM     11  N   UNL     1      -1.219 -11.695  15.189  0.00  0.00    -0.328 N 
ATOM     22  C   UNL     1      -2.202 -12.336  14.465  0.00  0.00    +0.231 C 
ATOM     43  H   UNL     1      -1.261 -10.704  15.407  0.00  0.00    +0.145 HD
ATOM     44  H   UNL     1      -0.411 -12.202  15.531  0.00  0.00    +0.145 HD
ENDBRANCH  19  22
BRANCH  19  21
ATOM     21  C   UNL     1      -3.839 -11.799  12.640  0.00  0.00    +0.067 C 
BRANCH  21  23
ATOM     23  C   UNL     1      -4.089 -10.603  11.752  0.00  0.00    -0.045 A 
ATOM     25  C   UNL     1      -3.184 -10.302  10.748  0.00  0.00    +0.004 A 
ATOM     26  C   UNL     1      -5.222  -9.832  11.958  0.00  0.00    +0.004 A 
ATOM     29  C   UNL     1      -3.416  -9.197   9.928  0.00  0.00    +0.000 A 
ATOM     30  C   UNL     1      -5.454  -8.727  11.137  0.00  0.00    +0.000 A 
ATOM     31  C   UNL     1      -4.551  -8.410  10.122  0.00  0.00    +0.000 A 
ENDBRANCH  21  23
ENDBRANCH  19  21
ENDBRANCH   9  19
ENDBRANCH  12  18
BRANCH  12   1
ATOM      1  O   UNL     1      -6.078 -12.184  16.595  0.00  0.00    -0.379 OA
ATOM     38  H   UNL     1      -5.373 -12.749  16.235  0.00  0.00    +0.211 HD
ENDBRANCH  12   1
BRANCH  15   2
ATOM      2  O   UNL     1      -8.428 -10.546  20.103  0.00  0.00    -0.387 OA
ATOM     39  H   UNL     1      -8.545 -11.510  20.056  0.00  0.00    +0.210 HD
ENDBRANCH  15   2
BRANCH  17   3
ATOM      3  O   UNL     1      -5.815 -11.421  20.823  0.00  0.00    -0.389 OA
ATOM     40  H   UNL     1      -6.128 -12.256  21.211  0.00  0.00    +0.210 HD
ENDBRANCH  17   3
TORSDOF 11
ENDMDL
MODEL 2
REMARK VINA RESULT:      -7.8     27.636     30.696
REMARK  Name = 11880092
REMARK  12 active torsions:
REMARK  status: ('A' for Active; 'I' for Inactive)
REMARK    1  A    between atoms: O_1  and  C_12
REMARK    2  A    between atoms: O_2  and  C_15
REMARK    3  A    between atoms: O_3  and  C_17
REMARK    4  A    between atoms: N_8  and  C_13
REMARK    5  A    between atoms: N_9  and  C_19
REMARK    6  A    between atoms: N_10  and  C_24
REMARK    7  A    between atoms: C_12  and  C_18
REMARK    8  A    between atoms: C_19  and  C_21
REMARK    9  A    between atoms: C_19  and  C_22
REMARK   10  A    between atoms: C_21  and  C_23
REMARK   11  A    between atoms: C_34  and  C_35
REMARK   12  A    between atoms: C_35  and  C_36
REMARK                            x       y       z     vdW  Elec       q    Type
REMARK                         _______ _______ _______ _____ _____    ______ ____
ROOT
ATOM     12  C   UNL     1      11.739   8.404  20.484  0.00  0.00    +0.146 C 
ATOM     13  C   UNL     1      13.881   7.596  19.379  0.00  0.00    +0.109 C 
ATOM     14  C   UNL     1      13.269   8.411  20.523  0.00  0.00    +0.069 C 
ATOM     15  C   UNL     1      13.343   8.038  18.012  0.00  0.00    +0.163 C 
ATOM     16  C   UNL     1      11.217   8.865  19.125  0.00  0.00    +0.078 C 
ATOM     17  C   UNL     1      11.813   8.053  17.974  0.00  0.00    +0.148 C 
ENDROOT
BRANCH  13   8
ATOM      5  O   UNL     1      15.679   5.958  20.890  0.00  0.00    -0.252 OA
ATOM      8  N   UNL     1      15.322   7.705  19.418  0.00  0.00    -0.294 N 
ATOM     10  N   UNL     1      17.474   7.200  20.026  0.00  0.00    -0.269 N 
ATOM     20  C   UNL     1      16.129   6.860  20.187  0.00  0.00    +0.304 C 
ATOM     37  H   UNL     1      15.763   8.474  18.925  0.00  0.00    +0.151 HD
ATOM     42  H   UNL     1      17.677   7.977  19.402  0.00  0.00    +0.156 HD
BRANCH  10  24
ATOM     24  C   UNL     1      18.601   6.591  20.628  0.00  0.00    +0.035 A 
ATOM     27  C   UNL     1      19.224   5.533  19.988  0.00  0.00    +0.024 A 
ATOM     28  C   UNL     1      19.059   7.069  21.845  0.00  0.00    +0.024 A 
ATOM     32  C   UNL     1      20.336   4.935  20.581  0.00  0.00    +0.013 A 
ATOM     33  C   UNL     1      20.171   6.472  22.438  0.00  0.00    +0.013 A 
ATOM     34  C   UNL     1      20.809   5.404  21.807  0.00  0.00    +0.017 A 
BRANCH  34  35
ATOM      7  O   UNL     1      22.036   4.614  23.660  0.00  0.00    -0.292 OA
ATOM     35  C   UNL     1      21.968   4.779  22.426  0.00  0.00    +0.160 C 
ATOM     36  C   UNL     1      23.137   4.309  21.568  0.00  0.00    +0.091 C 
ENDBRANCH  34  35
ENDBRANCH  10  24
ENDBRANCH  13   8
BRANCH  12  18
ATOM      4  O   UNL     1      10.262   8.887  22.298  0.00  0.00    -0.273 OA
ATOM      9  N   UNL     1      11.796  10.507  21.631  0.00  0.00    -0.301 N 
ATOM     18  C   UNL     1      11.178   9.269  21.574  0.00  0.00    +0.246 C 
ATOM     41  H   UNL     1      12.630  10.663  21.073  0.00  0.00    +0.150 HD
BRANCH   9  19
ATOM     19  C   UNL     1      11.425  11.532  22.580  0.00  0.00    +0.163 C 
BRANCH  19  22
ATOM      6  O   UNL     1      13.352  11.468  24.058  0.00  0.00    -0.274 OA
ATOM     11  N   UNL     1      11.336  10.703  24.849  0.00  0.00    -0.328 N 
ATOM     22  C   UNL     1      12.161  11.229  23.877  0.00  0.00    +0.231 C 
ATOM     43  H   UNL     1      10.348  10.531  24.691  0.00  0.00    +0.145 HD
ATOM     44  H   UNL     1      11.697  10.468  25.766  0.00  0.00    +0.145 HD
ENDBRANCH  19  22
BRANCH  19  21
ATOM     21  C   UNL     1      11.775  12.939  22.082  0.00  0.00    +0.067 C 
BRANCH  21  23
ATOM     23  C   UNL     1      10.586  13.871  22.107  0.00  0.00    -0.045 A 
ATOM     25  C   UNL     1      10.175  14.477  20.931  0.00  0.00    +0.004 A 
ATOM     26  C   UNL     1       9.929  14.099  23.305  0.00  0.00    +0.004 A 
ATOM     29  C   UNL     1       9.076  15.337  20.955  0.00  0.00    +0.000 A 
ATOM     30  C   UNL     1       8.831  14.959  23.328  0.00  0.00    +0.000 A 
ATOM     31  C   UNL     1       8.404  15.578  22.152  0.00  0.00    +0.000 A 
ENDBRANCH  21  23
ENDBRANCH  19  21
ENDBRANCH   9  19
ENDBRANCH  12  18
BRANCH  12   1
ATOM      1  O   UNL     1      11.241   7.098  20.755  0.00  0.00    -0.379 OA
ATOM     38  H   UNL     1      11.554   6.828  21.635  0.00  0.00    +0.211 HD
ENDBRANCH  12   1
BRANCH  15   2
ATOM      2  O   UNL     1      13.792   7.118  17.013  0.00  0.00    -0.387 OA
ATOM     39  H   UNL     1      13.794   6.230  17.410  0.00  0.00    +0.210 HD
ENDBRANCH  15   2
BRANCH  17   3
ATOM      3  O   UNL     1      11.396   8.633  16.737  0.00  0.00    -0.389 OA
ATOM     40  H   UNL     1      12.195   8.893  16.248  0.00  0.00    +0.210 HD
ENDBRANCH  17   3
TORSDOF 11
ENDMDL
MODEL 3
REMARK VINA RESULT:      -7.5     29.207     32.389
REMARK  Name = 11880092
REMARK  12 active torsions:
REMARK  status: ('A' for Active; 'I' for Inactive)
REMARK    1  A    between atoms: O_1  and  C_12
REMARK    2  A    between atoms: O_2  and  C_15
REMARK    3  A    between atoms: O_3  and  C_17
REMARK    4  A    between atoms: N_8  and  C_13
REMARK    5  A    between atoms: N_9  and  C_19
REMARK    6  A    between atoms: N_10  and  C_24
REMARK    7  A    between atoms: C_12  and  C_18
REMARK    8  A    between atoms: C_19  and  C_21
REMARK    9  A    between atoms: C_19  and  C_22
REMARK   10  A    between atoms: C_21  and  C_23
REMARK   11  A    between atoms: C_34  and  C_35
REMARK   12  A    between atoms: C_35  and  C_36
REMARK                            x       y       z     vdW  Elec       q    Type
REMARK                         _______ _______ _______ _____ _____    ______ ____
ROOT
ATOM     12  C   UNL     1      15.265   7.256  20.310  0.00  0.00    +0.146 C 
ATOM     13  C   UNL     1      17.629   7.101  21.233  0.00  0.00    +0.109 C 
ATOM     14  C   UNL     1      16.391   7.986  21.049  0.00  0.00    +0.069 C 
ATOM     15  C   UNL     1      18.110   6.509  19.902  0.00  0.00    +0.163 C 
ATOM     16  C   UNL     1      15.753   6.689  18.979  0.00  0.00    +0.078 C 
ATOM     17  C   UNL     1      16.983   5.797  19.149  0.00  0.00    +0.148 C 
ENDROOT
BRANCH  13   8
ATOM      5  O   UNL     1      19.668   6.092  22.972  0.00  0.00    -0.252 OA
ATOM      8  N   UNL     1      18.684   7.865  21.861  0.00  0.00    -0.294 N 
ATOM     10  N   UNL     1      20.532   8.266  23.158  0.00  0.00    -0.269 N 
ATOM     20  C   UNL     1      19.644   7.290  22.700  0.00  0.00    +0.304 C 
ATOM     37  H   UNL     1      18.685   8.873  21.748  0.00  0.00    +0.151 HD
ATOM     42  H   UNL     1      20.370   9.217  22.834  0.00  0.00    +0.156 HD
BRANCH  10  24
ATOM     24  C   UNL     1      21.639   8.096  24.022  0.00  0.00    +0.035 A 
ATOM     27  C   UNL     1      22.897   7.889  23.481  0.00  0.00    +0.024 A 
ATOM     28  C   UNL     1      21.442   8.141  25.392  0.00  0.00    +0.024 A 
ATOM     32  C   UNL     1      23.989   7.724  24.333  0.00  0.00    +0.013 A 
ATOM     33  C   UNL     1      22.533   7.975  26.245  0.00  0.00    +0.013 A 
ATOM     34  C   UNL     1      23.806   7.766  25.716  0.00  0.00    +0.017 A 
BRANCH  34  35
ATOM      7  O   UNL     1      26.101   7.895  26.248  0.00  0.00    -0.292 OA
ATOM     35  C   UNL     1      24.945   7.592  26.604  0.00  0.00    +0.160 C 
ATOM     36  C   UNL     1      24.746   7.026  28.006  0.00  0.00    +0.091 C 
ENDBRANCH  34  35
ENDBRANCH  10  24
ENDBRANCH  13   8
BRANCH  12  18
ATOM      4  O   UNL     1      13.993   8.849  19.065  0.00  0.00    -0.273 OA
ATOM      9  N   UNL     1      13.216   8.169  21.152  0.00  0.00    -0.301 N 
ATOM     18  C   UNL     1      14.100   8.174  20.086  0.00  0.00    +0.246 C 
ATOM     41  H   UNL     1      13.335   7.474  21.883  0.00  0.00    +0.150 HD
BRANCH   9  19
ATOM     19  C   UNL     1      12.023   8.984  21.193  0.00  0.00    +0.163 C 
BRANCH  19  22
ATOM      6  O   UNL     1      10.601   8.421  19.306  0.00  0.00    -0.274 OA
ATOM     11  N   UNL     1      10.377   7.214  21.247  0.00  0.00    -0.328 N 
ATOM     22  C   UNL     1      10.929   8.212  20.470  0.00  0.00    +0.231 C 
ATOM     43  H   UNL     1      10.675   7.038  22.201  0.00  0.00    +0.145 HD
ATOM     44  H   UNL     1       9.646   6.615  20.881  0.00  0.00    +0.145 HD
ENDBRANCH  19  22
BRANCH  19  21
ATOM     21  C   UNL     1      11.590   9.309  22.628  0.00  0.00    +0.067 C 
BRANCH  21  23
ATOM     23  C   UNL     1      11.252  10.770  22.810  0.00  0.00    -0.045 A 
ATOM     25  C   UNL     1      10.857  11.224  24.058  0.00  0.00    +0.004 A 
ATOM     26  C   UNL     1      11.345  11.627  21.726  0.00  0.00    +0.004 A 
ATOM     29  C   UNL     1      10.546  12.574  24.225  0.00  0.00    +0.000 A 
ATOM     30  C   UNL     1      11.033  12.977  21.894  0.00  0.00    +0.000 A 
ATOM     31  C   UNL     1      10.634  13.450  23.144  0.00  0.00    +0.000 A 
ENDBRANCH  21  23
ENDBRANCH  19  21
ENDBRANCH   9  19
ENDBRANCH  12  18
BRANCH  12   1
ATOM      1  O   UNL     1      14.752   6.196  21.109  0.00  0.00    -0.379 OA
ATOM     38  H   UNL     1      13.789   6.308  21.185  0.00  0.00    +0.211 HD
ENDBRANCH  12   1
BRANCH  15   2
ATOM      2  O   UNL     1      19.133   5.544  20.163  0.00  0.00    -0.387 OA
ATOM     39  H   UNL     1      19.315   5.074  19.332  0.00  0.00    +0.210 HD
ENDBRANCH  15   2
BRANCH  17   3
ATOM      3  O   UNL     1      17.466   5.426  17.857  0.00  0.00    -0.389 OA
ATOM     40  H   UNL     1      17.887   6.208  17.463  0.00  0.00    +0.210 HD
ENDBRANCH  17   3
TORSDOF 11
ENDMDL
MODEL 4
REMARK VINA RESULT:      -7.4     28.169     30.973
REMARK  Name = 11880092
REMARK  12 active torsions:
REMARK  status: ('A' for Active; 'I' for Inactive)
REMARK    1  A    between atoms: O_1  and  C_12
REMARK    2  A    between atoms: O_2  and  C_15
REMARK    3  A    between atoms: O_3  and  C_17
REMARK    4  A    between atoms: N_8  and  C_13
REMARK    5  A    between atoms: N_9  and  C_19
REMARK    6  A    between atoms: N_10  and  C_24
REMARK    7  A    between atoms: C_12  and  C_18
REMARK    8  A    between atoms: C_19  and  C_21
REMARK    9  A    between atoms: C_19  and  C_22
REMARK   10  A    between atoms: C_21  and  C_23
REMARK   11  A    between atoms: C_34  and  C_35
REMARK   12  A    between atoms: C_35  and  C_36
REMARK                            x       y       z     vdW  Elec       q    Type
REMARK                         _______ _______ _______ _____ _____    ______ ____
ROOT
ATOM     12  C   UNL     1      11.472   8.918  22.074  0.00  0.00    +0.146 C 
ATOM     13  C   UNL     1      12.874   6.988  21.197  0.00  0.00    +0.109 C 
ATOM     14  C   UNL     1      12.826   8.207  22.125  0.00  0.00    +0.069 C 
ATOM     15  C   UNL     1      12.471   7.347  19.762  0.00  0.00    +0.163 C 
ATOM     16  C   UNL     1      11.093   9.287  20.642  0.00  0.00    +0.078 C 
ATOM     17  C   UNL     1      11.127   8.077  19.707  0.00  0.00    +0.148 C 
ENDROOT
BRANCH  13   8
ATOM      5  O   UNL     1      15.361   8.377  20.898  0.00  0.00    -0.252 OA
ATOM      8  N   UNL     1      14.198   6.406  21.225  0.00  0.00    -0.294 N 
ATOM     10  N   UNL     1      16.487   6.333  21.141  0.00  0.00    -0.269 N 
ATOM     20  C   UNL     1      15.365   7.160  21.070  0.00  0.00    +0.304 C 
ATOM     37  H   UNL     1      14.281   5.396  21.285  0.00  0.00    +0.151 HD
ATOM     42  H   UNL     1      16.315   5.342  21.290  0.00  0.00    +0.156 HD
BRANCH  10  24
ATOM     24  C   UNL     1      17.849   6.705  21.032  0.00  0.00    +0.035 A 
ATOM     27  C   UNL     1      18.254   7.941  21.506  0.00  0.00    +0.024 A 
ATOM     28  C   UNL     1      18.748   5.823  20.456  0.00  0.00    +0.024 A 
ATOM     32  C   UNL     1      19.596   8.307  21.401  0.00  0.00    +0.013 A 
ATOM     33  C   UNL     1      20.090   6.188  20.350  0.00  0.00    +0.013 A 
ATOM     34  C   UNL     1      20.514   7.430  20.822  0.00  0.00    +0.017 A 
BRANCH  34  35
ATOM      7  O   UNL     1      22.359   8.353  19.679  0.00  0.00    -0.292 OA
ATOM     35  C   UNL     1      21.913   7.812  20.711  0.00  0.00    +0.160 C 
ATOM     36  C   UNL     1      22.874   7.555  21.866  0.00  0.00    +0.091 C 
ENDBRANCH  34  35
ENDBRANCH  10  24
ENDBRANCH  13   8
BRANCH  12  18
ATOM      4  O   UNL     1      10.467  10.571  23.476  0.00  0.00    -0.273 OA
ATOM      9  N   UNL     1      12.746  10.713  23.021  0.00  0.00    -0.301 N 
ATOM     18  C   UNL     1      11.486  10.144  22.938  0.00  0.00    +0.246 C 
ATOM     41  H   UNL     1      13.539  10.201  22.645  0.00  0.00    +0.150 HD
BRANCH   9  19
ATOM     19  C   UNL     1      13.023  11.915  23.774  0.00  0.00    +0.163 C 
BRANCH  19  22
ATOM      6  O   UNL     1      14.931  12.580  25.121  0.00  0.00    -0.274 OA
ATOM     11  N   UNL     1      15.028  10.582  23.993  0.00  0.00    -0.328 N 
ATOM     22  C   UNL     1      14.418  11.763  24.362  0.00  0.00    +0.231 C 
ATOM     43  H   UNL     1      14.581   9.905  23.382  0.00  0.00    +0.145 HD
ATOM     44  H   UNL     1      15.956  10.350  24.327  0.00  0.00    +0.145 HD
ENDBRANCH  19  22
BRANCH  19  21
ATOM     21  C   UNL     1      12.943  13.176  22.905  0.00  0.00    +0.067 C 
BRANCH  21  23
ATOM     23  C   UNL     1      11.575  13.815  22.943  0.00  0.00    -0.045 A 
ATOM     25  C   UNL     1      10.811  13.851  21.788  0.00  0.00    +0.004 A 
ATOM     26  C   UNL     1      11.110  14.352  24.133  0.00  0.00    +0.004 A 
ATOM     29  C   UNL     1       9.546  14.440  21.824  0.00  0.00    +0.000 A 
ATOM     30  C   UNL     1       9.846  14.942  24.168  0.00  0.00    +0.000 A 
ATOM     31  C   UNL     1       9.064  14.986  23.013  0.00  0.00    +0.000 A 
ENDBRANCH  21  23
ENDBRANCH  19  21
ENDBRANCH   9  19
ENDBRANCH  12  18
BRANCH  12   1
ATOM      1  O   UNL     1      10.454   8.090  22.626  0.00  0.00    -0.379 OA
ATOM     38  H   UNL     1      10.681   7.162  22.442  0.00  0.00    +0.211 HD
ENDBRANCH  12   1
BRANCH  15   2
ATOM      2  O   UNL     1      12.342   6.144  18.999  0.00  0.00    -0.387 OA
ATOM     39  H   UNL     1      11.546   6.228  18.447  0.00  0.00    +0.210 HD
ENDBRANCH  15   2
BRANCH  17   3
ATOM      3  O   UNL     1      10.908   8.522  18.368  0.00  0.00    -0.389 OA
ATOM     40  H   UNL     1      11.544   9.234  18.185  0.00  0.00    +0.210 HD
ENDBRANCH  17   3
TORSDOF 11
ENDMDL
MODEL 5
REMARK VINA RESULT:      -7.3     28.051     31.080
REMARK  Name = 11880092
REMARK  12 active torsions:
REMARK  status: ('A' for Active; 'I' for Inactive)
REMARK    1  A    between atoms: O_1  and  C_12
REMARK    2  A    between atoms: O_2  and  C_15
REMARK    3  A    between atoms: O_3  and  C_17
REMARK    4  A    between atoms: N_8  and  C_13
REMARK    5  A    between atoms: N_9  and  C_19
REMARK    6  A    between atoms: N_10  and  C_24
REMARK    7  A    between atoms: C_12  and  C_18
REMARK    8  A    between atoms: C_19  and  C_21
REMARK    9  A    between atoms: C_19  and  C_22
REMARK   10  A    between atoms: C_21  and  C_23
REMARK   11  A    between atoms: C_34  and  C_35
REMARK   12  A    between atoms: C_35  and  C_36
REMARK                            x       y       z     vdW  Elec       q    Type
REMARK                         _______ _______ _______ _____ _____    ______ ____
ROOT
ATOM     12  C   UNL     1      14.392  11.601  19.947  0.00  0.00    +0.146 C 
ATOM     13  C   UNL     1      15.700  10.268  21.671  0.00  0.00    +0.109 C 
ATOM     14  C   UNL     1      15.101  10.281  20.260  0.00  0.00    +0.069 C 
ATOM     15  C   UNL     1      14.657  10.624  22.738  0.00  0.00    +0.163 C 
ATOM     16  C   UNL     1      13.344  11.933  21.005  0.00  0.00    +0.078 C 
ATOM     17  C   UNL     1      13.930  11.932  22.417  0.00  0.00    +0.148 C 
ENDROOT
BRANCH  13   8
ATOM      5  O   UNL     1      18.281   9.347  20.839  0.00  0.00    -0.252 OA
ATOM      8  N   UNL     1      16.284   8.973  21.941  0.00  0.00    -0.294 N 
ATOM     10  N   UNL     1      17.852   7.301  21.906  0.00  0.00    -0.269 N 
ATOM     20  C   UNL     1      17.557   8.603  21.495  0.00  0.00    +0.304 C 
ATOM     37  H   UNL     1      15.716   8.276  22.412  0.00  0.00    +0.151 HD
ATOM     42  H   UNL     1      17.138   6.821  22.448  0.00  0.00    +0.156 HD
BRANCH  10  24
ATOM     24  C   UNL     1      19.033   6.560  21.660  0.00  0.00    +0.035 A 
ATOM     27  C   UNL     1      19.147   5.835  20.485  0.00  0.00    +0.024 A 
ATOM     28  C   UNL     1      20.051   6.578  22.598  0.00  0.00    +0.024 A 
ATOM     32  C   UNL     1      20.311   5.107  20.242  0.00  0.00    +0.013 A 
ATOM     33  C   UNL     1      21.216   5.850  22.356  0.00  0.00    +0.013 A 
ATOM     34  C   UNL     1      21.346   5.114  21.178  0.00  0.00    +0.017 A 
BRANCH  34  35
ATOM      7  O   UNL     1      23.571   4.889  20.430  0.00  0.00    -0.292 OA
ATOM     35  C   UNL     1      22.559   4.354  20.925  0.00  0.00    +0.160 C 
ATOM     36  C   UNL     1      22.621   2.868  21.263  0.00  0.00    +0.091 C 
ENDBRANCH  34  35
ENDBRANCH  10  24
ENDBRANCH  13   8
BRANCH  12  18
ATOM      4  O   UNL     1      13.543  12.568  17.934  0.00  0.00    -0.273 OA
ATOM      9  N   UNL     1      13.445  10.257  18.204  0.00  0.00    -0.301 N 
ATOM     18  C   UNL     1      13.758  11.550  18.588  0.00  0.00    +0.246 C 
ATOM     41  H   UNL     1      13.790   9.483  18.764  0.00  0.00    +0.150 HD
BRANCH   9  19
ATOM     19  C   UNL     1      12.807   9.939  16.947  0.00  0.00    +0.163 C 
BRANCH  19  22
ATOM      6  O   UNL     1      13.927   8.453  15.384  0.00  0.00    -0.274 OA
ATOM     11  N   UNL     1      14.853  10.514  15.796  0.00  0.00    -0.328 N 
ATOM     22  C   UNL     1      13.906   9.528  15.978  0.00  0.00    +0.231 C 
ATOM     43  H   UNL     1      14.810  11.408  16.277  0.00  0.00    +0.145 HD
ATOM     44  H   UNL     1      15.634  10.375  15.165  0.00  0.00    +0.145 HD
ENDBRANCH  19  22
BRANCH  19  21
ATOM     21  C   UNL     1      11.771   8.816  17.088  0.00  0.00    +0.067 C 
BRANCH  21  23
ATOM     23  C   UNL     1      11.777   8.198  18.467  0.00  0.00    -0.045 A 
ATOM     25  C   UNL     1      10.918   8.692  19.435  0.00  0.00    +0.004 A 
ATOM     26  C   UNL     1      12.641   7.149  18.736  0.00  0.00    +0.004 A 
ATOM     29  C   UNL     1      10.923   8.120  20.708  0.00  0.00    +0.000 A 
ATOM     30  C   UNL     1      12.646   6.578  20.009  0.00  0.00    +0.000 A 
ATOM     31  C   UNL     1      11.786   7.064  20.995  0.00  0.00    +0.000 A 
ENDBRANCH  21  23
ENDBRANCH  19  21
ENDBRANCH   9  19
ENDBRANCH  12  18
BRANCH  12   1
ATOM      1  O   UNL     1      15.334  12.666  19.874  0.00  0.00    -0.379 OA
ATOM     38  H   UNL     1      16.219  12.284  19.751  0.00  0.00    +0.211 HD
ENDBRANCH  12   1
BRANCH  15   2
ATOM      2  O   UNL     1      15.315  10.791  23.997  0.00  0.00    -0.387 OA
ATOM     39  H   UNL     1      16.245  10.531  23.881  0.00  0.00    +0.210 HD
ENDBRANCH  15   2
BRANCH  17   3
ATOM      3  O   UNL     1      12.870  12.103  23.358  0.00  0.00    -0.389 OA
ATOM     40  H   UNL     1      12.275  11.339  23.275  0.00  0.00    +0.210 HD
ENDBRANCH  17   3
TORSDOF 11
ENDMDL
MODEL 6
REMARK VINA RESULT:      -7.2     24.132     27.516
REMARK  Name = 11880092
REMARK  12 active torsions:
REMARK  status: ('A' for Active; 'I' for Inactive)
REMARK    1  A    between atoms: O_1  and  C_12
REMARK    2  A    between atoms: O_2  and  C_15
REMARK    3  A    between atoms: O_3  and  C_17
REMARK    4  A    between atoms: N_8  and  C_13
REMARK    5  A    between atoms: N_9  and  C_19
REMARK    6  A    between atoms: N_10  and  C_24
REMARK    7  A    between atoms: C_12  and  C_18
REMARK    8  A    between atoms: C_19  and  C_21
REMARK    9  A    between atoms: C_19  and  C_22
REMARK   10  A    between atoms: C_21  and  C_23
REMARK   11  A    between atoms: C_34  and  C_35
REMARK   12  A    between atoms: C_35  and  C_36
REMARK                            x       y       z     vdW  Elec       q    Type
REMARK                         _______ _______ _______ _____ _____    ______ ____
ROOT
ATOM     12  C   UNL     1       9.696   7.955   6.990  0.00  0.00    +0.146 C 
ATOM     13  C   UNL     1      10.438   5.649   6.218  0.00  0.00    +0.109 C 
ATOM     14  C   UNL     1       9.807   6.986   5.811  0.00  0.00    +0.069 C 
ATOM     15  C   UNL     1       9.712   5.015   7.411  0.00  0.00    +0.163 C 
ATOM     16  C   UNL     1       8.954   7.317   8.163  0.00  0.00    +0.078 C 
ATOM     17  C   UNL     1       9.579   5.987   8.585  0.00  0.00    +0.148 C 
ENDROOT
BRANCH  13   8
ATOM      5  O   UNL     1      11.772   6.052   3.716  0.00  0.00    -0.252 OA
ATOM      8  N   UNL     1      10.444   4.748   5.087  0.00  0.00    -0.294 N 
ATOM     10  N   UNL     1      10.952   3.976   2.989  0.00  0.00    -0.269 N 
ATOM     20  C   UNL     1      11.125   5.024   3.897  0.00  0.00    +0.304 C 
ATOM     37  H   UNL     1       9.869   3.913   5.131  0.00  0.00    +0.151 HD
ATOM     42  H   UNL     1      10.384   3.192   3.300  0.00  0.00    +0.156 HD
BRANCH  10  24
ATOM     24  C   UNL     1      11.475   3.869   1.678  0.00  0.00    +0.035 A 
ATOM     27  C   UNL     1      10.729   4.335   0.609  0.00  0.00    +0.024 A 
ATOM     28  C   UNL     1      12.725   3.301   1.493  0.00  0.00    +0.024 A 
ATOM     32  C   UNL     1      11.246   4.230  -0.682  0.00  0.00    +0.013 A 
ATOM     33  C   UNL     1      13.243   3.196   0.202  0.00  0.00    +0.013 A 
ATOM     34  C   UNL     1      12.503   3.661  -0.886  0.00  0.00    +0.017 A 
BRANCH  34  35
ATOM      7  O   UNL     1      14.008   4.245  -2.605  0.00  0.00    -0.292 OA
ATOM     35  C   UNL     1      13.041   3.551  -2.233  0.00  0.00    +0.160 C 
ATOM     36  C   UNL     1      12.426   2.574  -3.229  0.00  0.00    +0.091 C 
ENDBRANCH  34  35
ENDBRANCH  10  24
ENDBRANCH  13   8
BRANCH  12  18
ATOM      4  O   UNL     1       9.015  10.226   7.277  0.00  0.00    -0.273 OA
ATOM      9  N   UNL     1       8.382   9.095   5.343  0.00  0.00    -0.301 N 
ATOM     18  C   UNL     1       9.010   9.221   6.570  0.00  0.00    +0.246 C 
ATOM     41  H   UNL     1       8.557   8.263   4.787  0.00  0.00    +0.150 HD
BRANCH   9  19
ATOM     19  C   UNL     1       7.633  10.166   4.725  0.00  0.00    +0.163 C 
BRANCH  19  22
ATOM      6  O   UNL     1       9.285  10.908   3.106  0.00  0.00    -0.274 OA
ATOM     11  N   UNL     1       8.730  12.317   4.833  0.00  0.00    -0.328 N 
ATOM     22  C   UNL     1       8.645  11.134   4.129  0.00  0.00    +0.231 C 
ATOM     43  H   UNL     1       8.177  12.499   5.665  0.00  0.00    +0.145 HD
ATOM     44  H   UNL     1       9.357  13.056   4.535  0.00  0.00    +0.145 HD
ENDBRANCH  19  22
BRANCH  19  21
ATOM     21  C   UNL     1       6.677   9.656   3.640  0.00  0.00    +0.067 C 
BRANCH  21  23
ATOM     23  C   UNL     1       5.416  10.482   3.549  0.00  0.00    -0.045 A 
ATOM     25  C   UNL     1       4.581  10.327   2.455  0.00  0.00    +0.004 A 
ATOM     26  C   UNL     1       5.118  11.377   4.564  0.00  0.00    +0.004 A 
ATOM     29  C   UNL     1       3.416  11.090   2.372  0.00  0.00    +0.000 A 
ATOM     30  C   UNL     1       3.953  12.140   4.480  0.00  0.00    +0.000 A 
ATOM     31  C   UNL     1       3.101  11.996   3.384  0.00  0.00    +0.000 A 
ENDBRANCH  21  23
ENDBRANCH  19  21
ENDBRANCH   9  19
ENDBRANCH  12  18
BRANCH  12   1
ATOM      1  O   UNL     1      10.989   8.361   7.424  0.00  0.00    -0.379 OA
ATOM     38  H   UNL     1      11.482   7.571   7.702  0.00  0.00    +0.211 HD
ENDBRANCH  12   1
BRANCH  15   2
ATOM      2  O   UNL     1      10.461   3.885   7.866  0.00  0.00    -0.387 OA
ATOM     39  H   UNL     1      10.290   3.151   7.253  0.00  0.00    +0.210 HD
ENDBRANCH  15   2
BRANCH  17   3
ATOM      3  O   UNL     1       8.751   5.384   9.580  0.00  0.00    -0.389 OA
ATOM     40  H   UNL     1       8.128   6.060   9.896  0.00  0.00    +0.210 HD
ENDBRANCH  17   3
TORSDOF 11
ENDMDL
MODEL 7
REMARK VINA RESULT:      -7.2     28.111     31.043
REMARK  Name = 11880092
REMARK  12 active torsions:
REMARK  status: ('A' for Active; 'I' for Inactive)
REMARK    1  A    between atoms: O_1  and  C_12
REMARK    2  A    between atoms: O_2  and  C_15
REMARK    3  A    between atoms: O_3  and  C_17
REMARK    4  A    between atoms: N_8  and  C_13
REMARK    5  A    between atoms: N_9  and  C_19
REMARK    6  A    between atoms: N_10  and  C_24
REMARK    7  A    between atoms: C_12  and  C_18
REMARK    8  A    between atoms: C_19  and  C_21
REMARK    9  A    between atoms: C_19  and  C_22
REMARK   10  A    between atoms: C_21  and  C_23
REMARK   11  A    between atoms: C_34  and  C_35
REMARK   12  A    between atoms: C_35  and  C_36
REMARK                            x       y       z     vdW  Elec       q    Type
REMARK                         _______ _______ _______ _____ _____    ______ ____
ROOT
ATOM     12  C   UNL     1      11.714   9.611  22.255  0.00  0.00    +0.146 C 
ATOM     13  C   UNL     1      13.605   8.333  21.135  0.00  0.00    +0.109 C 
ATOM     14  C   UNL     1      13.220   9.548  21.987  0.00  0.00    +0.069 C 
ATOM     15  C   UNL     1      12.791   8.267  19.836  0.00  0.00    +0.163 C 
ATOM     16  C   UNL     1      10.918   9.564  20.953  0.00  0.00    +0.078 C 
ATOM     17  C   UNL     1      11.285   8.352  20.097  0.00  0.00    +0.148 C 
ENDROOT
BRANCH  13   8
ATOM      5  O   UNL     1      15.514   6.270  21.680  0.00  0.00    -0.252 OA
ATOM      8  N   UNL     1      15.022   8.369  20.847  0.00  0.00    -0.294 N 
ATOM     10  N   UNL     1      17.190   7.630  20.756  0.00  0.00    -0.269 N 
ATOM     20  C   UNL     1      15.887   7.313  21.148  0.00  0.00    +0.304 C 
ATOM     37  H   UNL     1      15.418   9.227  20.477  0.00  0.00    +0.151 HD
ATOM     42  H   UNL     1      17.328   8.540  20.325  0.00  0.00    +0.156 HD
BRANCH  10  24
ATOM     24  C   UNL     1      18.353   6.833  20.885  0.00  0.00    +0.035 A 
ATOM     27  C   UNL     1      19.227   7.073  21.931  0.00  0.00    +0.024 A 
ATOM     28  C   UNL     1      18.590   5.828  19.962  0.00  0.00    +0.024 A 
ATOM     32  C   UNL     1      20.372   6.287  22.059  0.00  0.00    +0.013 A 
ATOM     33  C   UNL     1      19.735   5.041  20.089  0.00  0.00    +0.013 A 
ATOM     34  C   UNL     1      20.626   5.271  21.137  0.00  0.00    +0.017 A 
BRANCH  34  35
ATOM      7  O   UNL     1      21.854   3.470  22.037  0.00  0.00    -0.292 OA
ATOM     35  C   UNL     1      21.821   4.452  21.269  0.00  0.00    +0.160 C 
ATOM     36  C   UNL     1      23.072   4.781  20.464  0.00  0.00    +0.091 C 
ENDBRANCH  34  35
ENDBRANCH  10  24
ENDBRANCH  13   8
BRANCH  12  18
ATOM      4  O   UNL     1      10.706  10.801  24.064  0.00  0.00    -0.273 OA
ATOM      9  N   UNL     1      11.857  11.996  22.431  0.00  0.00    -0.301 N 
ATOM     18  C   UNL     1      11.368  10.848  23.030  0.00  0.00    +0.246 C 
ATOM     41  H   UNL     1      12.502  11.905  21.652  0.00  0.00    +0.150 HD
BRANCH   9  19
ATOM     19  C   UNL     1      11.640  13.321  22.967  0.00  0.00    +0.163 C 
BRANCH  19  22
ATOM      6  O   UNL     1      12.945  14.249  24.794  0.00  0.00    -0.274 OA
ATOM     11  N   UNL     1      14.056  13.405  22.970  0.00  0.00    -0.328 N 
ATOM     22  C   UNL     1      12.920  13.729  23.682  0.00  0.00    +0.231 C 
ATOM     43  H   UNL     1      14.020  12.954  22.061  0.00  0.00    +0.145 HD
ATOM     44  H   UNL     1      14.977  13.610  23.339  0.00  0.00    +0.145 HD
ENDBRANCH  19  22
BRANCH  19  21
ATOM     21  C   UNL     1      11.289  14.340  21.876  0.00  0.00    +0.067 C 
BRANCH  21  23
ATOM     23  C   UNL     1       9.823  14.703  21.878  0.00  0.00    -0.045 A 
ATOM     25  C   UNL     1       9.167  14.867  23.087  0.00  0.00    +0.004 A 
ATOM     26  C   UNL     1       9.163  14.867  20.671  0.00  0.00    +0.004 A 
ATOM     29  C   UNL     1       7.812  15.203  23.089  0.00  0.00    +0.000 A 
ATOM     30  C   UNL     1       7.809  15.202  20.673  0.00  0.00    +0.000 A 
ATOM     31  C   UNL     1       7.133  15.371  21.882  0.00  0.00    +0.000 A 
ENDBRANCH  21  23
ENDBRANCH  19  21
ENDBRANCH   9  19
ENDBRANCH  12  18
BRANCH  12   1
ATOM      1  O   UNL     1      11.311   8.529  23.087  0.00  0.00    -0.379 OA
ATOM     38  H   UNL     1      10.473   8.769  23.517  0.00  0.00    +0.211 HD
ENDBRANCH  12   1
BRANCH  15   2
ATOM      2  O   UNL     1      13.049   7.018  19.187  0.00  0.00    -0.387 OA
ATOM     39  H   UNL     1      12.408   6.924  18.463  0.00  0.00    +0.210 HD
ENDBRANCH  15   2
BRANCH  17   3
ATOM      3  O   UNL     1      10.614   8.453  18.841  0.00  0.00    -0.389 OA
ATOM     40  H   UNL     1      10.943   7.739  18.270  0.00  0.00    +0.210 HD
ENDBRANCH  17   3
TORSDOF 11
ENDMDL
MODEL 8
REMARK VINA RESULT:      -7.1     27.730     30.773
REMARK  Name = 11880092
REMARK  12 active torsions:
REMARK  status: ('A' for Active; 'I' for Inactive)
REMARK    1  A    between atoms: O_1  and  C_12
REMARK    2  A    between atoms: O_2  and  C_15
REMARK    3  A    between atoms: O_3  and  C_17
REMARK    4  A    between atoms: N_8  and  C_13
REMARK    5  A    between atoms: N_9  and  C_19
REMARK    6  A    between atoms: N_10  and  C_24
REMARK    7  A    between atoms: C_12  and  C_18
REMARK    8  A    between atoms: C_19  and  C_21
REMARK    9  A    between atoms: C_19  and  C_22
REMARK   10  A    between atoms: C_21  and  C_23
REMARK   11  A    between atoms: C_34  and  C_35
REMARK   12  A    between atoms: C_35  and  C_36
REMARK                            x       y       z     vdW  Elec       q    Type
REMARK                         _______ _______ _______ _____ _____    ______ ____
ROOT
ATOM     12  C   UNL     1      11.793   8.513  20.346  0.00  0.00    +0.146 C 
ATOM     13  C   UNL     1      13.934   7.654  19.279  0.00  0.00    +0.109 C 
ATOM     14  C   UNL     1      13.322   8.499  20.402  0.00  0.00    +0.069 C 
ATOM     15  C   UNL     1      13.417   8.080  17.899  0.00  0.00    +0.163 C 
ATOM     16  C   UNL     1      11.293   8.957  18.973  0.00  0.00    +0.078 C 
ATOM     17  C   UNL     1      11.888   8.116  17.844  0.00  0.00    +0.148 C 
ENDROOT
BRANCH  13   8
ATOM      5  O   UNL     1      15.690   6.030  20.853  0.00  0.00    -0.252 OA
ATOM      8  N   UNL     1      15.376   7.742  19.332  0.00  0.00    -0.294 N 
ATOM     10  N   UNL     1      17.513   7.222  19.978  0.00  0.00    -0.269 N 
ATOM     20  C   UNL     1      16.161   6.906  20.132  0.00  0.00    +0.304 C 
ATOM     37  H   UNL     1      15.834   8.492  18.824  0.00  0.00    +0.151 HD
ATOM     42  H   UNL     1      17.735   7.979  19.336  0.00  0.00    +0.156 HD
BRANCH  10  24
ATOM     24  C   UNL     1      18.624   6.612  20.609  0.00  0.00    +0.035 A 
ATOM     27  C   UNL     1      19.077   7.114  21.818  0.00  0.00    +0.024 A 
ATOM     28  C   UNL     1      19.233   5.525  20.006  0.00  0.00    +0.024 A 
ATOM     32  C   UNL     1      20.171   6.512  22.441  0.00  0.00    +0.013 A 
ATOM     33  C   UNL     1      20.326   4.922  20.628  0.00  0.00    +0.013 A 
ATOM     34  C   UNL     1      20.796   5.416  21.845  0.00  0.00    +0.017 A 
BRANCH  34  35
ATOM      7  O   UNL     1      22.684   5.432  23.258  0.00  0.00    -0.292 OA
ATOM     35  C   UNL     1      21.936   4.789  22.494  0.00  0.00    +0.160 C 
ATOM     36  C   UNL     1      22.247   3.317  22.250  0.00  0.00    +0.091 C 
ENDBRANCH  34  35
ENDBRANCH  10  24
ENDBRANCH  13   8
BRANCH  12  18
ATOM      4  O   UNL     1      10.271   9.071  22.101  0.00  0.00    -0.273 OA
ATOM      9  N   UNL     1      11.910  10.611  21.497  0.00  0.00    -0.301 N 
ATOM     18  C   UNL     1      11.233   9.406  21.414  0.00  0.00    +0.246 C 
ATOM     41  H   UNL     1      12.771  10.726  20.973  0.00  0.00    +0.150 HD
BRANCH   9  19
ATOM     19  C   UNL     1      11.553  11.654  22.432  0.00  0.00    +0.163 C 
BRANCH  19  22
ATOM      6  O   UNL     1      13.301  11.481  24.110  0.00  0.00    -0.274 OA
ATOM     11  N   UNL     1      11.207  10.687  24.620  0.00  0.00    -0.328 N 
ATOM     22  C   UNL     1      12.138  11.265  23.782  0.00  0.00    +0.231 C 
ATOM     43  H   UNL     1      10.242  10.535  24.343  0.00  0.00    +0.145 HD
ATOM     44  H   UNL     1      11.462  10.393  25.556  0.00  0.00    +0.145 HD
ENDBRANCH  19  22
BRANCH  19  21
ATOM     21  C   UNL     1      12.078  13.029  21.998  0.00  0.00    +0.067 C 
BRANCH  21  23
ATOM     23  C   UNL     1      13.116  12.929  20.906  0.00  0.00    -0.045 A 
ATOM     25  C   UNL     1      14.447  12.763  21.248  0.00  0.00    +0.004 A 
ATOM     26  C   UNL     1      12.716  13.005  19.581  0.00  0.00    +0.004 A 
ATOM     29  C   UNL     1      15.406  12.670  20.239  0.00  0.00    +0.000 A 
ATOM     30  C   UNL     1      13.674  12.913  18.572  0.00  0.00    +0.000 A 
ATOM     31  C   UNL     1      15.020  12.745  18.901  0.00  0.00    +0.000 A 
ENDBRANCH  21  23
ENDBRANCH  19  21
ENDBRANCH   9  19
ENDBRANCH  12  18
BRANCH  12   1
ATOM      1  O   UNL     1      11.272   7.221  20.635  0.00  0.00    -0.379 OA
ATOM     38  H   UNL     1      10.427   7.119  20.166  0.00  0.00    +0.211 HD
ENDBRANCH  12   1
BRANCH  15   2
ATOM      2  O   UNL     1      13.863   7.134  16.922  0.00  0.00    -0.387 OA
ATOM     39  H   UNL     1      14.834   7.103  16.964  0.00  0.00    +0.210 HD
ENDBRANCH  15   2
BRANCH  17   3
ATOM      3  O   UNL     1      11.494   8.680  16.592  0.00  0.00    -0.389 OA
ATOM     40  H   UNL     1      12.192   9.295  16.311  0.00  0.00    +0.210 HD
ENDBRANCH  17   3
TORSDOF 11
ENDMDL
MODEL 9
REMARK VINA RESULT:      -7.1     28.095     30.464
REMARK  Name = 11880092
REMARK  12 active torsions:
REMARK  status: ('A' for Active; 'I' for Inactive)
REMARK    1  A    between atoms: O_1  and  C_12
REMARK    2  A    between atoms: O_2  and  C_15
REMARK    3  A    between atoms: O_3  and  C_17
REMARK    4  A    between atoms: N_8  and  C_13
REMARK    5  A    between atoms: N_9  and  C_19
REMARK    6  A    between atoms: N_10  and  C_24
REMARK    7  A    between atoms: C_12  and  C_18
REMARK    8  A    between atoms: C_19  and  C_21
REMARK    9  A    between atoms: C_19  and  C_22
REMARK   10  A    between atoms: C_21  and  C_23
REMARK   11  A    between atoms: C_34  and  C_35
REMARK   12  A    between atoms: C_35  and  C_36
REMARK                            x       y       z     vdW  Elec       q    Type
REMARK                         _______ _______ _______ _____ _____    ______ ____
ROOT
ATOM     12  C   UNL     1      12.119   9.480  22.237  0.00  0.00    +0.146 C 
ATOM     13  C   UNL     1      12.585   9.004  19.784  0.00  0.00    +0.109 C 
ATOM     14  C   UNL     1      12.196  10.061  20.823  0.00  0.00    +0.069 C 
ATOM     15  C   UNL     1      11.667   7.777  19.847  0.00  0.00    +0.163 C 
ATOM     16  C   UNL     1      11.187   8.272  22.289  0.00  0.00    +0.078 C 
ATOM     17  C   UNL     1      11.569   7.204  21.263  0.00  0.00    +0.148 C 
ENDROOT
BRANCH  13   8
ATOM      5  O   UNL     1      14.788  10.217  18.413  0.00  0.00    -0.252 OA
ATOM      8  N   UNL     1      12.563   9.589  18.461  0.00  0.00    -0.294 N 
ATOM     10  N   UNL     1      13.369  10.643  16.592  0.00  0.00    -0.269 N 
ATOM     20  C   UNL     1      13.690  10.163  17.864  0.00  0.00    +0.304 C 
ATOM     37  H   UNL     1      11.675   9.652  17.975  0.00  0.00    +0.151 HD
ATOM     42  H   UNL     1      12.408  10.516  16.286  0.00  0.00    +0.156 HD
BRANCH  10  24
ATOM     24  C   UNL     1      14.224  11.289  15.667  0.00  0.00    +0.035 A 
ATOM     27  C   UNL     1      15.174  10.545  14.987  0.00  0.00    +0.024 A 
ATOM     28  C   UNL     1      14.092  12.651  15.461  0.00  0.00    +0.024 A 
ATOM     32  C   UNL     1      16.015  11.181  14.074  0.00  0.00    +0.013 A 
ATOM     33  C   UNL     1      14.932  13.289  14.548  0.00  0.00    +0.013 A 
ATOM     34  C   UNL     1      15.894  12.554  13.855  0.00  0.00    +0.017 A 
BRANCH  34  35
ATOM      7  O   UNL     1      17.111  12.666  11.837  0.00  0.00    -0.292 OA
ATOM     35  C   UNL     1      16.772  13.217  12.904  0.00  0.00    +0.160 C 
ATOM     36  C   UNL     1      17.304  14.616  13.195  0.00  0.00    +0.091 C 
ENDBRANCH  34  35
ENDBRANCH  10  24
ENDBRANCH  13   8
BRANCH  12  18
ATOM      4  O   UNL     1      10.478  10.707  23.465  0.00  0.00    -0.273 OA
ATOM      9  N   UNL     1      12.728  11.236  23.750  0.00  0.00    -0.301 N 
ATOM     18  C   UNL     1      11.667  10.525  23.214  0.00  0.00    +0.246 C 
ATOM     41  H   UNL     1      13.674  10.911  23.572  0.00  0.00    +0.150 HD
BRANCH   9  19
ATOM     19  C   UNL     1      12.559  12.312  24.699  0.00  0.00    +0.163 C 
BRANCH  19  22
ATOM      6  O   UNL     1      14.609  11.414  25.644  0.00  0.00    -0.274 OA
ATOM     11  N   UNL     1      13.385  12.904  26.892  0.00  0.00    -0.328 N 
ATOM     22  C   UNL     1      13.621  12.133  25.773  0.00  0.00    +0.231 C 
ATOM     43  H   UNL     1      12.575  13.511  26.975  0.00  0.00    +0.145 HD
ATOM     44  H   UNL     1      14.024  12.890  27.678  0.00  0.00    +0.145 HD
ENDBRANCH  19  22
BRANCH  19  21
ATOM     21  C   UNL     1      12.689  13.692  24.042  0.00  0.00    +0.067 C 
BRANCH  21  23
ATOM     23  C   UNL     1      11.438  14.097  23.300  0.00  0.00    -0.045 A 
ATOM     25  C   UNL     1      11.451  14.130  21.916  0.00  0.00    +0.004 A 
ATOM     26  C   UNL     1      10.299  14.426  24.019  0.00  0.00    +0.004 A 
ATOM     29  C   UNL     1      10.294  14.503  21.230  0.00  0.00    +0.000 A 
ATOM     30  C   UNL     1       9.143  14.800  23.334  0.00  0.00    +0.000 A 
ATOM     31  C   UNL     1       9.140  14.838  21.939  0.00  0.00    +0.000 A 
ENDBRANCH  21  23
ENDBRANCH  19  21
ENDBRANCH   9  19
ENDBRANCH  12  18
BRANCH  12   1
ATOM      1  O   UNL     1      13.412   9.090  22.686  0.00  0.00    -0.379 OA
ATOM     38  H   UNL     1      14.044   9.788  22.444  0.00  0.00    +0.211 HD
ENDBRANCH  12   1
BRANCH  15   2
ATOM      2  O   UNL     1      12.198   6.753  19.001  0.00  0.00    -0.387 OA
ATOM     39  H   UNL     1      11.944   5.895  19.381  0.00  0.00    +0.210 HD
ENDBRANCH  15   2
BRANCH  17   3
ATOM      3  O   UNL     1      10.574   6.180  21.270  0.00  0.00    -0.389 OA
ATOM     40  H   UNL     1      10.858   5.488  20.650  0.00  0.00    +0.210 HD
ENDBRANCH  17   3
TORSDOF 11
ENDMDL
MODEL 10
REMARK VINA RESULT:      -7.0     24.083     27.535
REMARK  Name = 11880092
REMARK  12 active torsions:
REMARK  status: ('A' for Active; 'I' for Inactive)
REMARK    1  A    between atoms: O_1  and  C_12
REMARK    2  A    between atoms: O_2  and  C_15
REMARK    3  A    between atoms: O_3  and  C_17
REMARK    4  A    between atoms: N_8  and  C_13
REMARK    5  A    between atoms: N_9  and  C_19
REMARK    6  A    between atoms: N_10  and  C_24
REMARK    7  A    between atoms: C_12  and  C_18
REMARK    8  A    between atoms: C_19  and  C_21
REMARK    9  A    between atoms: C_19  and  C_22
REMARK   10  A    between atoms: C_21  and  C_23
REMARK   11  A    between atoms: C_34  and  C_35
REMARK   12  A    between atoms: C_35  and  C_36
REMARK                            x       y       z     vdW  Elec       q    Type
REMARK                         _______ _______ _______ _____ _____    ______ ____
ROOT
ATOM     12  C   UNL     1       9.662   7.888   7.142  0.00  0.00    +0.146 C 
ATOM     13  C   UNL     1      10.417   5.600   6.330  0.00  0.00    +0.109 C 
ATOM     14  C   UNL     1       9.765   6.934   5.949  0.00  0.00    +0.069 C 
ATOM     15  C   UNL     1       9.718   4.944   7.527  0.00  0.00    +0.163 C 
ATOM     16  C   UNL     1       8.946   7.228   8.318  0.00  0.00    +0.078 C 
ATOM     17  C   UNL     1       9.593   5.901   8.715  0.00  0.00    +0.148 C 
ENDROOT
BRANCH  13   8
ATOM      5  O   UNL     1      11.772   6.010   3.841  0.00  0.00    -0.252 OA
ATOM      8  N   UNL     1      10.415   4.712   5.189  0.00  0.00    -0.294 N 
ATOM     10  N   UNL     1      10.922   3.957   3.085  0.00  0.00    -0.269 N 
ATOM     20  C   UNL     1      11.107   4.990   4.006  0.00  0.00    +0.304 C 
ATOM     37  H   UNL     1       9.826   3.887   5.220  0.00  0.00    +0.151 HD
ATOM     42  H   UNL     1      10.340   3.179   3.383  0.00  0.00    +0.156 HD
BRANCH  10  24
ATOM     24  C   UNL     1      11.452   3.856   1.776  0.00  0.00    +0.035 A 
ATOM     27  C   UNL     1      12.717   3.323   1.595  0.00  0.00    +0.024 A 
ATOM     28  C   UNL     1      10.691   4.290   0.703  0.00  0.00    +0.024 A 
ATOM     32  C   UNL     1      13.237   3.221   0.305  0.00  0.00    +0.013 A 
ATOM     33  C   UNL     1      11.211   4.190  -0.587  0.00  0.00    +0.013 A 
ATOM     34  C   UNL     1      12.484   3.656  -0.786  0.00  0.00    +0.017 A 
BRANCH  34  35
ATOM      7  O   UNL     1      14.027   4.209  -2.482  0.00  0.00    -0.292 OA
ATOM     35  C   UNL     1      13.027   3.551  -2.132  0.00  0.00    +0.160 C 
ATOM     36  C   UNL     1      12.378   2.625  -3.153  0.00  0.00    +0.091 C 
ENDBRANCH  34  35
ENDBRANCH  10  24
ENDBRANCH  13   8
BRANCH  12  18
ATOM      4  O   UNL     1       8.838  10.097   7.523  0.00  0.00    -0.273 OA
ATOM      9  N   UNL     1       8.458   9.093   5.457  0.00  0.00    -0.301 N 
ATOM     18  C   UNL     1       8.955   9.151   6.748  0.00  0.00    +0.246 C 
ATOM     41  H   UNL     1       8.729   8.315   4.863  0.00  0.00    +0.150 HD
BRANCH   9  19
ATOM     19  C   UNL     1       7.717  10.174   4.846  0.00  0.00    +0.163 C 
BRANCH  19  22
ATOM      6  O   UNL     1       8.429  12.335   3.994  0.00  0.00    -0.274 OA
ATOM     11  N   UNL     1      10.036  10.794   4.559  0.00  0.00    -0.328 N 
ATOM     22  C   UNL     1       8.732  11.217   4.404  0.00  0.00    +0.231 C 
ATOM     43  H   UNL     1      10.272   9.875   4.920  0.00  0.00    +0.145 HD
ATOM     44  H   UNL     1      10.812  11.398   4.314  0.00  0.00    +0.145 HD
ENDBRANCH  19  22
BRANCH  19  21
ATOM     21  C   UNL     1       6.879   9.702   3.651  0.00  0.00    +0.067 C 
BRANCH  21  23
ATOM     23  C   UNL     1       7.732   9.163   2.527  0.00  0.00    -0.045 A 
ATOM     25  C   UNL     1       7.696   9.786   1.290  0.00  0.00    +0.004 A 
ATOM     26  C   UNL     1       8.536   8.058   2.756  0.00  0.00    +0.004 A 
ATOM     29  C   UNL     1       8.485   9.288   0.252  0.00  0.00    +0.000 A 
ATOM     30  C   UNL     1       9.324   7.561   1.717  0.00  0.00    +0.000 A 
ATOM     31  C   UNL     1       9.299   8.176   0.465  0.00  0.00    +0.000 A 
ENDBRANCH  21  23
ENDBRANCH  19  21
ENDBRANCH   9  19
ENDBRANCH  12  18
BRANCH  12   1
ATOM      1  O   UNL     1      10.957   8.304   7.559  0.00  0.00    -0.379 OA
ATOM     38  H   UNL     1      11.558   7.542   7.499  0.00  0.00    +0.211 HD
ENDBRANCH  12   1
BRANCH  15   2
ATOM      2  O   UNL     1      10.487   3.817   7.957  0.00  0.00    -0.387 OA
ATOM     39  H   UNL     1       9.871   3.163   8.326  0.00  0.00    +0.210 HD
ENDBRANCH  15   2
BRANCH  17   3
ATOM      3  O   UNL     1       8.788   5.277   9.717  0.00  0.00    -0.389 OA
ATOM     40  H   UNL     1       8.394   5.980  10.260  0.00  0.00    +0.210 HD
ENDBRANCH  17   3
TORSDOF 11
ENDMDL
