REMARK  Name = 45361709
REMARK  11 active torsions:
REMARK  status: ('A' for Active; 'I' for Inactive)
REMARK    1  A    between atoms: S_1  and  N_7
REMARK    2  A    between atoms: S_1  and  C_20
REMARK    3  A    between atoms: N_9  and  C_19
REMARK    4  A    between atoms: N_12  and  C_33
REMARK    5  A    between atoms: N_12  and  C_37
REMARK    6  A    between atoms: N_12  and  C_38
REMARK    7  A    between atoms: C_13  and  C_17
REMARK    8  A    between atoms: C_18  and  C_22
REMARK    9  A    between atoms: C_19  and  C_21
REMARK   10  A    between atoms: C_19  and  C_24
REMARK   11  A    between atoms: C_21  and  C_23
REMARK                            x       y       z     vdW  Elec       q    Type
REMARK                         _______ _______ _______ _____ _____    ______ ____
ROOT
ATOM      5  O   UNL     1       0.325  -5.161   0.526  0.00  0.00    -0.270 OA
ATOM      7  N   UNL     1       3.444  -1.327   0.746  0.00  0.00    -0.167 NA
ATOM      8  N   UNL     1       1.163  -3.026   0.971  0.00  0.00    -0.294 N 
ATOM     13  C   UNL     1       2.100  -0.863   0.267  0.00  0.00    +0.182 C 
ATOM     14  C   UNL     1       0.998  -1.572   1.054  0.00  0.00    +0.138 C 
ATOM     15  C   UNL     1       3.579  -2.819   0.644  0.00  0.00    +0.129 C 
ATOM     16  C   UNL     1       2.465  -3.501   1.428  0.00  0.00    +0.125 C 
ATOM     18  C   UNL     1       0.194  -3.938   0.552  0.00  0.00    +0.247 C 
ENDROOT
BRANCH  18  22
ATOM     22  C   UNL     1      -1.096  -3.414   0.086  0.00  0.00    +0.037 A 
ATOM     28  C   UNL     1      -1.277  -3.106  -1.263  0.00  0.00    +0.015 A 
ATOM     29  C   UNL     1      -2.140  -3.222   0.991  0.00  0.00    +0.015 A 
ATOM     31  C   UNL     1      -2.502  -2.606  -1.706  0.00  0.00    +0.024 A 
ATOM     32  C   UNL     1      -3.365  -2.722   0.548  0.00  0.00    +0.024 A 
ATOM     33  C   UNL     1      -3.545  -2.414  -0.800  0.00  0.00    +0.029 A 
BRANCH  33  12
ATOM     12  N   UNL     1      -4.784  -1.910  -1.248  0.00  0.00    -0.336 N 
ATOM     37  C   UNL     1      -4.983  -1.587  -2.647  0.00  0.00    +0.129 C 
ATOM     38  C   UNL     1      -5.877  -1.714  -0.316  0.00  0.00    +0.129 C 
ENDBRANCH  33  12
ENDBRANCH  18  22
BRANCH   7   1
ATOM      1  S   UNL     1       4.818  -0.471   0.155  0.00  0.00    +0.030 S 
ATOM      2  O   UNL     1       5.994  -0.994   0.809  0.00  0.00    -0.158 OA
ATOM      3  O   UNL     1       4.506   0.937   0.143  0.00  0.00    -0.158 OA
ATOM     20  C   UNL     1       4.806  -1.058  -1.518  0.00  0.00    +0.215 C 
ENDBRANCH   7   1
BRANCH  13  17
ATOM      4  O   UNL     1       2.047   1.089   1.628  0.00  0.00    -0.274 OA
ATOM      9  N   UNL     1       1.757   1.306  -0.671  0.00  0.00    -0.302 N 
ATOM     17  C   UNL     1       1.976   0.604   0.502  0.00  0.00    +0.234 C 
ATOM     39  H   UNL     1       1.750   0.809  -1.558  0.00  0.00    +0.150 HD
BRANCH   9  19
ATOM     19  C   UNL     1       1.579   2.739  -0.714  0.00  0.00    +0.163 C 
BRANCH  19  24
ATOM      6  O   UNL     1       3.243   2.741  -2.485  0.00  0.00    -0.274 OA
ATOM     11  N   UNL     1       3.122   4.562  -1.089  0.00  0.00    -0.328 N 
ATOM     24  C   UNL     1       2.736   3.310  -1.522  0.00  0.00    +0.231 C 
ATOM     41  H   UNL     1       3.875   5.062  -1.551  0.00  0.00    +0.145 HD
ATOM     42  H   UNL     1       2.678   5.030  -0.306  0.00  0.00    +0.145 HD
ENDBRANCH  19  24
BRANCH  19  21
ATOM     21  C   UNL     1       0.240   3.139  -1.343  0.00  0.00    +0.069 C 
BRANCH  21  23
ATOM     10  N   UNL     1      -2.496   1.169   0.140  0.00  0.00    -0.360 N 
ATOM     23  C   UNL     1      -0.946   2.576  -0.599  0.00  0.00    -0.020 A 
ATOM     25  C   UNL     1      -1.786   3.276   0.312  0.00  0.00    +0.003 A 
ATOM     26  C   UNL     1      -1.409   1.282  -0.684  0.00  0.00    +0.087 A 
ATOM     27  C   UNL     1      -2.749   2.371   0.761  0.00  0.00    +0.047 A 
ATOM     30  C   UNL     1      -1.817   4.598   0.800  0.00  0.00    +0.010 A 
ATOM     34  C   UNL     1      -3.748   2.723   1.677  0.00  0.00    +0.026 A 
ATOM     35  C   UNL     1      -2.810   4.964   1.716  0.00  0.00    +0.001 A 
ATOM     36  C   UNL     1      -3.760   4.039   2.146  0.00  0.00    +0.002 A 
ATOM     40  H   UNL     1      -3.037   0.326   0.273  0.00  0.00    +0.165 HD
ENDBRANCH  21  23
ENDBRANCH  19  21
ENDBRANCH   9  19
ENDBRANCH  13  17
TORSDOF 8
