MODEL 1
REMARK VINA RESULT:      -6.8      0.000      0.000
REMARK  Name = 45783599
REMARK  7 active torsions:
REMARK  status: ('A' for Active; 'I' for Inactive)
REMARK    1  A    between atoms: S_1  and  N_8
REMARK    2  A    between atoms: S_1  and  C_30
REMARK    3  A    between atoms: N_5  and  C_15
REMARK    4  A    between atoms: C_11  and  C_16
REMARK    5  A    between atoms: C_15  and  C_17
REMARK    6  A    between atoms: C_20  and  C_21
REMARK    7  A    between atoms: C_24  and  C_29
REMARK                            x       y       z     vdW  Elec       q    Type
REMARK                         _______ _______ _______ _____ _____    ______ ____
ROOT
ATOM      2  O   UNL     1      13.332   7.761  16.422  0.00  0.00    -0.336 OA
ATOM      6  N   UNL     1      13.738   9.706  17.456  0.00  0.00    -0.190 NA
ATOM      7  N   UNL     1      13.974   8.575  15.481  0.00  0.00    -0.056 NA
ATOM     16  C   UNL     1      13.232   8.503  17.556  0.00  0.00    +0.245 A 
ATOM     20  C   UNL     1      14.181   9.705  16.165  0.00  0.00    +0.202 A 
ENDROOT
BRANCH  20  21
ATOM      8  N   UNL     1      16.790  11.806  12.611  0.00  0.00    -0.204 N 
ATOM      9  N   UNL     1      16.086  13.078  14.469  0.00  0.00    -0.239 NA
ATOM     21  C   UNL     1      14.826  10.848  15.589  0.00  0.00    +0.027 A 
ATOM     25  C   UNL     1      15.489  10.737  14.371  0.00  0.00    +0.056 A 
ATOM     26  C   UNL     1      14.793  12.073  16.246  0.00  0.00    +0.031 A 
ATOM     27  C   UNL     1      16.098  11.872  13.859  0.00  0.00    +0.138 A 
ATOM     28  C   UNL     1      15.432  13.148  15.650  0.00  0.00    +0.113 A 
ATOM     31  H   UNL     1      16.715  10.909  12.112  0.00  0.00    +0.175 HD
BRANCH   8   1
ATOM      1  S   UNL     1      18.282  12.651  12.463  0.00  0.00    +0.041 S 
ATOM      3  O   UNL     1      17.993  14.047  12.193  0.00  0.00    -0.155 OA
ATOM      4  O   UNL     1      19.196  12.281  13.526  0.00  0.00    -0.155 OA
ATOM     30  C   UNL     1      18.893  11.948  10.948  0.00  0.00    +0.218 C 
ENDBRANCH   8   1
ENDBRANCH  20  21
BRANCH  16  11
ATOM      5  N   UNL     1      13.381   7.915  19.969  0.00  0.00    -0.287 NA
ATOM     11  C   UNL     1      12.565   7.837  18.741  0.00  0.00    +0.146 C 
ATOM     12  C   UNL     1      11.226   8.498  19.119  0.00  0.00    +0.030 C 
ATOM     13  C   UNL     1      11.362   8.859  20.591  0.00  0.00    +0.017 C 
ATOM     14  C   UNL     1      12.441   7.920  21.091  0.00  0.00    +0.085 C 
BRANCH   5  15
ATOM     15  C   UNL     1      14.359   6.840  20.079  0.00  0.00    +0.120 C 
BRANCH  15  17
ATOM     17  C   UNL     1      15.712   7.353  20.493  0.00  0.00    -0.033 A 
ATOM     18  C   UNL     1      15.966   8.725  20.505  0.00  0.00    +0.006 A 
ATOM     19  C   UNL     1      16.714   6.456  20.867  0.00  0.00    +0.006 A 
ATOM     22  C   UNL     1      17.218   9.200  20.890  0.00  0.00    +0.019 A 
ATOM     23  C   UNL     1      17.968   6.931  21.251  0.00  0.00    +0.019 A 
ATOM     24  C   UNL     1      18.220   8.303  21.262  0.00  0.00    +0.052 A 
BRANCH  24  29
ATOM     10  N   UNL     1      20.548   9.184  21.977  0.00  0.00    -0.191 NA
ATOM     29  C   UNL     1      19.504   8.789  21.656  0.00  0.00    +0.099 C 
ENDBRANCH  24  29
ENDBRANCH  15  17
ENDBRANCH   5  15
ENDBRANCH  16  11
TORSDOF 6
ENDMDL
MODEL 2
REMARK VINA RESULT:      -6.7      5.119      8.480
REMARK  Name = 45783599
REMARK  7 active torsions:
REMARK  status: ('A' for Active; 'I' for Inactive)
REMARK    1  A    between atoms: S_1  and  N_8
REMARK    2  A    between atoms: S_1  and  C_30
REMARK    3  A    between atoms: N_5  and  C_15
REMARK    4  A    between atoms: C_11  and  C_16
REMARK    5  A    between atoms: C_15  and  C_17
REMARK    6  A    between atoms: C_20  and  C_21
REMARK    7  A    between atoms: C_24  and  C_29
REMARK                            x       y       z     vdW  Elec       q    Type
REMARK                         _______ _______ _______ _____ _____    ______ ____
ROOT
ATOM      2  O   UNL     1      19.401   5.771  19.977  0.00  0.00    -0.336 OA
ATOM      6  N   UNL     1      18.300   7.346  21.127  0.00  0.00    -0.190 NA
ATOM      7  N   UNL     1      18.062   5.683  19.574  0.00  0.00    -0.056 NA
ATOM     16  C   UNL     1      19.453   6.774  20.892  0.00  0.00    +0.245 A 
ATOM     20  C   UNL     1      17.477   6.644  20.296  0.00  0.00    +0.202 A 
ENDROOT
BRANCH  20  21
ATOM      8  N   UNL     1      13.462   7.631  17.696  0.00  0.00    -0.204 N 
ATOM      9  N   UNL     1      13.338   7.479  20.047  0.00  0.00    -0.239 NA
ATOM     21  C   UNL     1      16.073   6.926  20.211  0.00  0.00    +0.027 A 
ATOM     25  C   UNL     1      15.477   7.136  18.973  0.00  0.00    +0.056 A 
ATOM     26  C   UNL     1      15.303   6.991  21.367  0.00  0.00    +0.031 A 
ATOM     27  C   UNL     1      14.118   7.408  18.945  0.00  0.00    +0.138 A 
ATOM     28  C   UNL     1      13.952   7.268  21.232  0.00  0.00    +0.113 A 
ATOM     31  H   UNL     1      14.043   7.484  16.860  0.00  0.00    +0.175 HD
BRANCH   8   1
ATOM      1  S   UNL     1      12.283   8.882  17.608  0.00  0.00    +0.041 S 
ATOM      3  O   UNL     1      10.979   8.302  17.872  0.00  0.00    -0.155 OA
ATOM      4  O   UNL     1      12.723  10.061  18.328  0.00  0.00    -0.155 OA
ATOM     30  C   UNL     1      12.343   9.249  15.870  0.00  0.00    +0.218 C 
ENDBRANCH   8   1
ENDBRANCH  20  21
BRANCH  16  11
ATOM      5  N   UNL     1      21.733   5.920  21.411  0.00  0.00    -0.287 NA
ATOM     11  C   UNL     1      20.813   7.073  21.488  0.00  0.00    +0.146 C 
ATOM     12  C   UNL     1      21.548   8.209  20.754  0.00  0.00    +0.030 C 
ATOM     13  C   UNL     1      22.893   7.620  20.353  0.00  0.00    +0.017 C 
ATOM     14  C   UNL     1      23.084   6.474  21.327  0.00  0.00    +0.085 C 
BRANCH   5  15
ATOM     15  C   UNL     1      21.588   4.994  22.527  0.00  0.00    +0.120 C 
BRANCH  15  17
ATOM     17  C   UNL     1      22.522   3.819  22.405  0.00  0.00    -0.033 A 
ATOM     18  C   UNL     1      23.273   3.407  23.506  0.00  0.00    +0.006 A 
ATOM     19  C   UNL     1      22.635   3.141  21.191  0.00  0.00    +0.006 A 
ATOM     22  C   UNL     1      24.137   2.319  23.393  0.00  0.00    +0.019 A 
ATOM     23  C   UNL     1      23.501   2.053  21.078  0.00  0.00    +0.019 A 
ATOM     24  C   UNL     1      24.252   1.642  22.179  0.00  0.00    +0.052 A 
BRANCH  24  29
ATOM     10  N   UNL     1      25.856  -0.380  21.968  0.00  0.00    -0.191 NA
ATOM     29  C   UNL     1      25.137   0.527  22.063  0.00  0.00    +0.099 C 
ENDBRANCH  24  29
ENDBRANCH  15  17
ENDBRANCH   5  15
ENDBRANCH  16  11
TORSDOF 6
ENDMDL
MODEL 3
REMARK VINA RESULT:      -6.7     26.729     29.303
REMARK  Name = 45783599
REMARK  7 active torsions:
REMARK  status: ('A' for Active; 'I' for Inactive)
REMARK    1  A    between atoms: S_1  and  N_8
REMARK    2  A    between atoms: S_1  and  C_30
REMARK    3  A    between atoms: N_5  and  C_15
REMARK    4  A    between atoms: C_11  and  C_16
REMARK    5  A    between atoms: C_15  and  C_17
REMARK    6  A    between atoms: C_20  and  C_21
REMARK    7  A    between atoms: C_24  and  C_29
REMARK                            x       y       z     vdW  Elec       q    Type
REMARK                         _______ _______ _______ _____ _____    ______ ____
ROOT
ATOM      2  O   UNL     1     -11.997  11.934  19.396  0.00  0.00    -0.336 OA
ATOM      6  N   UNL     1     -11.401  10.232  20.724  0.00  0.00    -0.190 NA
ATOM      7  N   UNL     1     -12.739  12.082  20.575  0.00  0.00    -0.056 NA
ATOM     16  C   UNL     1     -11.237  10.821  19.566  0.00  0.00    +0.245 A 
ATOM     20  C   UNL     1     -12.332  11.041  21.308  0.00  0.00    +0.202 A 
ENDROOT
BRANCH  20  21
ATOM      8  N   UNL     1     -12.072  11.534  26.159  0.00  0.00    -0.204 N 
ATOM      9  N   UNL     1     -13.814  10.271  25.193  0.00  0.00    -0.239 NA
ATOM     21  C   UNL     1     -12.835  10.781  22.625  0.00  0.00    +0.027 A 
ATOM     25  C   UNL     1     -12.183  11.303  23.737  0.00  0.00    +0.056 A 
ATOM     26  C   UNL     1     -13.977  10.006  22.796  0.00  0.00    +0.031 A 
ATOM     27  C   UNL     1     -12.708  11.020  24.989  0.00  0.00    +0.138 A 
ATOM     28  C   UNL     1     -14.422   9.782  24.089  0.00  0.00    +0.113 A 
ATOM     31  H   UNL     1     -11.287  12.177  25.990  0.00  0.00    +0.175 HD
BRANCH   8   1
ATOM      1  S   UNL     1     -11.946  10.506  27.535  0.00  0.00    +0.041 S 
ATOM      3  O   UNL     1     -13.268  10.351  28.114  0.00  0.00    -0.155 OA
ATOM      4  O   UNL     1     -11.130   9.344  27.240  0.00  0.00    -0.155 OA
ATOM     30  C   UNL     1     -11.022  11.558  28.631  0.00  0.00    +0.218 C 
ENDBRANCH   8   1
ENDBRANCH  20  21
BRANCH  16  11
ATOM      5  N   UNL     1     -10.964   9.482  17.487  0.00  0.00    -0.287 NA
ATOM     11  C   UNL     1     -10.331  10.440  18.415  0.00  0.00    +0.146 C 
ATOM     12  C   UNL     1      -9.950  11.644  17.534  0.00  0.00    +0.030 C 
ATOM     13  C   UNL     1     -10.353  11.246  16.120  0.00  0.00    +0.017 C 
ATOM     14  C   UNL     1     -10.378   9.732  16.170  0.00  0.00    +0.085 C 
BRANCH   5  15
ATOM     15  C   UNL     1     -10.810   8.093  17.901  0.00  0.00    +0.120 C 
BRANCH  15  17
ATOM     17  C   UNL     1     -11.864   7.683  18.894  0.00  0.00    -0.033 A 
ATOM     18  C   UNL     1     -13.205   7.979  18.652  0.00  0.00    +0.006 A 
ATOM     19  C   UNL     1     -11.499   7.005  20.059  0.00  0.00    +0.006 A 
ATOM     22  C   UNL     1     -14.181   7.599  19.572  0.00  0.00    +0.019 A 
ATOM     23  C   UNL     1     -12.475   6.626  20.979  0.00  0.00    +0.019 A 
ATOM     24  C   UNL     1     -13.817   6.922  20.736  0.00  0.00    +0.052 A 
BRANCH  24  29
ATOM     10  N   UNL     1     -15.629   6.215  22.445  0.00  0.00    -0.191 NA
ATOM     29  C   UNL     1     -14.816   6.532  21.679  0.00  0.00    +0.099 C 
ENDBRANCH  24  29
ENDBRANCH  15  17
ENDBRANCH   5  15
ENDBRANCH  16  11
TORSDOF 6
ENDMDL
MODEL 4
REMARK VINA RESULT:      -6.5     13.173     15.996
REMARK  Name = 45783599
REMARK  7 active torsions:
REMARK  status: ('A' for Active; 'I' for Inactive)
REMARK    1  A    between atoms: S_1  and  N_8
REMARK    2  A    between atoms: S_1  and  C_30
REMARK    3  A    between atoms: N_5  and  C_15
REMARK    4  A    between atoms: C_11  and  C_16
REMARK    5  A    between atoms: C_15  and  C_17
REMARK    6  A    between atoms: C_20  and  C_21
REMARK    7  A    between atoms: C_24  and  C_29
REMARK                            x       y       z     vdW  Elec       q    Type
REMARK                         _______ _______ _______ _____ _____    ______ ____
ROOT
ATOM      2  O   UNL     1      10.875   7.046   3.811  0.00  0.00    -0.336 OA
ATOM      6  N   UNL     1      10.844   4.819   3.574  0.00  0.00    -0.190 NA
ATOM      7  N   UNL     1      11.385   6.782   2.533  0.00  0.00    -0.056 NA
ATOM     16  C   UNL     1      10.582   5.836   4.355  0.00  0.00    +0.245 A 
ATOM     20  C   UNL     1      11.335   5.449   2.468  0.00  0.00    +0.202 A 
ENDROOT
BRANCH  20  21
ATOM      8  N   UNL     1      10.985   4.342  -2.275  0.00  0.00    -0.204 N 
ATOM      9  N   UNL     1      12.610   3.283  -0.934  0.00  0.00    -0.239 NA
ATOM     21  C   UNL     1      11.768   4.715   1.314  0.00  0.00    +0.027 A 
ATOM     25  C   UNL     1      11.142   4.910   0.088  0.00  0.00    +0.056 A 
ATOM     26  C   UNL     1      12.815   3.806   1.417  0.00  0.00    +0.031 A 
ATOM     27  C   UNL     1      11.597   4.175  -0.996  0.00  0.00    +0.138 A 
ATOM     28  C   UNL     1      13.195   3.121   0.274  0.00  0.00    +0.113 A 
ATOM     31  H   UNL     1      10.278   5.088  -2.333  0.00  0.00    +0.175 HD
BRANCH   8   1
ATOM      1  S   UNL     1      10.708   2.939  -3.235  0.00  0.00    +0.041 S 
ATOM      3  O   UNL     1      11.831   2.775  -4.140  0.00  0.00    -0.155 OA
ATOM      4  O   UNL     1      10.255   1.833  -2.416  0.00  0.00    -0.155 OA
ATOM     30  C   UNL     1       9.332   3.494  -4.214  0.00  0.00    +0.218 C 
ENDBRANCH   8   1
ENDBRANCH  20  21
BRANCH  16  11
ATOM      5  N   UNL     1      10.583   6.915   6.598  0.00  0.00    -0.287 NA
ATOM     11  C   UNL     1      10.006   5.848   5.756  0.00  0.00    +0.146 C 
ATOM     12  C   UNL     1       8.489   6.114   5.772  0.00  0.00    +0.030 C 
ATOM     13  C   UNL     1       8.305   7.311   6.696  0.00  0.00    +0.017 C 
ATOM     14  C   UNL     1       9.548   7.286   7.563  0.00  0.00    +0.085 C 
BRANCH   5  15
ATOM     15  C   UNL     1      11.826   6.523   7.250  0.00  0.00    +0.120 C 
BRANCH  15  17
ATOM     17  C   UNL     1      12.954   7.463   6.918  0.00  0.00    -0.033 A 
ATOM     18  C   UNL     1      12.730   8.840   6.886  0.00  0.00    +0.006 A 
ATOM     19  C   UNL     1      14.226   6.957   6.644  0.00  0.00    +0.006 A 
ATOM     22  C   UNL     1      13.775   9.710   6.579  0.00  0.00    +0.019 A 
ATOM     23  C   UNL     1      15.271   7.828   6.336  0.00  0.00    +0.019 A 
ATOM     24  C   UNL     1      15.046   9.204   6.304  0.00  0.00    +0.052 A 
BRANCH  24  29
ATOM     10  N   UNL     1      16.988  10.820   5.734  0.00  0.00    -0.191 NA
ATOM     29  C   UNL     1      16.117  10.095   5.989  0.00  0.00    +0.099 C 
ENDBRANCH  24  29
ENDBRANCH  15  17
ENDBRANCH   5  15
ENDBRANCH  16  11
TORSDOF 6
ENDMDL
MODEL 5
REMARK VINA RESULT:      -6.5     27.413     31.209
REMARK  Name = 45783599
REMARK  7 active torsions:
REMARK  status: ('A' for Active; 'I' for Inactive)
REMARK    1  A    between atoms: S_1  and  N_8
REMARK    2  A    between atoms: S_1  and  C_30
REMARK    3  A    between atoms: N_5  and  C_15
REMARK    4  A    between atoms: C_11  and  C_16
REMARK    5  A    between atoms: C_15  and  C_17
REMARK    6  A    between atoms: C_20  and  C_21
REMARK    7  A    between atoms: C_24  and  C_29
REMARK                            x       y       z     vdW  Elec       q    Type
REMARK                         _______ _______ _______ _____ _____    ______ ____
ROOT
ATOM      2  O   UNL     1      -3.955 -11.420  17.957  0.00  0.00    -0.336 OA
ATOM      6  N   UNL     1      -5.344 -10.633  16.387  0.00  0.00    -0.190 NA
ATOM      7  N   UNL     1      -5.167 -11.153  18.607  0.00  0.00    -0.056 NA
ATOM     16  C   UNL     1      -4.145 -11.085  16.655  0.00  0.00    +0.245 A 
ATOM     20  C   UNL     1      -5.935 -10.693  17.615  0.00  0.00    +0.202 A 
ENDROOT
BRANCH  20  21
ATOM      8  N   UNL     1     -10.175 -10.984  20.020  0.00  0.00    -0.204 N 
ATOM      9  N   UNL     1      -9.945  -9.489  18.210  0.00  0.00    -0.239 NA
ATOM     21  C   UNL     1      -7.294 -10.284  17.818  0.00  0.00    +0.027 A 
ATOM     25  C   UNL     1      -8.050 -10.854  18.836  0.00  0.00    +0.056 A 
ATOM     26  C   UNL     1      -7.862  -9.316  16.996  0.00  0.00    +0.031 A 
ATOM     27  C   UNL     1      -9.360 -10.426  18.988  0.00  0.00    +0.138 A 
ATOM     28  C   UNL     1      -9.179  -8.957  17.231  0.00  0.00    +0.113 A 
ATOM     31  H   UNL     1      -9.694 -11.627  20.664  0.00  0.00    +0.175 HD
BRANCH   8   1
ATOM      1  S   UNL     1     -11.819 -11.341  19.655  0.00  0.00    +0.041 S 
ATOM      3  O   UNL     1     -12.627 -10.189  20.009  0.00  0.00    -0.155 OA
ATOM      4  O   UNL     1     -11.939 -11.949  18.345  0.00  0.00    -0.155 OA
ATOM     30  C   UNL     1     -12.147 -12.595  20.872  0.00  0.00    +0.218 C 
ENDBRANCH   8   1
ENDBRANCH  20  21
BRANCH  16  11
ATOM      5  N   UNL     1      -3.162 -10.645  14.411  0.00  0.00    -0.287 NA
ATOM     11  C   UNL     1      -2.964 -11.284  15.727  0.00  0.00    +0.146 C 
ATOM     12  C   UNL     1      -1.667 -10.660  16.274  0.00  0.00    +0.030 C 
ATOM     13  C   UNL     1      -1.178  -9.730  15.172  0.00  0.00    +0.017 C 
ATOM     14  C   UNL     1      -1.831 -10.284  13.922  0.00  0.00    +0.085 C 
BRANCH   5  15
ATOM     15  C   UNL     1      -3.884 -11.488  13.466  0.00  0.00    +0.120 C 
BRANCH  15  17
ATOM     17  C   UNL     1      -4.610 -10.674  12.429  0.00  0.00    -0.033 A 
ATOM     18  C   UNL     1      -5.659  -9.835  12.808  0.00  0.00    +0.006 A 
ATOM     19  C   UNL     1      -4.233 -10.757  11.088  0.00  0.00    +0.006 A 
ATOM     22  C   UNL     1      -6.331  -9.081  11.847  0.00  0.00    +0.019 A 
ATOM     23  C   UNL     1      -4.906 -10.002  10.127  0.00  0.00    +0.019 A 
ATOM     24  C   UNL     1      -5.955  -9.164  10.506  0.00  0.00    +0.052 A 
BRANCH  24  29
ATOM     10  N   UNL     1      -7.203  -7.764   8.721  0.00  0.00    -0.191 NA
ATOM     29  C   UNL     1      -6.643  -8.392   9.522  0.00  0.00    +0.099 C 
ENDBRANCH  24  29
ENDBRANCH  15  17
ENDBRANCH   5  15
ENDBRANCH  16  11
TORSDOF 6
ENDMDL
MODEL 6
REMARK VINA RESULT:      -6.4     28.042     29.675
REMARK  Name = 45783599
REMARK  7 active torsions:
REMARK  status: ('A' for Active; 'I' for Inactive)
REMARK    1  A    between atoms: S_1  and  N_8
REMARK    2  A    between atoms: S_1  and  C_30
REMARK    3  A    between atoms: N_5  and  C_15
REMARK    4  A    between atoms: C_11  and  C_16
REMARK    5  A    between atoms: C_15  and  C_17
REMARK    6  A    between atoms: C_20  and  C_21
REMARK    7  A    between atoms: C_24  and  C_29
REMARK                            x       y       z     vdW  Elec       q    Type
REMARK                         _______ _______ _______ _____ _____    ______ ____
ROOT
ATOM      2  O   UNL     1      -1.805 -10.034  11.701  0.00  0.00    -0.336 OA
ATOM      6  N   UNL     1      -3.694 -11.166  11.295  0.00  0.00    -0.190 NA
ATOM      7  N   UNL     1      -2.398  -9.416  10.593  0.00  0.00    -0.056 NA
ATOM     16  C   UNL     1      -2.631 -11.054  12.050  0.00  0.00    +0.245 A 
ATOM     20  C   UNL     1      -3.507 -10.139  10.415  0.00  0.00    +0.202 A 
ENDROOT
BRANCH  20  21
ATOM      8  N   UNL     1      -6.906  -7.301   8.355  0.00  0.00    -0.204 N 
ATOM      9  N   UNL     1      -6.284  -9.331   7.328  0.00  0.00    -0.239 NA
ATOM     21  C   UNL     1      -4.448  -9.865   9.368  0.00  0.00    +0.027 A 
ATOM     25  C   UNL     1      -5.208  -8.700   9.400  0.00  0.00    +0.056 A 
ATOM     26  C   UNL     1      -4.605 -10.761   8.317  0.00  0.00    +0.031 A 
ATOM     27  C   UNL     1      -6.105  -8.483   8.365  0.00  0.00    +0.138 A 
ATOM     28  C   UNL     1      -5.528 -10.451   7.331  0.00  0.00    +0.113 A 
ATOM     31  H   UNL     1      -6.697  -6.619   9.097  0.00  0.00    +0.175 HD
BRANCH   8   1
ATOM      1  S   UNL     1      -8.553  -7.439   7.874  0.00  0.00    +0.041 S 
ATOM      3  O   UNL     1      -8.610  -7.421   6.424  0.00  0.00    -0.155 OA
ATOM      4  O   UNL     1      -9.227  -8.480   8.625  0.00  0.00    -0.155 OA
ATOM     30  C   UNL     1      -9.177  -5.871   8.434  0.00  0.00    +0.218 C 
ENDBRANCH   8   1
ENDBRANCH  20  21
BRANCH  16  11
ATOM      5  N   UNL     1      -3.231 -11.927  14.302  0.00  0.00    -0.287 NA
ATOM     11  C   UNL     1      -2.207 -11.889  13.240  0.00  0.00    +0.146 C 
ATOM     12  C   UNL     1      -1.967 -13.366  12.874  0.00  0.00    +0.030 C 
ATOM     13  C   UNL     1      -2.855 -14.159  13.823  0.00  0.00    +0.017 C 
ATOM     14  C   UNL     1      -3.072 -13.211  14.985  0.00  0.00    +0.085 C 
BRANCH   5  15
ATOM     15  C   UNL     1      -3.146 -10.801  15.224  0.00  0.00    +0.120 C 
BRANCH  15  17
ATOM     17  C   UNL     1      -4.243 -10.834  16.253  0.00  0.00    -0.033 A 
ATOM     18  C   UNL     1      -3.950 -11.158  17.578  0.00  0.00    +0.006 A 
ATOM     19  C   UNL     1      -5.556 -10.539  15.882  0.00  0.00    +0.006 A 
ATOM     22  C   UNL     1      -4.966 -11.188  18.531  0.00  0.00    +0.019 A 
ATOM     23  C   UNL     1      -6.573 -10.569  16.836  0.00  0.00    +0.019 A 
ATOM     24  C   UNL     1      -6.279 -10.894  18.160  0.00  0.00    +0.052 A 
BRANCH  24  29
ATOM     10  N   UNL     1      -8.169 -10.949  19.930  0.00  0.00    -0.191 NA
ATOM     29  C   UNL     1      -7.321 -10.924  19.137  0.00  0.00    +0.099 C 
ENDBRANCH  24  29
ENDBRANCH  15  17
ENDBRANCH   5  15
ENDBRANCH  16  11
TORSDOF 6
ENDMDL
MODEL 7
REMARK VINA RESULT:      -6.3     28.698     30.498
REMARK  Name = 45783599
REMARK  7 active torsions:
REMARK  status: ('A' for Active; 'I' for Inactive)
REMARK    1  A    between atoms: S_1  and  N_8
REMARK    2  A    between atoms: S_1  and  C_30
REMARK    3  A    between atoms: N_5  and  C_15
REMARK    4  A    between atoms: C_11  and  C_16
REMARK    5  A    between atoms: C_15  and  C_17
REMARK    6  A    between atoms: C_20  and  C_21
REMARK    7  A    between atoms: C_24  and  C_29
REMARK                            x       y       z     vdW  Elec       q    Type
REMARK                         _______ _______ _______ _____ _____    ______ ____
ROOT
ATOM      2  O   UNL     1      -7.682 -10.310  11.112  0.00  0.00    -0.336 OA
ATOM      6  N   UNL     1      -6.471  -9.069  12.529  0.00  0.00    -0.190 NA
ATOM      7  N   UNL     1      -8.127 -10.641  12.398  0.00  0.00    -0.056 NA
ATOM     16  C   UNL     1      -6.707  -9.379  11.280  0.00  0.00    +0.245 A 
ATOM     20  C   UNL     1      -7.366  -9.868  13.178  0.00  0.00    +0.202 A 
ENDROOT
BRANCH  20  21
ATOM      8  N   UNL     1      -5.421 -10.498  17.613  0.00  0.00    -0.204 N 
ATOM      9  N   UNL     1      -7.687  -9.879  17.396  0.00  0.00    -0.239 NA
ATOM     21  C   UNL     1      -7.474  -9.871  14.608  0.00  0.00    +0.027 A 
ATOM     25  C   UNL     1      -6.370 -10.189  15.391  0.00  0.00    +0.056 A 
ATOM     26  C   UNL     1      -8.684  -9.556  15.218  0.00  0.00    +0.031 A 
ATOM     27  C   UNL     1      -6.528 -10.179  16.769  0.00  0.00    +0.138 A 
ATOM     28  C   UNL     1      -8.738  -9.575  16.602  0.00  0.00    +0.113 A 
ATOM     31  H   UNL     1      -4.523 -10.635  17.131  0.00  0.00    +0.175 HD
BRANCH   8   1
ATOM      1  S   UNL     1      -5.712 -11.478  18.999  0.00  0.00    +0.041 S 
ATOM      3  O   UNL     1      -6.082 -10.612  20.103  0.00  0.00    -0.155 OA
ATOM      4  O   UNL     1      -6.528 -12.627  18.660  0.00  0.00    -0.155 OA
ATOM     30  C   UNL     1      -4.063 -12.057  19.327  0.00  0.00    +0.218 C 
ENDBRANCH   8   1
ENDBRANCH  20  21
BRANCH  16  11
ATOM      5  N   UNL     1      -4.982  -9.735   9.521  0.00  0.00    -0.287 NA
ATOM     11  C   UNL     1      -6.054  -8.851  10.019  0.00  0.00    +0.146 C 
ATOM     12  C   UNL     1      -7.042  -8.733   8.843  0.00  0.00    +0.030 C 
ATOM     13  C   UNL     1      -6.410  -9.534   7.712  0.00  0.00    +0.017 C 
ATOM     14  C   UNL     1      -4.938  -9.556   8.070  0.00  0.00    +0.085 C 
BRANCH   5  15
ATOM     15  C   UNL     1      -3.690  -9.479  10.145  0.00  0.00    +0.120 C 
BRANCH  15  17
ATOM     17  C   UNL     1      -3.227 -10.645  10.976  0.00  0.00    -0.033 A 
ATOM     18  C   UNL     1      -3.751 -11.918  10.748  0.00  0.00    +0.006 A 
ATOM     19  C   UNL     1      -2.271 -10.454  11.975  0.00  0.00    +0.006 A 
ATOM     22  C   UNL     1      -3.322 -12.998  11.518  0.00  0.00    +0.019 A 
ATOM     23  C   UNL     1      -1.842 -11.534  12.746  0.00  0.00    +0.019 A 
ATOM     24  C   UNL     1      -2.367 -12.806  12.517  0.00  0.00    +0.052 A 
BRANCH  24  29
ATOM     10  N   UNL     1      -1.569 -14.812  13.947  0.00  0.00    -0.191 NA
ATOM     29  C   UNL     1      -1.927 -13.912  13.306  0.00  0.00    +0.099 C 
ENDBRANCH  24  29
ENDBRANCH  15  17
ENDBRANCH   5  15
ENDBRANCH  16  11
TORSDOF 6
ENDMDL
MODEL 8
REMARK VINA RESULT:      -6.3     27.300     30.693
REMARK  Name = 45783599
REMARK  7 active torsions:
REMARK  status: ('A' for Active; 'I' for Inactive)
REMARK    1  A    between atoms: S_1  and  N_8
REMARK    2  A    between atoms: S_1  and  C_30
REMARK    3  A    between atoms: N_5  and  C_15
REMARK    4  A    between atoms: C_11  and  C_16
REMARK    5  A    between atoms: C_15  and  C_17
REMARK    6  A    between atoms: C_20  and  C_21
REMARK    7  A    between atoms: C_24  and  C_29
REMARK                            x       y       z     vdW  Elec       q    Type
REMARK                         _______ _______ _______ _____ _____    ______ ____
ROOT
ATOM      2  O   UNL     1      -4.082 -10.909  17.902  0.00  0.00    -0.336 OA
ATOM      6  N   UNL     1      -5.546 -10.810  16.210  0.00  0.00    -0.190 NA
ATOM      7  N   UNL     1      -5.330 -10.648  18.482  0.00  0.00    -0.056 NA
ATOM     16  C   UNL     1      -4.298 -10.988  16.563  0.00  0.00    +0.245 A 
ATOM     20  C   UNL     1      -6.141 -10.604  17.420  0.00  0.00    +0.202 A 
ENDROOT
BRANCH  20  21
ATOM      8  N   UNL     1     -10.335  -8.855  15.632  0.00  0.00    -0.204 N 
ATOM      9  N   UNL     1     -10.293  -9.873  17.759  0.00  0.00    -0.239 NA
ATOM     21  C   UNL     1      -7.549 -10.357  17.535  0.00  0.00    +0.027 A 
ATOM     25  C   UNL     1      -8.232  -9.722  16.503  0.00  0.00    +0.056 A 
ATOM     26  C   UNL     1      -8.237 -10.751  18.677  0.00  0.00    +0.031 A 
ATOM     27  C   UNL     1      -9.592  -9.504  16.664  0.00  0.00    +0.138 A 
ATOM     28  C   UNL     1      -9.595 -10.488  18.740  0.00  0.00    +0.113 A 
ATOM     31  H   UNL     1      -9.813  -8.662  14.766  0.00  0.00    +0.175 HD
BRANCH   8   1
ATOM      1  S   UNL     1     -11.527  -7.700  16.090  0.00  0.00    +0.041 S 
ATOM      3  O   UNL     1     -12.723  -8.413  16.497  0.00  0.00    -0.155 OA
ATOM      4  O   UNL     1     -10.955  -6.676  16.941  0.00  0.00    -0.155 OA
ATOM     30  C   UNL     1     -11.877  -6.965  14.509  0.00  0.00    +0.218 C 
ENDBRANCH   8   1
ENDBRANCH  20  21
BRANCH  16  11
ATOM      5  N   UNL     1      -3.188 -10.652  14.361  0.00  0.00    -0.287 NA
ATOM     11  C   UNL     1      -3.086 -11.268  15.700  0.00  0.00    +0.146 C 
ATOM     12  C   UNL     1      -1.786 -10.696  16.296  0.00  0.00    +0.030 C 
ATOM     13  C   UNL     1      -1.198  -9.819  15.199  0.00  0.00    +0.017 C 
ATOM     14  C   UNL     1      -1.818 -10.370  13.930  0.00  0.00    +0.085 C 
BRANCH   5  15
ATOM     15  C   UNL     1      -3.905 -11.481  13.400  0.00  0.00    +0.120 C 
BRANCH  15  17
ATOM     17  C   UNL     1      -4.642 -10.651  12.384  0.00  0.00    -0.033 A 
ATOM     18  C   UNL     1      -4.227 -10.647  11.051  0.00  0.00    +0.006 A 
ATOM     19  C   UNL     1      -5.742  -9.885  12.773  0.00  0.00    +0.006 A 
ATOM     22  C   UNL     1      -4.910  -9.879  10.110  0.00  0.00    +0.019 A 
ATOM     23  C   UNL     1      -6.424  -9.115  11.831  0.00  0.00    +0.019 A 
ATOM     24  C   UNL     1      -6.008  -9.112  10.500  0.00  0.00    +0.052 A 
BRANCH  24  29
ATOM     10  N   UNL     1      -7.278  -7.684   8.752  0.00  0.00    -0.191 NA
ATOM     29  C   UNL     1      -6.709  -8.325   9.536  0.00  0.00    +0.099 C 
ENDBRANCH  24  29
ENDBRANCH  15  17
ENDBRANCH   5  15
ENDBRANCH  16  11
TORSDOF 6
ENDMDL
MODEL 9
REMARK VINA RESULT:      -6.3     27.693     31.657
REMARK  Name = 45783599
REMARK  7 active torsions:
REMARK  status: ('A' for Active; 'I' for Inactive)
REMARK    1  A    between atoms: S_1  and  N_8
REMARK    2  A    between atoms: S_1  and  C_30
REMARK    3  A    between atoms: N_5  and  C_15
REMARK    4  A    between atoms: C_11  and  C_16
REMARK    5  A    between atoms: C_15  and  C_17
REMARK    6  A    between atoms: C_20  and  C_21
REMARK    7  A    between atoms: C_24  and  C_29
REMARK                            x       y       z     vdW  Elec       q    Type
REMARK                         _______ _______ _______ _____ _____    ______ ____
ROOT
ATOM      2  O   UNL     1      -5.264  -9.761  15.696  0.00  0.00    -0.336 OA
ATOM      6  N   UNL     1      -5.325 -11.576  17.005  0.00  0.00    -0.190 NA
ATOM      7  N   UNL     1      -6.468  -9.686  16.409  0.00  0.00    -0.056 NA
ATOM     16  C   UNL     1      -4.654 -10.903  16.106  0.00  0.00    +0.245 A 
ATOM     20  C   UNL     1      -6.431 -10.791  17.159  0.00  0.00    +0.202 A 
ENDROOT
BRANCH  20  21
ATOM      8  N   UNL     1      -8.399 -13.796  20.467  0.00  0.00    -0.204 N 
ATOM      9  N   UNL     1      -9.531 -11.822  19.846  0.00  0.00    -0.239 NA
ATOM     21  C   UNL     1      -7.481 -11.141  18.071  0.00  0.00    +0.027 A 
ATOM     25  C   UNL     1      -7.398 -12.312  18.816  0.00  0.00    +0.056 A 
ATOM     26  C   UNL     1      -8.587 -10.310  18.213  0.00  0.00    +0.031 A 
ATOM     27  C   UNL     1      -8.441 -12.604  19.681  0.00  0.00    +0.138 A 
ATOM     28  C   UNL     1      -9.576 -10.692  19.105  0.00  0.00    +0.113 A 
ATOM     31  H   UNL     1      -7.527 -14.337  20.404  0.00  0.00    +0.175 HD
BRANCH   8   1
ATOM      1  S   UNL     1      -9.855 -14.697  20.657  0.00  0.00    +0.041 S 
ATOM      3  O   UNL     1     -10.588 -14.150  21.783  0.00  0.00    -0.155 OA
ATOM      4  O   UNL     1     -10.509 -14.899  19.380  0.00  0.00    -0.155 OA
ATOM     30  C   UNL     1      -9.191 -16.260  21.183  0.00  0.00    +0.218 C 
ENDBRANCH   8   1
ENDBRANCH  20  21
BRANCH  16  11
ATOM      5  N   UNL     1      -3.153 -10.592  14.146  0.00  0.00    -0.287 NA
ATOM     11  C   UNL     1      -3.314 -11.216  15.474  0.00  0.00    +0.146 C 
ATOM     12  C   UNL     1      -2.128 -10.687  16.302  0.00  0.00    +0.030 C 
ATOM     13  C   UNL     1      -1.325  -9.824  15.338  0.00  0.00    +0.017 C 
ATOM     14  C   UNL     1      -1.720 -10.350  13.974  0.00  0.00    +0.085 C 
BRANCH   5  15
ATOM     15  C   UNL     1      -3.707 -11.394  13.062  0.00  0.00    +0.120 C 
BRANCH  15  17
ATOM     17  C   UNL     1      -4.496 -10.556  12.092  0.00  0.00    -0.033 A 
ATOM     18  C   UNL     1      -3.863  -9.981  10.990  0.00  0.00    +0.006 A 
ATOM     19  C   UNL     1      -5.863 -10.356  12.293  0.00  0.00    +0.006 A 
ATOM     22  C   UNL     1      -4.593  -9.206  10.091  0.00  0.00    +0.019 A 
ATOM     23  C   UNL     1      -6.594  -9.580  11.394  0.00  0.00    +0.019 A 
ATOM     24  C   UNL     1      -5.959  -9.005  10.293  0.00  0.00    +0.052 A 
BRANCH  24  29
ATOM     10  N   UNL     1      -7.318  -7.565   8.624  0.00  0.00    -0.191 NA
ATOM     29  C   UNL     1      -6.709  -8.211   9.372  0.00  0.00    +0.099 C 
ENDBRANCH  24  29
ENDBRANCH  15  17
ENDBRANCH   5  15
ENDBRANCH  16  11
TORSDOF 6
ENDMDL
MODEL 10
REMARK VINA RESULT:      -6.3     29.088     30.861
REMARK  Name = 45783599
REMARK  7 active torsions:
REMARK  status: ('A' for Active; 'I' for Inactive)
REMARK    1  A    between atoms: S_1  and  N_8
REMARK    2  A    between atoms: S_1  and  C_30
REMARK    3  A    between atoms: N_5  and  C_15
REMARK    4  A    between atoms: C_11  and  C_16
REMARK    5  A    between atoms: C_15  and  C_17
REMARK    6  A    between atoms: C_20  and  C_21
REMARK    7  A    between atoms: C_24  and  C_29
REMARK                            x       y       z     vdW  Elec       q    Type
REMARK                         _______ _______ _______ _____ _____    ______ ____
ROOT
ATOM      2  O   UNL     1      -6.232 -11.623  13.364  0.00  0.00    -0.336 OA
ATOM      6  N   UNL     1      -6.116  -9.743  14.574  0.00  0.00    -0.190 NA
ATOM      7  N   UNL     1      -7.513 -11.421  13.892  0.00  0.00    -0.056 NA
ATOM     16  C   UNL     1      -5.471 -10.592  13.815  0.00  0.00    +0.245 A 
ATOM     20  C   UNL     1      -7.365 -10.293  14.593  0.00  0.00    +0.202 A 
ENDROOT
BRANCH  20  21
ATOM      8  N   UNL     1     -11.564  -7.804  14.745  0.00  0.00    -0.204 N 
ATOM      9  N   UNL     1     -10.540  -8.514  16.748  0.00  0.00    -0.239 NA
ATOM     21  C   UNL     1      -8.442  -9.691  15.324  0.00  0.00    +0.027 A 
ATOM     25  C   UNL     1      -9.470  -9.045  14.645  0.00  0.00    +0.056 A 
ATOM     26  C   UNL     1      -8.462  -9.749  16.713  0.00  0.00    +0.031 A 
ATOM     27  C   UNL     1     -10.486  -8.477  15.398  0.00  0.00    +0.138 A 
ATOM     28  C   UNL     1      -9.524  -9.150  17.372  0.00  0.00    +0.113 A 
ATOM     31  H   UNL     1     -11.562  -7.861  13.718  0.00  0.00    +0.175 HD
BRANCH   8   1
ATOM      1  S   UNL     1     -12.147  -6.339  15.437  0.00  0.00    +0.041 S 
ATOM      3  O   UNL     1     -13.491  -6.571  15.934  0.00  0.00    -0.155 OA
ATOM      4  O   UNL     1     -11.142  -5.733  16.288  0.00  0.00    -0.155 OA
ATOM     30  C   UNL     1     -12.301  -5.340  13.975  0.00  0.00    +0.218 C 
ENDBRANCH   8   1
ENDBRANCH  20  21
BRANCH  16  11
ATOM      5  N   UNL     1      -3.271 -11.752  13.868  0.00  0.00    -0.287 NA
ATOM     11  C   UNL     1      -4.022 -10.580  13.377  0.00  0.00    +0.146 C 
ATOM     12  C   UNL     1      -3.863 -10.627  11.846  0.00  0.00    +0.030 C 
ATOM     13  C   UNL     1      -2.959 -11.822  11.576  0.00  0.00    +0.017 C 
ATOM     14  C   UNL     1      -2.218 -12.011  12.885  0.00  0.00    +0.085 C 
BRANCH   5  15
ATOM     15  C   UNL     1      -2.734 -11.570  15.211  0.00  0.00    +0.120 C 
BRANCH  15  17
ATOM     17  C   UNL     1      -3.798 -11.716  16.265  0.00  0.00    -0.033 A 
ATOM     18  C   UNL     1      -3.993 -10.704  17.206  0.00  0.00    +0.006 A 
ATOM     19  C   UNL     1      -4.591 -12.863  16.301  0.00  0.00    +0.006 A 
ATOM     22  C   UNL     1      -4.979 -10.839  18.182  0.00  0.00    +0.019 A 
ATOM     23  C   UNL     1      -5.577 -12.998  17.279  0.00  0.00    +0.019 A 
ATOM     24  C   UNL     1      -5.771 -11.986  18.219  0.00  0.00    +0.052 A 
BRANCH  24  29
ATOM     10  N   UNL     1      -7.603 -12.238  20.031  0.00  0.00    -0.191 NA
ATOM     29  C   UNL     1      -6.782 -12.125  19.219  0.00  0.00    +0.099 C 
ENDBRANCH  24  29
ENDBRANCH  15  17
ENDBRANCH   5  15
ENDBRANCH  16  11
TORSDOF 6
ENDMDL
