MODEL 1
REMARK VINA RESULT:      -6.0      0.000      0.000
REMARK  Name = 51137078
REMARK  2 active torsions:
REMARK  status: ('A' for Active; 'I' for Inactive)
REMARK    1  A    between atoms: N_2  and  C_9
REMARK    2  A    between atoms: C_4  and  C_8
REMARK                            x       y       z     vdW  Elec       q    Type
REMARK                         _______ _______ _______ _____ _____    ______ ____
ROOT
ATOM      1  S   UNL     1      15.003   8.267  20.941  0.00  0.00    -0.072 S 
ATOM      3  N   UNL     1      15.509   6.238  19.432  0.00  0.00    -0.244 NA
ATOM      8  C   UNL     1      14.549   7.026  19.855  0.00  0.00    +0.084 A 
ATOM     10  C   UNL     1      16.639   7.726  20.860  0.00  0.00    +0.039 A 
ATOM     11  C   UNL     1      16.713   6.626  20.000  0.00  0.00    +0.078 A 
ATOM     12  C   UNL     1      17.773   8.238  21.511  0.00  0.00    +0.017 A 
ATOM     13  C   UNL     1      17.970   6.019  19.786  0.00  0.00    +0.029 A 
ATOM     14  C   UNL     1      19.003   7.617  21.282  0.00  0.00    +0.001 A 
ATOM     15  C   UNL     1      19.103   6.523  20.430  0.00  0.00    +0.002 A 
ENDROOT
BRANCH   8   4
ATOM      2  N   UNL     1      11.457   7.874  18.082  0.00  0.00    -0.305 NA
ATOM      4  C   UNL     1      13.100   6.902  19.444  0.00  0.00    +0.060 C 
ATOM      5  C   UNL     1      12.111   7.695  20.316  0.00  0.00    +0.027 C 
ATOM      6  C   UNL     1      12.840   7.396  18.015  0.00  0.00    +0.094 C 
ATOM      7  C   UNL     1      11.371   8.606  19.345  0.00  0.00    +0.085 C 
ATOM      9  C   UNL     1      11.098   8.699  16.938  0.00  0.00    +0.104 C 
ENDBRANCH   8   4
TORSDOF 1
ENDMDL
MODEL 2
REMARK VINA RESULT:      -5.8     16.869     19.517
REMARK  Name = 51137078
REMARK  2 active torsions:
REMARK  status: ('A' for Active; 'I' for Inactive)
REMARK    1  A    between atoms: N_2  and  C_9
REMARK    2  A    between atoms: C_4  and  C_8
REMARK                            x       y       z     vdW  Elec       q    Type
REMARK                         _______ _______ _______ _____ _____    ______ ____
ROOT
ATOM      1  S   UNL     1      -3.311   1.214  24.543  0.00  0.00    -0.072 S 
ATOM      3  N   UNL     1      -1.233  -0.123  25.281  0.00  0.00    -0.244 NA
ATOM      8  C   UNL     1      -1.721   1.090  25.160  0.00  0.00    +0.084 A 
ATOM     10  C   UNL     1      -3.386  -0.504  24.415  0.00  0.00    +0.039 A 
ATOM     11  C   UNL     1      -2.177  -1.048  24.858  0.00  0.00    +0.078 A 
ATOM     12  C   UNL     1      -4.439  -1.312  23.956  0.00  0.00    +0.017 A 
ATOM     13  C   UNL     1      -2.018  -2.451  24.840  0.00  0.00    +0.029 A 
ATOM     14  C   UNL     1      -4.255  -2.697  23.948  0.00  0.00    +0.001 A 
ATOM     15  C   UNL     1      -3.062  -3.261  24.384  0.00  0.00    +0.002 A 
ENDROOT
BRANCH   8   4
ATOM      2  N   UNL     1      -1.023   4.684  25.296  0.00  0.00    -0.305 NA
ATOM      4  C   UNL     1      -0.973   2.351  25.526  0.00  0.00    +0.060 C 
ATOM      5  C   UNL     1       0.092   2.789  24.507  0.00  0.00    +0.027 C 
ATOM      6  C   UNL     1      -1.894   3.569  25.676  0.00  0.00    +0.094 C 
ATOM      7  C   UNL     1      -0.296   4.210  24.118  0.00  0.00    +0.085 C 
ATOM      9  C   UNL     1      -1.767   5.906  25.033  0.00  0.00    +0.104 C 
ENDBRANCH   8   4
TORSDOF 1
ENDMDL
MODEL 3
REMARK VINA RESULT:      -5.6      1.690      2.384
REMARK  Name = 51137078
REMARK  2 active torsions:
REMARK  status: ('A' for Active; 'I' for Inactive)
REMARK    1  A    between atoms: N_2  and  C_9
REMARK    2  A    between atoms: C_4  and  C_8
REMARK                            x       y       z     vdW  Elec       q    Type
REMARK                         _______ _______ _______ _____ _____    ______ ____
ROOT
ATOM      1  S   UNL     1      15.734   8.719  21.320  0.00  0.00    -0.072 S 
ATOM      3  N   UNL     1      14.899   7.435  19.246  0.00  0.00    -0.244 NA
ATOM      8  C   UNL     1      14.579   8.372  20.107  0.00  0.00    +0.084 A 
ATOM     10  C   UNL     1      16.778   7.516  20.658  0.00  0.00    +0.039 A 
ATOM     11  C   UNL     1      16.157   6.934  19.549  0.00  0.00    +0.078 A 
ATOM     12  C   UNL     1      18.053   7.117  21.090  0.00  0.00    +0.017 A 
ATOM     13  C   UNL     1      16.840   5.916  18.848  0.00  0.00    +0.029 A 
ATOM     14  C   UNL     1      18.706   6.107  20.379  0.00  0.00    +0.001 A 
ATOM     15  C   UNL     1      18.109   5.513  19.272  0.00  0.00    +0.002 A 
ENDROOT
BRANCH   8   4
ATOM      2  N   UNL     1      11.297   9.491  21.289  0.00  0.00    -0.305 NA
ATOM      4  C   UNL     1      13.280   9.143  20.086  0.00  0.00    +0.060 C 
ATOM      5  C   UNL     1      12.116   8.428  19.378  0.00  0.00    +0.027 C 
ATOM      6  C   UNL     1      12.747   9.454  21.491  0.00  0.00    +0.094 C 
ATOM      7  C   UNL     1      11.009   8.350  20.420  0.00  0.00    +0.085 C 
ATOM      9  C   UNL     1      10.559   9.434  22.542  0.00  0.00    +0.104 C 
ENDBRANCH   8   4
TORSDOF 1
ENDMDL
MODEL 4
REMARK VINA RESULT:      -5.3     27.892     31.085
REMARK  Name = 51137078
REMARK  2 active torsions:
REMARK  status: ('A' for Active; 'I' for Inactive)
REMARK    1  A    between atoms: N_2  and  C_9
REMARK    2  A    between atoms: C_4  and  C_8
REMARK                            x       y       z     vdW  Elec       q    Type
REMARK                         _______ _______ _______ _____ _____    ______ ____
ROOT
ATOM      1  S   UNL     1       0.013   2.142  -7.640  0.00  0.00    -0.072 S 
ATOM      3  N   UNL     1       0.412   0.344  -5.835  0.00  0.00    -0.244 NA
ATOM      8  C   UNL     1       0.882   1.465  -6.332  0.00  0.00    +0.084 A 
ATOM     10  C   UNL     1      -1.108   0.833  -7.561  0.00  0.00    +0.039 A 
ATOM     11  C   UNL     1      -0.729  -0.031  -6.530  0.00  0.00    +0.078 A 
ATOM     12  C   UNL     1      -2.240   0.590  -8.355  0.00  0.00    +0.017 A 
ATOM     13  C   UNL     1      -1.513  -1.179  -6.286  0.00  0.00    +0.029 A 
ATOM     14  C   UNL     1      -2.998  -0.554  -8.094  0.00  0.00    +0.001 A 
ATOM     15  C   UNL     1      -2.641  -1.428  -7.073  0.00  0.00    +0.002 A 
ENDROOT
BRANCH   8   4
ATOM      2  N   UNL     1       2.909   4.262  -5.112  0.00  0.00    -0.305 NA
ATOM      4  C   UNL     1       2.116   2.173  -5.822  0.00  0.00    +0.060 C 
ATOM      5  C   UNL     1       3.008   2.783  -6.917  0.00  0.00    +0.027 C 
ATOM      6  C   UNL     1       1.789   3.345  -4.888  0.00  0.00    +0.094 C 
ATOM      7  C   UNL     1       3.113   4.260  -6.560  0.00  0.00    +0.085 C 
ATOM      9  C   UNL     1       2.649   5.595  -4.590  0.00  0.00    +0.104 C 
ENDBRANCH   8   4
TORSDOF 1
ENDMDL
MODEL 5
REMARK VINA RESULT:      -5.2     13.545     16.475
REMARK  Name = 51137078
REMARK  2 active torsions:
REMARK  status: ('A' for Active; 'I' for Inactive)
REMARK    1  A    between atoms: N_2  and  C_9
REMARK    2  A    between atoms: C_4  and  C_8
REMARK                            x       y       z     vdW  Elec       q    Type
REMARK                         _______ _______ _______ _____ _____    ______ ____
ROOT
ATOM      1  S   UNL     1       9.442   6.927   4.526  0.00  0.00    -0.072 S 
ATOM      3  N   UNL     1      10.207   4.576   5.260  0.00  0.00    -0.244 NA
ATOM      8  C   UNL     1      10.057   5.361   4.218  0.00  0.00    +0.084 A 
ATOM     10  C   UNL     1       9.358   6.553   6.208  0.00  0.00    +0.039 A 
ATOM     11  C   UNL     1       9.810   5.246   6.408  0.00  0.00    +0.078 A 
ATOM     12  C   UNL     1       8.922   7.359   7.272  0.00  0.00    +0.017 A 
ATOM     13  C   UNL     1       9.827   4.728   7.722  0.00  0.00    +0.029 A 
ATOM     14  C   UNL     1       8.948   6.822   8.562  0.00  0.00    +0.001 A 
ATOM     15  C   UNL     1       9.394   5.524   8.786  0.00  0.00    +0.002 A 
ENDROOT
BRANCH   8   4
ATOM      2  N   UNL     1      12.076   4.024   1.469  0.00  0.00    -0.305 NA
ATOM      4  C   UNL     1      10.390   4.968   2.798  0.00  0.00    +0.060 C 
ATOM      5  C   UNL     1      11.065   6.070   1.964  0.00  0.00    +0.027 C 
ATOM      6  C   UNL     1      11.353   3.776   2.718  0.00  0.00    +0.094 C 
ATOM      7  C   UNL     1      12.374   5.456   1.485  0.00  0.00    +0.085 C 
ATOM      9  C   UNL     1      13.277   3.210   1.351  0.00  0.00    +0.104 C 
ENDBRANCH   8   4
TORSDOF 1
ENDMDL
MODEL 6
REMARK VINA RESULT:      -5.1      4.667      6.727
REMARK  Name = 51137078
REMARK  2 active torsions:
REMARK  status: ('A' for Active; 'I' for Inactive)
REMARK    1  A    between atoms: N_2  and  C_9
REMARK    2  A    between atoms: C_4  and  C_8
REMARK                            x       y       z     vdW  Elec       q    Type
REMARK                         _______ _______ _______ _____ _____    ______ ____
ROOT
ATOM      1  S   UNL     1      12.153  11.454  21.297  0.00  0.00    -0.072 S 
ATOM      3  N   UNL     1      10.893  10.141  23.123  0.00  0.00    -0.244 NA
ATOM      8  C   UNL     1      11.320  10.080  21.883  0.00  0.00    +0.084 A 
ATOM     10  C   UNL     1      11.939  12.225  22.825  0.00  0.00    +0.039 A 
ATOM     11  C   UNL     1      11.240  11.364  23.676  0.00  0.00    +0.078 A 
ATOM     12  C   UNL     1      12.360  13.499  23.239  0.00  0.00    +0.017 A 
ATOM     13  C   UNL     1      10.952  11.797  24.989  0.00  0.00    +0.029 A 
ATOM     14  C   UNL     1      12.062  13.902  24.543  0.00  0.00    +0.001 A 
ATOM     15  C   UNL     1      11.367  13.064  25.408  0.00  0.00    +0.002 A 
ENDROOT
BRANCH   8   4
ATOM      2  N   UNL     1      11.169   6.549  20.919  0.00  0.00    -0.305 NA
ATOM      4  C   UNL     1      11.124   8.893  20.969  0.00  0.00    +0.060 C 
ATOM      5  C   UNL     1      12.395   8.419  20.244  0.00  0.00    +0.027 C 
ATOM      6  C   UNL     1      10.610   7.650  21.707  0.00  0.00    +0.094 C 
ATOM      7  C   UNL     1      12.545   6.953  20.630  0.00  0.00    +0.085 C 
ATOM      9  C   UNL     1      11.100   5.274  21.617  0.00  0.00    +0.104 C 
ENDBRANCH   8   4
TORSDOF 1
ENDMDL
MODEL 7
REMARK VINA RESULT:      -5.1     26.220     27.345
REMARK  Name = 51137078
REMARK  2 active torsions:
REMARK  status: ('A' for Active; 'I' for Inactive)
REMARK    1  A    between atoms: N_2  and  C_9
REMARK    2  A    between atoms: C_4  and  C_8
REMARK                            x       y       z     vdW  Elec       q    Type
REMARK                         _______ _______ _______ _____ _____    ______ ____
ROOT
ATOM      1  S   UNL     1      -5.350 -10.057  15.646  0.00  0.00    -0.072 S 
ATOM      3  N   UNL     1      -3.518 -11.252  17.011  0.00  0.00    -0.244 NA
ATOM      8  C   UNL     1      -3.789 -10.728  15.839  0.00  0.00    +0.084 A 
ATOM     10  C   UNL     1      -5.729 -10.494  17.271  0.00  0.00    +0.039 A 
ATOM     11  C   UNL     1      -4.621 -11.126  17.843  0.00  0.00    +0.078 A 
ATOM     12  C   UNL     1      -6.920 -10.292  17.987  0.00  0.00    +0.017 A 
ATOM     13  C   UNL     1      -4.711 -11.571  19.180  0.00  0.00    +0.029 A 
ATOM     14  C   UNL     1      -6.982 -10.743  19.308  0.00  0.00    +0.001 A 
ATOM     15  C   UNL     1      -5.893 -11.374  19.898  0.00  0.00    +0.002 A 
ENDROOT
BRANCH   8   4
ATOM      2  N   UNL     1      -2.557 -11.336  12.442  0.00  0.00    -0.305 NA
ATOM      4  C   UNL     1      -2.821 -10.683  14.679  0.00  0.00    +0.060 C 
ATOM      5  C   UNL     1      -1.850 -11.874  14.602  0.00  0.00    +0.027 C 
ATOM      6  C   UNL     1      -3.523 -10.665  13.315  0.00  0.00    +0.094 C 
ATOM      7  C   UNL     1      -2.074 -12.476  13.221  0.00  0.00    +0.085 C 
ATOM      9  C   UNL     1      -3.142 -11.739  11.172  0.00  0.00    +0.104 C 
ENDBRANCH   8   4
TORSDOF 1
ENDMDL
MODEL 8
REMARK VINA RESULT:      -5.0     25.523     27.320
REMARK  Name = 51137078
REMARK  2 active torsions:
REMARK  status: ('A' for Active; 'I' for Inactive)
REMARK    1  A    between atoms: N_2  and  C_9
REMARK    2  A    between atoms: C_4  and  C_8
REMARK                            x       y       z     vdW  Elec       q    Type
REMARK                         _______ _______ _______ _____ _____    ______ ____
ROOT
ATOM      1  S   UNL     1     -13.005   8.929  19.127  0.00  0.00    -0.072 S 
ATOM      3  N   UNL     1     -11.124   7.612  20.302  0.00  0.00    -0.244 NA
ATOM      8  C   UNL     1     -11.363   8.612  19.485  0.00  0.00    +0.084 A 
ATOM     10  C   UNL     1     -13.471   7.620  20.148  0.00  0.00    +0.039 A 
ATOM     11  C   UNL     1     -12.323   7.034  20.691  0.00  0.00    +0.078 A 
ATOM     12  C   UNL     1     -14.759   7.147  20.448  0.00  0.00    +0.017 A 
ATOM     13  C   UNL     1     -12.473   5.934  21.564  0.00  0.00    +0.029 A 
ATOM     14  C   UNL     1     -14.878   6.057  21.313  0.00  0.00    +0.001 A 
ATOM     15  C   UNL     1     -13.752   5.457  21.865  0.00  0.00    +0.002 A 
ENDROOT
BRANCH   8   4
ATOM      2  N   UNL     1      -9.964  11.469  17.667  0.00  0.00    -0.305 NA
ATOM      4  C   UNL     1     -10.293   9.477  18.859  0.00  0.00    +0.060 C 
ATOM      5  C   UNL     1      -9.976   9.150  17.390  0.00  0.00    +0.027 C 
ATOM      6  C   UNL     1     -10.656  10.968  18.857  0.00  0.00    +0.094 C 
ATOM      7  C   UNL     1     -10.201  10.456  16.639  0.00  0.00    +0.085 C 
ATOM      9  C   UNL     1     -10.434  12.787  17.266  0.00  0.00    +0.104 C 
ENDBRANCH   8   4
TORSDOF 1
ENDMDL
MODEL 9
REMARK VINA RESULT:      -5.0      4.414      8.440
REMARK  Name = 51137078
REMARK  2 active torsions:
REMARK  status: ('A' for Active; 'I' for Inactive)
REMARK    1  A    between atoms: N_2  and  C_9
REMARK    2  A    between atoms: C_4  and  C_8
REMARK                            x       y       z     vdW  Elec       q    Type
REMARK                         _______ _______ _______ _____ _____    ______ ____
ROOT
ATOM      1  S   UNL     1      20.450   6.705  22.209  0.00  0.00    -0.072 S 
ATOM      3  N   UNL     1      20.225   4.956  20.328  0.00  0.00    -0.244 NA
ATOM      8  C   UNL     1      21.011   5.375  21.291  0.00  0.00    +0.084 A 
ATOM     10  C   UNL     1      19.016   6.749  21.251  0.00  0.00    +0.039 A 
ATOM     11  C   UNL     1      19.077   5.734  20.292  0.00  0.00    +0.078 A 
ATOM     12  C   UNL     1      17.919   7.620  21.342  0.00  0.00    +0.017 A 
ATOM     13  C   UNL     1      17.998   5.587  19.393  0.00  0.00    +0.029 A 
ATOM     14  C   UNL     1      16.865   7.453  20.439  0.00  0.00    +0.001 A 
ATOM     15  C   UNL     1      16.902   6.450  19.477  0.00  0.00    +0.002 A 
ENDROOT
BRANCH   8   4
ATOM      2  N   UNL     1      24.158   3.598  20.689  0.00  0.00    -0.305 NA
ATOM      4  C   UNL     1      22.351   4.763  21.626  0.00  0.00    +0.060 C 
ATOM      5  C   UNL     1      22.296   3.289  22.065  0.00  0.00    +0.027 C 
ATOM      6  C   UNL     1      23.329   4.780  20.444  0.00  0.00    +0.094 C 
ATOM      7  C   UNL     1      23.216   2.556  21.098  0.00  0.00    +0.085 C 
ATOM      9  C   UNL     1      24.937   3.214  19.522  0.00  0.00    +0.104 C 
ENDBRANCH   8   4
TORSDOF 1
ENDMDL
MODEL 10
REMARK VINA RESULT:      -5.0      3.897      4.799
REMARK  Name = 51137078
REMARK  2 active torsions:
REMARK  status: ('A' for Active; 'I' for Inactive)
REMARK    1  A    between atoms: N_2  and  C_9
REMARK    2  A    between atoms: C_4  and  C_8
REMARK                            x       y       z     vdW  Elec       q    Type
REMARK                         _______ _______ _______ _____ _____    ______ ____
ROOT
ATOM      1  S   UNL     1      13.646  10.201  19.141  0.00  0.00    -0.072 S 
ATOM      3  N   UNL     1      13.237   8.964  16.915  0.00  0.00    -0.244 NA
ATOM      8  C   UNL     1      12.920   8.979  18.189  0.00  0.00    +0.084 A 
ATOM     10  C   UNL     1      14.473  10.785  17.744  0.00  0.00    +0.039 A 
ATOM     11  C   UNL     1      14.127   9.993  16.645  0.00  0.00    +0.078 A 
ATOM     12  C   UNL     1      15.362  11.865  17.631  0.00  0.00    +0.017 A 
ATOM     13  C   UNL     1      14.694  10.296  15.388  0.00  0.00    +0.029 A 
ATOM     14  C   UNL     1      15.909  12.142  16.376  0.00  0.00    +0.001 A 
ATOM     15  C   UNL     1      15.581  11.370  15.268  0.00  0.00    +0.002 A 
ENDROOT
BRANCH   8   4
ATOM      2  N   UNL     1      10.922   7.500  20.880  0.00  0.00    -0.305 NA
ATOM      4  C   UNL     1      11.971   8.003  18.844  0.00  0.00    +0.060 C 
ATOM      5  C   UNL     1      12.645   6.775  19.480  0.00  0.00    +0.027 C 
ATOM      6  C   UNL     1      11.157   8.633  19.982  0.00  0.00    +0.094 C 
ATOM      7  C   UNL     1      12.201   6.793  20.937  0.00  0.00    +0.085 C 
ATOM      9  C   UNL     1      10.462   7.919  22.195  0.00  0.00    +0.104 C 
ENDBRANCH   8   4
TORSDOF 1
ENDMDL
