MODEL 1
REMARK VINA RESULT:      -6.2      0.000      0.000
REMARK  Name = 25389540
REMARK  13 active torsions:
REMARK  status: ('A' for Active; 'I' for Inactive)
REMARK    1  A    between atoms: O_1  and  C_17
REMARK    2  A    between atoms: O_1  and  C_22
REMARK    3  A    between atoms: O_3  and  C_26
REMARK    4  A    between atoms: O_3  and  C_31
REMARK    5  A    between atoms: O_4  and  C_28
REMARK    6  A    between atoms: O_4  and  C_32
REMARK    7  A    between atoms: N_6  and  C_20
REMARK    8  A    between atoms: N_8  and  C_25
REMARK    9  A    between atoms: C_10  and  C_16
REMARK   10  A    between atoms: C_11  and  C_17
REMARK   11  A    between atoms: C_19  and  C_21
REMARK   12  A    between atoms: C_25  and  C_29
REMARK   13  A    between atoms: C_25  and  C_30
REMARK                            x       y       z     vdW  Elec       q    Type
REMARK                         _______ _______ _______ _____ _____    ______ ____
ROOT
ATOM      5  N   UNL     1      13.699   5.031  -1.110  0.00  0.00    -0.296 NA
ATOM      9  C   UNL     1      11.920   3.487   0.001  0.00  0.00    +0.002 C 
ATOM     10  C   UNL     1      11.447   4.966   0.025  0.00  0.00    +0.055 C 
ATOM     11  C   UNL     1      14.348   4.149  -0.103  0.00  0.00    +0.095 C 
ATOM     12  C   UNL     1      13.287   3.377   0.710  0.00  0.00    +0.026 C 
ATOM     13  C   UNL     1      12.145   3.115  -1.480  0.00  0.00    +0.019 C 
ATOM     14  C   UNL     1      12.635   5.841  -0.465  0.00  0.00    +0.094 C 
ATOM     15  C   UNL     1      13.065   4.163  -2.131  0.00  0.00    +0.085 C 
ENDROOT
BRANCH  10  16
ATOM      6  N   UNL     1      10.094   6.652   1.355  0.00  0.00    -0.270 N 
ATOM      7  N   UNL     1       9.635   6.953   2.582  0.00  0.00    -0.171 NA
ATOM     16  C   UNL     1      10.826   5.502   1.308  0.00  0.00    +0.044 A 
ATOM     18  C   UNL     1      10.849   5.018   2.592  0.00  0.00    +0.053 A 
ATOM     19  C   UNL     1      10.098   5.951   3.334  0.00  0.00    +0.093 A 
ATOM     20  C   UNL     1       9.786   7.532   0.252  0.00  0.00    +0.172 C 
BRANCH  19  21
ATOM     21  C   UNL     1       9.819   5.904   4.746  0.00  0.00    +0.006 A 
ATOM     23  C   UNL     1       9.230   7.000   5.377  0.00  0.00    +0.059 A 
ATOM     24  C   UNL     1      10.136   4.762   5.481  0.00  0.00    +0.014 A 
ATOM     26  C   UNL     1       8.960   6.954   6.744  0.00  0.00    +0.162 A 
ATOM     27  C   UNL     1       9.866   4.717   6.849  0.00  0.00    +0.050 A 
ATOM     28  C   UNL     1       9.278   5.812   7.480  0.00  0.00    +0.162 A 
BRANCH  26   3
ATOM      3  O   UNL     1       8.385   8.031   7.350  0.00  0.00    -0.491 OA
ATOM     31  C   UNL     1       9.228   9.148   7.622  0.00  0.00    +0.277 C 
ENDBRANCH  26   3
BRANCH  28   4
ATOM      4  O   UNL     1       9.018   5.756   8.817  0.00  0.00    -0.491 OA
ATOM     32  C   UNL     1       9.378   4.553   9.496  0.00  0.00    +0.277 C 
ENDBRANCH  28   4
ENDBRANCH  19  21
ENDBRANCH  10  16
BRANCH  11  17
ATOM     17  C   UNL     1      15.316   4.914   0.803  0.00  0.00    +0.252 C 
BRANCH  17   1
ATOM      1  O   UNL     1      14.671   5.160   2.037  0.00  0.00    -0.449 OA
BRANCH   1  22
ATOM      2  O   UNL     1      15.170   7.396   1.873  0.00  0.00    -0.226 OA
ATOM      8  N   UNL     1      14.260   6.501   3.810  0.00  0.00    -0.279 N 
ATOM     22  C   UNL     1      14.740   6.446   2.519  0.00  0.00    +0.401 C 
ATOM     33  H   UNL     1      13.888   5.644   4.213  0.00  0.00    +0.152 HD
BRANCH   8  25
ATOM     25  C   UNL     1      14.201   7.713   4.593  0.00  0.00    +0.070 C 
ATOM     29  C   UNL     1      15.390   7.789   5.541  0.00  0.00    +0.027 C 
ATOM     30  C   UNL     1      12.882   7.793   5.354  0.00  0.00    +0.027 C 
ENDBRANCH   8  25
ENDBRANCH   1  22
ENDBRANCH  17   1
ENDBRANCH  11  17
TORSDOF 8
ENDMDL
MODEL 2
REMARK VINA RESULT:      -6.2     24.523     28.667
REMARK  Name = 25389540
REMARK  13 active torsions:
REMARK  status: ('A' for Active; 'I' for Inactive)
REMARK    1  A    between atoms: O_1  and  C_17
REMARK    2  A    between atoms: O_1  and  C_22
REMARK    3  A    between atoms: O_3  and  C_26
REMARK    4  A    between atoms: O_3  and  C_31
REMARK    5  A    between atoms: O_4  and  C_28
REMARK    6  A    between atoms: O_4  and  C_32
REMARK    7  A    between atoms: N_6  and  C_20
REMARK    8  A    between atoms: N_8  and  C_25
REMARK    9  A    between atoms: C_10  and  C_16
REMARK   10  A    between atoms: C_11  and  C_17
REMARK   11  A    between atoms: C_19  and  C_21
REMARK   12  A    between atoms: C_25  and  C_29
REMARK   13  A    between atoms: C_25  and  C_30
REMARK                            x       y       z     vdW  Elec       q    Type
REMARK                         _______ _______ _______ _____ _____    ______ ____
ROOT
ATOM      5  N   UNL     1      -5.501 -12.756  17.028  0.00  0.00    -0.296 NA
ATOM      9  C   UNL     1      -5.810 -10.696  18.593  0.00  0.00    +0.002 C 
ATOM     10  C   UNL     1      -7.164 -11.429  18.384  0.00  0.00    +0.055 C 
ATOM     11  C   UNL     1      -4.885 -11.551  16.412  0.00  0.00    +0.095 C 
ATOM     12  C   UNL     1      -5.236 -10.284  17.221  0.00  0.00    +0.026 C 
ATOM     13  C   UNL     1      -4.837 -11.727  19.202  0.00  0.00    +0.019 C 
ATOM     14  C   UNL     1      -6.942 -12.512  17.291  0.00  0.00    +0.094 C 
ATOM     15  C   UNL     1      -4.828 -12.994  18.328  0.00  0.00    +0.085 C 
ENDROOT
BRANCH  10  16
ATOM      6  N   UNL     1      -9.537 -10.670  18.873  0.00  0.00    -0.270 N 
ATOM      7  N   UNL     1     -10.518  -9.843  18.474  0.00  0.00    -0.171 NA
ATOM     16  C   UNL     1      -8.404 -10.586  18.118  0.00  0.00    +0.044 A 
ATOM     18  C   UNL     1      -8.662  -9.639  17.157  0.00  0.00    +0.053 A 
ATOM     19  C   UNL     1      -9.978  -9.215  17.426  0.00  0.00    +0.093 A 
ATOM     20  C   UNL     1      -9.760 -11.532  20.010  0.00  0.00    +0.172 C 
BRANCH  19  21
ATOM     21  C   UNL     1     -10.729  -8.225  16.699  0.00  0.00    +0.006 A 
ATOM     23  C   UNL     1     -12.084  -8.430  16.437  0.00  0.00    +0.059 A 
ATOM     24  C   UNL     1     -10.102  -7.061  16.256  0.00  0.00    +0.014 A 
ATOM     26  C   UNL     1     -12.811  -7.471  15.733  0.00  0.00    +0.162 A 
ATOM     27  C   UNL     1     -10.829  -6.102  15.551  0.00  0.00    +0.050 A 
ATOM     28  C   UNL     1     -12.183  -6.306  15.289  0.00  0.00    +0.162 A 
BRANCH  26   3
ATOM      3  O   UNL     1     -14.134  -7.682  15.483  0.00  0.00    -0.491 OA
ATOM     31  C   UNL     1     -15.064  -7.126  16.410  0.00  0.00    +0.277 C 
ENDBRANCH  26   3
BRANCH  28   4
ATOM      4  O   UNL     1     -12.883  -5.362  14.601  0.00  0.00    -0.491 OA
ATOM     32  C   UNL     1     -12.406  -5.023  13.299  0.00  0.00    +0.277 C 
ENDBRANCH  28   4
ENDBRANCH  19  21
ENDBRANCH  10  16
BRANCH  11  17
ATOM     17  C   UNL     1      -5.250 -11.403  14.933  0.00  0.00    +0.252 C 
BRANCH  17   1
ATOM      1  O   UNL     1      -4.504 -10.328  14.395  0.00  0.00    -0.449 OA
BRANCH   1  22
ATOM      2  O   UNL     1      -2.486 -11.204  13.739  0.00  0.00    -0.226 OA
ATOM      8  N   UNL     1      -3.952 -10.267  12.205  0.00  0.00    -0.279 N 
ATOM     22  C   UNL     1      -3.546 -10.651  13.464  0.00  0.00    +0.401 C 
ATOM     33  H   UNL     1      -4.878  -9.859  12.110  0.00  0.00    +0.152 HD
BRANCH   8  25
ATOM     25  C   UNL     1      -3.163 -10.469  11.011  0.00  0.00    +0.070 C 
ATOM     29  C   UNL     1      -3.249  -9.246  10.107  0.00  0.00    +0.027 C 
ATOM     30  C   UNL     1      -3.612 -11.728  10.280  0.00  0.00    +0.027 C 
ENDBRANCH   8  25
ENDBRANCH   1  22
ENDBRANCH  17   1
ENDBRANCH  11  17
TORSDOF 8
ENDMDL
MODEL 3
REMARK VINA RESULT:      -6.0     26.459     29.300
REMARK  Name = 25389540
REMARK  13 active torsions:
REMARK  status: ('A' for Active; 'I' for Inactive)
REMARK    1  A    between atoms: O_1  and  C_17
REMARK    2  A    between atoms: O_1  and  C_22
REMARK    3  A    between atoms: O_3  and  C_26
REMARK    4  A    between atoms: O_3  and  C_31
REMARK    5  A    between atoms: O_4  and  C_28
REMARK    6  A    between atoms: O_4  and  C_32
REMARK    7  A    between atoms: N_6  and  C_20
REMARK    8  A    between atoms: N_8  and  C_25
REMARK    9  A    between atoms: C_10  and  C_16
REMARK   10  A    between atoms: C_11  and  C_17
REMARK   11  A    between atoms: C_19  and  C_21
REMARK   12  A    between atoms: C_25  and  C_29
REMARK   13  A    between atoms: C_25  and  C_30
REMARK                            x       y       z     vdW  Elec       q    Type
REMARK                         _______ _______ _______ _____ _____    ______ ____
ROOT
ATOM      5  N   UNL     1      -5.418 -12.709  17.058  0.00  0.00    -0.296 NA
ATOM      9  C   UNL     1      -5.753 -10.671  18.645  0.00  0.00    +0.002 C 
ATOM     10  C   UNL     1      -7.098 -11.417  18.427  0.00  0.00    +0.055 C 
ATOM     11  C   UNL     1      -4.817 -11.490  16.455  0.00  0.00    +0.095 C 
ATOM     12  C   UNL     1      -5.184 -10.237  17.277  0.00  0.00    +0.026 C 
ATOM     13  C   UNL     1      -4.767 -11.696  19.243  0.00  0.00    +0.019 C 
ATOM     14  C   UNL     1      -6.862 -12.486  17.322  0.00  0.00    +0.094 C 
ATOM     15  C   UNL     1      -4.743 -12.953  18.355  0.00  0.00    +0.085 C 
ENDROOT
BRANCH  10  16
ATOM      6  N   UNL     1      -9.480 -10.694  18.923  0.00  0.00    -0.270 N 
ATOM      7  N   UNL     1     -10.472  -9.875  18.532  0.00  0.00    -0.171 NA
ATOM     16  C   UNL     1      -8.348 -10.587  18.169  0.00  0.00    +0.044 A 
ATOM     18  C   UNL     1      -8.618  -9.633  17.219  0.00  0.00    +0.053 A 
ATOM     19  C   UNL     1      -9.939  -9.229  17.492  0.00  0.00    +0.093 A 
ATOM     20  C   UNL     1      -9.694 -11.572  20.049  0.00  0.00    +0.172 C 
BRANCH  19  21
ATOM     21  C   UNL     1     -10.702  -8.240  16.775  0.00  0.00    +0.006 A 
ATOM     23  C   UNL     1     -12.080  -8.395  16.625  0.00  0.00    +0.059 A 
ATOM     24  C   UNL     1     -10.063  -7.126  16.231  0.00  0.00    +0.014 A 
ATOM     26  C   UNL     1     -12.818  -7.438  15.931  0.00  0.00    +0.162 A 
ATOM     27  C   UNL     1     -10.801  -6.169  15.536  0.00  0.00    +0.050 A 
ATOM     28  C   UNL     1     -12.179  -6.324  15.386  0.00  0.00    +0.162 A 
BRANCH  26   3
ATOM      3  O   UNL     1     -14.164  -7.600  15.791  0.00  0.00    -0.491 OA
ATOM     31  C   UNL     1     -14.798  -8.534  16.662  0.00  0.00    +0.277 C 
ENDBRANCH  26   3
BRANCH  28   4
ATOM      4  O   UNL     1     -12.890  -5.381  14.706  0.00  0.00    -0.491 OA
ATOM     32  C   UNL     1     -12.343  -4.925  13.469  0.00  0.00    +0.277 C 
ENDBRANCH  28   4
ENDBRANCH  19  21
ENDBRANCH  10  16
BRANCH  11  17
ATOM     17  C   UNL     1      -5.183 -11.330  14.977  0.00  0.00    +0.252 C 
BRANCH  17   1
ATOM      1  O   UNL     1      -5.687 -10.023  14.782  0.00  0.00    -0.449 OA
BRANCH   1  22
ATOM      2  O   UNL     1      -5.897  -9.378  12.588  0.00  0.00    -0.226 OA
ATOM      8  N   UNL     1      -7.721 -10.137  13.803  0.00  0.00    -0.279 N 
ATOM     22  C   UNL     1      -6.395  -9.806  13.624  0.00  0.00    +0.401 C 
ATOM     33  H   UNL     1      -7.994 -10.526  14.702  0.00  0.00    +0.152 HD
BRANCH   8  25
ATOM     25  C   UNL     1      -8.724 -10.019  12.770  0.00  0.00    +0.070 C 
ATOM     29  C   UNL     1     -10.053  -9.580  13.371  0.00  0.00    +0.027 C 
ATOM     30  C   UNL     1      -8.869 -11.334  12.013  0.00  0.00    +0.027 C 
ENDBRANCH   8  25
ENDBRANCH   1  22
ENDBRANCH  17   1
ENDBRANCH  11  17
TORSDOF 8
ENDMDL
MODEL 4
REMARK VINA RESULT:      -5.9     23.476     26.271
REMARK  Name = 25389540
REMARK  13 active torsions:
REMARK  status: ('A' for Active; 'I' for Inactive)
REMARK    1  A    between atoms: O_1  and  C_17
REMARK    2  A    between atoms: O_1  and  C_22
REMARK    3  A    between atoms: O_3  and  C_26
REMARK    4  A    between atoms: O_3  and  C_31
REMARK    5  A    between atoms: O_4  and  C_28
REMARK    6  A    between atoms: O_4  and  C_32
REMARK    7  A    between atoms: N_6  and  C_20
REMARK    8  A    between atoms: N_8  and  C_25
REMARK    9  A    between atoms: C_10  and  C_16
REMARK   10  A    between atoms: C_11  and  C_17
REMARK   11  A    between atoms: C_19  and  C_21
REMARK   12  A    between atoms: C_25  and  C_29
REMARK   13  A    between atoms: C_25  and  C_30
REMARK                            x       y       z     vdW  Elec       q    Type
REMARK                         _______ _______ _______ _____ _____    ______ ____
ROOT
ATOM      5  N   UNL     1      -5.990 -10.189   9.253  0.00  0.00    -0.296 NA
ATOM      9  C   UNL     1      -4.174  -8.885  10.590  0.00  0.00    +0.002 C 
ATOM     10  C   UNL     1      -4.402 -10.291  11.211  0.00  0.00    +0.055 C 
ATOM     11  C   UNL     1      -6.486  -8.829   9.593  0.00  0.00    +0.095 C 
ATOM     12  C   UNL     1      -5.514  -8.119  10.557  0.00  0.00    +0.026 C 
ATOM     13  C   UNL     1      -3.744  -9.111   9.125  0.00  0.00    +0.019 C 
ATOM     14  C   UNL     1      -5.628 -10.922  10.492  0.00  0.00    +0.094 C 
ATOM     15  C   UNL     1      -4.764 -10.033   8.433  0.00  0.00    +0.085 C 
ENDROOT
BRANCH  10  16
ATOM      6  N   UNL     1      -3.413 -10.549  13.534  0.00  0.00    -0.270 N 
ATOM      7  N   UNL     1      -3.715 -10.627  14.842  0.00  0.00    -0.171 NA
ATOM     16  C   UNL     1      -4.502 -10.400  12.726  0.00  0.00    +0.044 A 
ATOM     18  C   UNL     1      -5.591 -10.380  13.562  0.00  0.00    +0.053 A 
ATOM     19  C   UNL     1      -5.046 -10.523  14.853  0.00  0.00    +0.093 A 
ATOM     20  C   UNL     1      -2.031 -10.628  13.123  0.00  0.00    +0.172 C 
BRANCH  19  21
ATOM     21  C   UNL     1      -5.773 -10.564  16.095  0.00  0.00    +0.006 A 
ATOM     23  C   UNL     1      -6.800  -9.650  16.333  0.00  0.00    +0.059 A 
ATOM     24  C   UNL     1      -5.452 -11.518  17.060  0.00  0.00    +0.014 A 
ATOM     26  C   UNL     1      -7.504  -9.690  17.536  0.00  0.00    +0.162 A 
ATOM     27  C   UNL     1      -6.155 -11.557  18.264  0.00  0.00    +0.050 A 
ATOM     28  C   UNL     1      -7.182 -10.644  18.502  0.00  0.00    +0.162 A 
BRANCH  26   3
ATOM      3  O   UNL     1      -8.506  -8.792  17.757  0.00  0.00    -0.491 OA
ATOM     31  C   UNL     1      -9.449  -8.602  16.705  0.00  0.00    +0.277 C 
ENDBRANCH  26   3
BRANCH  28   4
ATOM      4  O   UNL     1      -7.863 -10.693  19.681  0.00  0.00    -0.491 OA
ATOM     32  C   UNL     1      -8.986 -11.571  19.743  0.00  0.00    +0.277 C 
ENDBRANCH  28   4
ENDBRANCH  19  21
ENDBRANCH  10  16
BRANCH  11  17
ATOM     17  C   UNL     1      -7.916  -8.851  10.137  0.00  0.00    +0.252 C 
BRANCH  17   1
ATOM      1  O   UNL     1      -8.779  -9.291   9.106  0.00  0.00    -0.449 OA
BRANCH   1  22
ATOM      2  O   UNL     1      -9.745  -8.389   7.229  0.00  0.00    -0.226 OA
ATOM      8  N   UNL     1      -9.774  -7.267   9.259  0.00  0.00    -0.279 N 
ATOM     22  C   UNL     1      -9.462  -8.315   8.420  0.00  0.00    +0.401 C 
ATOM     33  H   UNL     1      -9.520  -7.355  10.239  0.00  0.00    +0.152 HD
BRANCH   8  25
ATOM     25  C   UNL     1     -10.490  -6.086   8.836  0.00  0.00    +0.070 C 
ATOM     29  C   UNL     1      -9.522  -4.933   8.607  0.00  0.00    +0.027 C 
ATOM     30  C   UNL     1     -11.559  -5.715   9.858  0.00  0.00    +0.027 C 
ENDBRANCH   8  25
ENDBRANCH   1  22
ENDBRANCH  17   1
ENDBRANCH  11  17
TORSDOF 8
ENDMDL
MODEL 5
REMARK VINA RESULT:      -5.8     21.789     23.581
REMARK  Name = 25389540
REMARK  13 active torsions:
REMARK  status: ('A' for Active; 'I' for Inactive)
REMARK    1  A    between atoms: O_1  and  C_17
REMARK    2  A    between atoms: O_1  and  C_22
REMARK    3  A    between atoms: O_3  and  C_26
REMARK    4  A    between atoms: O_3  and  C_31
REMARK    5  A    between atoms: O_4  and  C_28
REMARK    6  A    between atoms: O_4  and  C_32
REMARK    7  A    between atoms: N_6  and  C_20
REMARK    8  A    between atoms: N_8  and  C_25
REMARK    9  A    between atoms: C_10  and  C_16
REMARK   10  A    between atoms: C_11  and  C_17
REMARK   11  A    between atoms: C_19  and  C_21
REMARK   12  A    between atoms: C_25  and  C_29
REMARK   13  A    between atoms: C_25  and  C_30
REMARK                            x       y       z     vdW  Elec       q    Type
REMARK                         _______ _______ _______ _____ _____    ______ ____
ROOT
ATOM      5  N   UNL     1       3.770 -16.433  -1.251  0.00  0.00    -0.296 NA
ATOM      9  C   UNL     1       3.757 -14.341   0.301  0.00  0.00    +0.002 C 
ATOM     10  C   UNL     1       3.094 -15.552   1.015  0.00  0.00    +0.055 C 
ATOM     11  C   UNL     1       3.230 -15.258  -1.985  0.00  0.00    +0.095 C 
ATOM     12  C   UNL     1       3.020 -14.066  -1.027  0.00  0.00    +0.026 C 
ATOM     13  C   UNL     1       5.196 -14.769  -0.057  0.00  0.00    +0.019 C 
ATOM     14  C   UNL     1       2.958 -16.691  -0.035  0.00  0.00    +0.094 C 
ATOM     15  C   UNL     1       5.152 -16.104  -0.822  0.00  0.00    +0.085 C 
ENDROOT
BRANCH  10  16
ATOM      6  N   UNL     1       1.456 -16.022   2.895  0.00  0.00    -0.270 N 
ATOM      7  N   UNL     1       0.273 -15.661   3.423  0.00  0.00    -0.171 NA
ATOM     16  C   UNL     1       1.800 -15.315   1.780  0.00  0.00    +0.044 A 
ATOM     18  C   UNL     1       0.772 -14.432   1.563  0.00  0.00    +0.053 A 
ATOM     19  C   UNL     1      -0.140 -14.689   2.606  0.00  0.00    +0.093 A 
ATOM     20  C   UNL     1       2.217 -17.075   3.525  0.00  0.00    +0.172 C 
BRANCH  19  21
ATOM     21  C   UNL     1      -1.398 -14.026   2.833  0.00  0.00    +0.006 A 
ATOM     23  C   UNL     1      -2.236 -13.733   1.757  0.00  0.00    +0.059 A 
ATOM     24  C   UNL     1      -1.778 -13.679   4.129  0.00  0.00    +0.014 A 
ATOM     26  C   UNL     1      -3.453 -13.091   1.977  0.00  0.00    +0.162 A 
ATOM     27  C   UNL     1      -2.996 -13.036   4.348  0.00  0.00    +0.050 A 
ATOM     28  C   UNL     1      -3.834 -12.742   3.274  0.00  0.00    +0.162 A 
BRANCH  26   3
ATOM      3  O   UNL     1      -4.264 -12.809   0.919  0.00  0.00    -0.491 OA
ATOM     31  C   UNL     1      -3.679 -12.871  -0.380  0.00  0.00    +0.277 C 
ENDBRANCH  26   3
BRANCH  28   4
ATOM      4  O   UNL     1      -5.022 -12.114   3.501  0.00  0.00    -0.491 OA
ATOM     32  C   UNL     1      -5.232 -11.580   4.808  0.00  0.00    +0.277 C 
ENDBRANCH  28   4
ENDBRANCH  19  21
ENDBRANCH  10  16
BRANCH  11  17
ATOM     17  C   UNL     1       1.957 -15.595  -2.764  0.00  0.00    +0.252 C 
BRANCH  17   1
ATOM      1  O   UNL     1       1.137 -14.443  -2.798  0.00  0.00    -0.449 OA
BRANCH   1  22
ATOM      2  O   UNL     1       0.535 -14.339  -5.012  0.00  0.00    -0.226 OA
ATOM      8  N   UNL     1       1.503 -12.525  -3.937  0.00  0.00    -0.279 N 
ATOM     22  C   UNL     1       1.015 -13.812  -4.013  0.00  0.00    +0.401 C 
ATOM     33  H   UNL     1       1.831 -12.197  -3.033  0.00  0.00    +0.152 HD
BRANCH   8  25
ATOM     25  C   UNL     1       1.516 -11.605  -5.051  0.00  0.00    +0.070 C 
ATOM     29  C   UNL     1       2.561 -12.028  -6.075  0.00  0.00    +0.027 C 
ATOM     30  C   UNL     1       1.765 -10.182  -4.564  0.00  0.00    +0.027 C 
ENDBRANCH   8  25
ENDBRANCH   1  22
ENDBRANCH  17   1
ENDBRANCH  11  17
TORSDOF 8
ENDMDL
MODEL 6
REMARK VINA RESULT:      -5.6     23.655     26.973
REMARK  Name = 25389540
REMARK  13 active torsions:
REMARK  status: ('A' for Active; 'I' for Inactive)
REMARK    1  A    between atoms: O_1  and  C_17
REMARK    2  A    between atoms: O_1  and  C_22
REMARK    3  A    between atoms: O_3  and  C_26
REMARK    4  A    between atoms: O_3  and  C_31
REMARK    5  A    between atoms: O_4  and  C_28
REMARK    6  A    between atoms: O_4  and  C_32
REMARK    7  A    between atoms: N_6  and  C_20
REMARK    8  A    between atoms: N_8  and  C_25
REMARK    9  A    between atoms: C_10  and  C_16
REMARK   10  A    between atoms: C_11  and  C_17
REMARK   11  A    between atoms: C_19  and  C_21
REMARK   12  A    between atoms: C_25  and  C_29
REMARK   13  A    between atoms: C_25  and  C_30
REMARK                            x       y       z     vdW  Elec       q    Type
REMARK                         _______ _______ _______ _____ _____    ______ ____
ROOT
ATOM      5  N   UNL     1      -5.758 -12.432  18.095  0.00  0.00    -0.296 NA
ATOM      9  C   UNL     1      -6.856 -10.091  17.784  0.00  0.00    +0.002 C 
ATOM     10  C   UNL     1      -7.349 -11.073  16.686  0.00  0.00    +0.055 C 
ATOM     11  C   UNL     1      -4.715 -11.373  18.125  0.00  0.00    +0.095 C 
ATOM     12  C   UNL     1      -5.316 -10.005  17.737  0.00  0.00    +0.026 C 
ATOM     13  C   UNL     1      -7.235 -10.717  19.143  0.00  0.00    +0.019 C 
ATOM     14  C   UNL     1      -6.506 -12.373  16.814  0.00  0.00    +0.094 C 
ATOM     15  C   UNL     1      -6.711 -12.162  19.199  0.00  0.00    +0.085 C 
ENDROOT
BRANCH  10  16
ATOM      6  N   UNL     1      -8.481  -9.864  14.762  0.00  0.00    -0.270 N 
ATOM      7  N   UNL     1      -8.350  -9.513  13.471  0.00  0.00    -0.171 NA
ATOM     16  C   UNL     1      -7.420 -10.569  15.251  0.00  0.00    +0.044 A 
ATOM     18  C   UNL     1      -6.535 -10.688  14.208  0.00  0.00    +0.053 A 
ATOM     19  C   UNL     1      -7.159 -10.018  13.138  0.00  0.00    +0.093 A 
ATOM     20  C   UNL     1      -9.675  -9.483  15.479  0.00  0.00    +0.172 C 
BRANCH  19  21
ATOM     21  C   UNL     1      -6.641  -9.855  11.804  0.00  0.00    +0.006 A 
ATOM     23  C   UNL     1      -7.318  -9.052  10.886  0.00  0.00    +0.059 A 
ATOM     24  C   UNL     1      -5.462 -10.499  11.431  0.00  0.00    +0.014 A 
ATOM     26  C   UNL     1      -6.817  -8.894   9.595  0.00  0.00    +0.162 A 
ATOM     27  C   UNL     1      -4.961 -10.342  10.139  0.00  0.00    +0.050 A 
ATOM     28  C   UNL     1      -5.637  -9.539   9.221  0.00  0.00    +0.162 A 
BRANCH  26   3
ATOM      3  O   UNL     1      -7.486  -8.107   8.707  0.00  0.00    -0.491 OA
ATOM     31  C   UNL     1      -8.841  -8.454   8.427  0.00  0.00    +0.277 C 
ENDBRANCH  26   3
BRANCH  28   4
ATOM      4  O   UNL     1      -5.137  -9.392   7.962  0.00  0.00    -0.491 OA
ATOM     32  C   UNL     1      -5.283 -10.499   7.074  0.00  0.00    +0.277 C 
ENDBRANCH  28   4
ENDBRANCH  19  21
ENDBRANCH  10  16
BRANCH  11  17
ATOM     17  C   UNL     1      -3.501 -11.728  17.264  0.00  0.00    +0.252 C 
BRANCH  17   1
ATOM      1  O   UNL     1      -3.179 -10.607  16.464  0.00  0.00    -0.449 OA
BRANCH   1  22
ATOM      2  O   UNL     1      -1.015 -10.594  15.695  0.00  0.00    -0.226 OA
ATOM      8  N   UNL     1      -2.778 -11.234  14.330  0.00  0.00    -0.279 N 
ATOM     22  C   UNL     1      -2.210 -10.795  15.506  0.00  0.00    +0.401 C 
ATOM     33  H   UNL     1      -3.780 -11.404  14.323  0.00  0.00    +0.152 HD
BRANCH   8  25
ATOM     25  C   UNL     1      -2.023 -11.521  13.132  0.00  0.00    +0.070 C 
ATOM     29  C   UNL     1      -1.871 -10.264  12.287  0.00  0.00    +0.027 C 
ATOM     30  C   UNL     1      -2.683 -12.643  12.340  0.00  0.00    +0.027 C 
ENDBRANCH   8  25
ENDBRANCH   1  22
ENDBRANCH  17   1
ENDBRANCH  11  17
TORSDOF 8
ENDMDL
MODEL 7
REMARK VINA RESULT:      -5.6      2.928      7.933
REMARK  Name = 25389540
REMARK  13 active torsions:
REMARK  status: ('A' for Active; 'I' for Inactive)
REMARK    1  A    between atoms: O_1  and  C_17
REMARK    2  A    between atoms: O_1  and  C_22
REMARK    3  A    between atoms: O_3  and  C_26
REMARK    4  A    between atoms: O_3  and  C_31
REMARK    5  A    between atoms: O_4  and  C_28
REMARK    6  A    between atoms: O_4  and  C_32
REMARK    7  A    between atoms: N_6  and  C_20
REMARK    8  A    between atoms: N_8  and  C_25
REMARK    9  A    between atoms: C_10  and  C_16
REMARK   10  A    between atoms: C_11  and  C_17
REMARK   11  A    between atoms: C_19  and  C_21
REMARK   12  A    between atoms: C_25  and  C_29
REMARK   13  A    between atoms: C_25  and  C_30
REMARK                            x       y       z     vdW  Elec       q    Type
REMARK                         _______ _______ _______ _____ _____    ______ ____
ROOT
ATOM      5  N   UNL     1       8.968   7.530   5.368  0.00  0.00    -0.296 NA
ATOM      9  C   UNL     1      10.641   6.873   7.253  0.00  0.00    +0.002 C 
ATOM     10  C   UNL     1      10.945   8.304   6.730  0.00  0.00    +0.055 C 
ATOM     11  C   UNL     1       9.554   6.192   5.086  0.00  0.00    +0.095 C 
ATOM     12  C   UNL     1      10.695   5.877   6.075  0.00  0.00    +0.026 C 
ATOM     13  C   UNL     1       9.187   6.888   7.769  0.00  0.00    +0.019 C 
ATOM     14  C   UNL     1      10.047   8.543   5.484  0.00  0.00    +0.094 C 
ATOM     15  C   UNL     1       8.266   7.451   6.672  0.00  0.00    +0.085 C 
ENDROOT
BRANCH  10  16
ATOM      6  N   UNL     1      12.984   9.787   7.021  0.00  0.00    -0.270 N 
ATOM      7  N   UNL     1      14.273   9.945   6.672  0.00  0.00    -0.171 NA
ATOM     16  C   UNL     1      12.398   8.683   6.476  0.00  0.00    +0.044 A 
ATOM     18  C   UNL     1      13.369   8.077   5.718  0.00  0.00    +0.053 A 
ATOM     19  C   UNL     1      14.503   8.897   5.877  0.00  0.00    +0.093 A 
ATOM     20  C   UNL     1      12.367  10.756   7.896  0.00  0.00    +0.172 C 
BRANCH  19  21
ATOM     21  C   UNL     1      15.799   8.700   5.281  0.00  0.00    +0.006 A 
ATOM     23  C   UNL     1      16.944   9.158   5.935  0.00  0.00    +0.059 A 
ATOM     24  C   UNL     1      15.910   8.051   4.052  0.00  0.00    +0.014 A 
ATOM     26  C   UNL     1      18.198   8.967   5.358  0.00  0.00    +0.162 A 
ATOM     27  C   UNL     1      17.165   7.861   3.475  0.00  0.00    +0.050 A 
ATOM     28  C   UNL     1      18.309   8.318   4.127  0.00  0.00    +0.162 A 
BRANCH  26   3
ATOM      3  O   UNL     1      19.310   9.418   6.005  0.00  0.00    -0.491 OA
ATOM     31  C   UNL     1      19.845   8.585   7.030  0.00  0.00    +0.277 C 
ENDBRANCH  26   3
BRANCH  28   4
ATOM      4  O   UNL     1      19.530   8.125   3.554  0.00  0.00    -0.491 OA
ATOM     32  C   UNL     1      19.622   8.321   2.144  0.00  0.00    +0.277 C 
ENDBRANCH  28   4
ENDBRANCH  19  21
ENDBRANCH  10  16
BRANCH  11  17
ATOM     17  C   UNL     1      10.004   6.050   3.630  0.00  0.00    +0.252 C 
BRANCH  17   1
ATOM      1  O   UNL     1      11.326   5.547   3.620  0.00  0.00    -0.449 OA
BRANCH   1  22
ATOM      2  O   UNL     1      10.747   3.695   2.393  0.00  0.00    -0.226 OA
ATOM      8  N   UNL     1      12.900   4.556   2.336  0.00  0.00    -0.279 N 
ATOM     22  C   UNL     1      11.585   4.518   2.746  0.00  0.00    +0.401 C 
ATOM     33  H   UNL     1      13.478   5.323   2.670  0.00  0.00    +0.152 HD
BRANCH   8  25
ATOM     25  C   UNL     1      13.482   3.606   1.416  0.00  0.00    +0.070 C 
ATOM     29  C   UNL     1      14.984   3.499   1.644  0.00  0.00    +0.027 C 
ATOM     30  C   UNL     1      13.168   3.996  -0.023  0.00  0.00    +0.027 C 
ENDBRANCH   8  25
ENDBRANCH   1  22
ENDBRANCH  17   1
ENDBRANCH  11  17
TORSDOF 8
ENDMDL
MODEL 8
REMARK VINA RESULT:      -5.6      4.307      7.315
REMARK  Name = 25389540
REMARK  13 active torsions:
REMARK  status: ('A' for Active; 'I' for Inactive)
REMARK    1  A    between atoms: O_1  and  C_17
REMARK    2  A    between atoms: O_1  and  C_22
REMARK    3  A    between atoms: O_3  and  C_26
REMARK    4  A    between atoms: O_3  and  C_31
REMARK    5  A    between atoms: O_4  and  C_28
REMARK    6  A    between atoms: O_4  and  C_32
REMARK    7  A    between atoms: N_6  and  C_20
REMARK    8  A    between atoms: N_8  and  C_25
REMARK    9  A    between atoms: C_10  and  C_16
REMARK   10  A    between atoms: C_11  and  C_17
REMARK   11  A    between atoms: C_19  and  C_21
REMARK   12  A    between atoms: C_25  and  C_29
REMARK   13  A    between atoms: C_25  and  C_30
REMARK                            x       y       z     vdW  Elec       q    Type
REMARK                         _______ _______ _______ _____ _____    ______ ____
ROOT
ATOM      5  N   UNL     1      13.409   5.741   1.726  0.00  0.00    -0.296 NA
ATOM      9  C   UNL     1      12.812   3.441   0.659  0.00  0.00    +0.002 C 
ATOM     10  C   UNL     1      12.700   4.576  -0.397  0.00  0.00    +0.055 C 
ATOM     11  C   UNL     1      12.414   5.030   2.572  0.00  0.00    +0.095 C 
ATOM     12  C   UNL     1      11.893   3.766   1.856  0.00  0.00    +0.026 C 
ATOM     13  C   UNL     1      14.264   3.461   1.181  0.00  0.00    +0.019 C 
ATOM     14  C   UNL     1      12.871   5.927   0.355  0.00  0.00    +0.094 C 
ATOM     15  C   UNL     1      14.619   4.888   1.636  0.00  0.00    +0.085 C 
ENDROOT
BRANCH  10  16
ATOM      6  N   UNL     1      11.180   3.535  -2.143  0.00  0.00    -0.270 N 
ATOM      7  N   UNL     1      10.076   3.735  -2.882  0.00  0.00    -0.171 NA
ATOM     16  C   UNL     1      11.492   4.580  -1.323  0.00  0.00    +0.044 A 
ATOM     18  C   UNL     1      10.525   5.530  -1.541  0.00  0.00    +0.053 A 
ATOM     19  C   UNL     1       9.679   4.955  -2.510  0.00  0.00    +0.093 A 
ATOM     20  C   UNL     1      11.903   2.292  -2.279  0.00  0.00    +0.172 C 
BRANCH  19  21
ATOM     21  C   UNL     1       8.502   5.551  -3.088  0.00  0.00    +0.006 A 
ATOM     23  C   UNL     1       7.914   6.662  -2.483  0.00  0.00    +0.059 A 
ATOM     24  C   UNL     1       7.952   5.017  -4.253  0.00  0.00    +0.014 A 
ATOM     26  C   UNL     1       6.774   7.238  -3.042  0.00  0.00    +0.162 A 
ATOM     27  C   UNL     1       6.811   5.594  -4.811  0.00  0.00    +0.050 A 
ATOM     28  C   UNL     1       6.222   6.703  -4.207  0.00  0.00    +0.162 A 
BRANCH  26   3
ATOM      3  O   UNL     1       6.208   8.323  -2.443  0.00  0.00    -0.491 OA
ATOM     31  C   UNL     1       6.796   9.593  -2.713  0.00  0.00    +0.277 C 
ENDBRANCH  26   3
BRANCH  28   4
ATOM      4  O   UNL     1       5.109   7.259  -4.764  0.00  0.00    -0.491 OA
ATOM     32  C   UNL     1       3.886   6.538  -4.619  0.00  0.00    +0.277 C 
ENDBRANCH  28   4
ENDBRANCH  19  21
ENDBRANCH  10  16
BRANCH  11  17
ATOM     17  C   UNL     1      11.271   5.945   3.018  0.00  0.00    +0.252 C 
BRANCH  17   1
ATOM      1  O   UNL     1      10.593   5.320   4.091  0.00  0.00    -0.449 OA
BRANCH   1  22
ATOM      2  O   UNL     1      11.806   6.557   5.597  0.00  0.00    -0.226 OA
ATOM      8  N   UNL     1      10.065   5.186   6.284  0.00  0.00    -0.279 N 
ATOM     22  C   UNL     1      10.904   5.762   5.354  0.00  0.00    +0.401 C 
ATOM     33  H   UNL     1       9.327   4.577   5.942  0.00  0.00    +0.152 HD
BRANCH   8  25
ATOM     25  C   UNL     1      10.139   5.448   7.703  0.00  0.00    +0.070 C 
ATOM     29  C   UNL     1       9.769   4.200   8.492  0.00  0.00    +0.027 C 
ATOM     30  C   UNL     1       9.242   6.623   8.076  0.00  0.00    +0.027 C 
ENDBRANCH   8  25
ENDBRANCH   1  22
ENDBRANCH  17   1
ENDBRANCH  11  17
TORSDOF 8
ENDMDL
MODEL 9
REMARK VINA RESULT:      -5.6      2.713      7.955
REMARK  Name = 25389540
REMARK  13 active torsions:
REMARK  status: ('A' for Active; 'I' for Inactive)
REMARK    1  A    between atoms: O_1  and  C_17
REMARK    2  A    between atoms: O_1  and  C_22
REMARK    3  A    between atoms: O_3  and  C_26
REMARK    4  A    between atoms: O_3  and  C_31
REMARK    5  A    between atoms: O_4  and  C_28
REMARK    6  A    between atoms: O_4  and  C_32
REMARK    7  A    between atoms: N_6  and  C_20
REMARK    8  A    between atoms: N_8  and  C_25
REMARK    9  A    between atoms: C_10  and  C_16
REMARK   10  A    between atoms: C_11  and  C_17
REMARK   11  A    between atoms: C_19  and  C_21
REMARK   12  A    between atoms: C_25  and  C_29
REMARK   13  A    between atoms: C_25  and  C_30
REMARK                            x       y       z     vdW  Elec       q    Type
REMARK                         _______ _______ _______ _____ _____    ______ ____
ROOT
ATOM      5  N   UNL     1       9.460   8.237   6.834  0.00  0.00    -0.296 NA
ATOM      9  C   UNL     1       9.586   5.697   6.273  0.00  0.00    +0.002 C 
ATOM     10  C   UNL     1      10.884   6.419   5.818  0.00  0.00    +0.055 C 
ATOM     11  C   UNL     1       8.225   7.811   6.124  0.00  0.00    +0.095 C 
ATOM     12  C   UNL     1       8.368   6.366   5.602  0.00  0.00    +0.026 C 
ATOM     13  C   UNL     1       9.455   5.934   7.793  0.00  0.00    +0.019 C 
ATOM     14  C   UNL     1      10.653   7.946   5.999  0.00  0.00    +0.094 C 
ATOM     15  C   UNL     1       9.564   7.442   8.081  0.00  0.00    +0.085 C 
ENDROOT
BRANCH  10  16
ATOM      6  N   UNL     1      12.602   6.630   3.962  0.00  0.00    -0.270 N 
ATOM      7  N   UNL     1      12.932   6.201   2.732  0.00  0.00    -0.171 NA
ATOM     16  C   UNL     1      11.452   6.080   4.447  0.00  0.00    +0.044 A 
ATOM     18  C   UNL     1      10.998   5.232   3.466  0.00  0.00    +0.053 A 
ATOM     19  C   UNL     1      11.950   5.347   2.434  0.00  0.00    +0.093 A 
ATOM     20  C   UNL     1      13.453   7.591   4.625  0.00  0.00    +0.172 C 
BRANCH  19  21
ATOM     21  C   UNL     1      11.936   4.658   1.170  0.00  0.00    +0.006 A 
ATOM     23  C   UNL     1      10.846   4.801   0.310  0.00  0.00    +0.059 A 
ATOM     24  C   UNL     1      13.011   3.848   0.805  0.00  0.00    +0.014 A 
ATOM     26  C   UNL     1      10.833   4.133  -0.914  0.00  0.00    +0.162 A 
ATOM     27  C   UNL     1      12.996   3.180  -0.419  0.00  0.00    +0.050 A 
ATOM     28  C   UNL     1      11.908   3.322  -1.279  0.00  0.00    +0.162 A 
BRANCH  26   3
ATOM      3  O   UNL     1       9.764   4.280  -1.747  0.00  0.00    -0.491 OA
ATOM     31  C   UNL     1       9.674   5.502  -2.476  0.00  0.00    +0.277 C 
ENDBRANCH  26   3
BRANCH  28   4
ATOM      4  O   UNL     1      11.907   2.666  -2.473  0.00  0.00    -0.491 OA
ATOM     32  C   UNL     1      12.718   3.211  -3.513  0.00  0.00    +0.277 C 
ENDBRANCH  28   4
ENDBRANCH  19  21
ENDBRANCH  10  16
BRANCH  11  17
ATOM     17  C   UNL     1       7.828   8.783   5.011  0.00  0.00    +0.252 C 
BRANCH  17   1
ATOM      1  O   UNL     1       7.727   8.058   3.801  0.00  0.00    -0.449 OA
BRANCH   1  22
ATOM      2  O   UNL     1       9.630   8.477   2.585  0.00  0.00    -0.226 OA
ATOM      8  N   UNL     1       7.545   9.171   1.842  0.00  0.00    -0.279 N 
ATOM     22  C   UNL     1       8.414   8.565   2.723  0.00  0.00    +0.401 C 
ATOM     33  H   UNL     1       6.552   9.132   2.056  0.00  0.00    +0.152 HD
BRANCH   8  25
ATOM     25  C   UNL     1       7.960   9.801   0.610  0.00  0.00    +0.070 C 
ATOM     29  C   UNL     1       8.146  11.298   0.817  0.00  0.00    +0.027 C 
ATOM     30  C   UNL     1       6.955   9.518  -0.500  0.00  0.00    +0.027 C 
ENDBRANCH   8  25
ENDBRANCH   1  22
ENDBRANCH  17   1
ENDBRANCH  11  17
TORSDOF 8
ENDMDL
MODEL 10
REMARK VINA RESULT:      -5.5      2.471      7.390
REMARK  Name = 25389540
REMARK  13 active torsions:
REMARK  status: ('A' for Active; 'I' for Inactive)
REMARK    1  A    between atoms: O_1  and  C_17
REMARK    2  A    between atoms: O_1  and  C_22
REMARK    3  A    between atoms: O_3  and  C_26
REMARK    4  A    between atoms: O_3  and  C_31
REMARK    5  A    between atoms: O_4  and  C_28
REMARK    6  A    between atoms: O_4  and  C_32
REMARK    7  A    between atoms: N_6  and  C_20
REMARK    8  A    between atoms: N_8  and  C_25
REMARK    9  A    between atoms: C_10  and  C_16
REMARK   10  A    between atoms: C_11  and  C_17
REMARK   11  A    between atoms: C_19  and  C_21
REMARK   12  A    between atoms: C_25  and  C_29
REMARK   13  A    between atoms: C_25  and  C_30
REMARK                            x       y       z     vdW  Elec       q    Type
REMARK                         _______ _______ _______ _____ _____    ______ ____
ROOT
ATOM      5  N   UNL     1      14.267   9.789   5.861  0.00  0.00    -0.296 NA
ATOM      9  C   UNL     1      16.033   7.974   5.251  0.00  0.00    +0.002 C 
ATOM     10  C   UNL     1      15.483   8.651   3.966  0.00  0.00    +0.055 C 
ATOM     11  C   UNL     1      13.951   8.516   6.561  0.00  0.00    +0.095 C 
ATOM     12  C   UNL     1      14.859   7.375   6.055  0.00  0.00    +0.026 C 
ATOM     13  C   UNL     1      16.650   9.095   6.115  0.00  0.00    +0.019 C 
ATOM     14  C   UNL     1      14.302   9.568   4.393  0.00  0.00    +0.094 C 
ATOM     15  C   UNL     1      15.618  10.222   6.295  0.00  0.00    +0.085 C 
ENDROOT
BRANCH  10  16
ATOM      6  N   UNL     1      15.977   7.534   1.741  0.00  0.00    -0.270 N 
ATOM      7  N   UNL     1      15.471   6.723   0.796  0.00  0.00    -0.171 NA
ATOM     16  C   UNL     1      15.126   7.763   2.782  0.00  0.00    +0.044 A 
ATOM     18  C   UNL     1      13.985   7.053   2.499  0.00  0.00    +0.053 A 
ATOM     19  C   UNL     1      14.256   6.431   1.264  0.00  0.00    +0.093 A 
ATOM     20  C   UNL     1      17.309   8.067   1.574  0.00  0.00    +0.172 C 
BRANCH  19  21
ATOM     21  C   UNL     1      13.373   5.566   0.524  0.00  0.00    +0.006 A 
ATOM     23  C   UNL     1      12.212   6.083  -0.051  0.00  0.00    +0.059 A 
ATOM     24  C   UNL     1      13.680   4.213   0.383  0.00  0.00    +0.014 A 
ATOM     26  C   UNL     1      11.358   5.246  -0.767  0.00  0.00    +0.162 A 
ATOM     27  C   UNL     1      12.824   3.376  -0.333  0.00  0.00    +0.050 A 
ATOM     28  C   UNL     1      11.664   3.891  -0.909  0.00  0.00    +0.162 A 
BRANCH  26   3
ATOM      3  O   UNL     1      10.226   5.761  -1.326  0.00  0.00    -0.491 OA
ATOM     31  C   UNL     1       9.849   7.077  -0.928  0.00  0.00    +0.277 C 
ENDBRANCH  26   3
BRANCH  28   4
ATOM      4  O   UNL     1      10.837   3.064  -1.607  0.00  0.00    -0.491 OA
ATOM     32  C   UNL     1      11.238   2.715  -2.931  0.00  0.00    +0.277 C 
ENDBRANCH  28   4
ENDBRANCH  19  21
ENDBRANCH  10  16
BRANCH  11  17
ATOM     17  C   UNL     1      12.468   8.150   6.462  0.00  0.00    +0.252 C 
BRANCH  17   1
ATOM      1  O   UNL     1      12.354   6.741   6.476  0.00  0.00    -0.449 OA
BRANCH   1  22
ATOM      2  O   UNL     1      10.148   6.102   6.485  0.00  0.00    -0.226 OA
ATOM      8  N   UNL     1      11.476   5.831   4.602  0.00  0.00    -0.279 N 
ATOM     22  C   UNL     1      11.222   6.211   5.903  0.00  0.00    +0.401 C 
ATOM     33  H   UNL     1      12.402   6.021   4.226  0.00  0.00    +0.152 HD
BRANCH   8  25
ATOM     25  C   UNL     1      10.488   5.239   3.732  0.00  0.00    +0.070 C 
ATOM     29  C   UNL     1      11.085   4.057   2.979  0.00  0.00    +0.027 C 
ATOM     30  C   UNL     1       9.930   6.280   2.769  0.00  0.00    +0.027 C 
ENDBRANCH   8  25
ENDBRANCH   1  22
ENDBRANCH  17   1
ENDBRANCH  11  17
TORSDOF 8
ENDMDL
