MODEL 1
REMARK VINA RESULT:      -7.9      0.000      0.000
REMARK  Name = 26743284
REMARK  10 active torsions:
REMARK  status: ('A' for Active; 'I' for Inactive)
REMARK    1  A    between atoms: N_3  and  C_8
REMARK    2  A    between atoms: C_6  and  C_12
REMARK    3  A    between atoms: C_7  and  C_15
REMARK    4  A    between atoms: C_12  and  C_16
REMARK    5  A    between atoms: C_15  and  C_17
REMARK    6  A    between atoms: C_19  and  C_21
REMARK    7  A    between atoms: C_20  and  C_22
REMARK    8  A    between atoms: C_20  and  C_27
REMARK    9  A    between atoms: C_20  and  C_28
REMARK   10  A    between atoms: C_20  and  C_29
REMARK                            x       y       z     vdW  Elec       q    Type
REMARK                         _______ _______ _______ _____ _____    ______ ____
ROOT
ATOM     15  C   UNL     1      14.202   8.953  20.165  0.00  0.00    +0.064 C 
ENDROOT
BRANCH  15   7
ATOM      4  N   UNL     1      11.636   9.047  23.001  0.00  0.00    -0.316 NA
ATOM      6  C   UNL     1      11.911   7.809  20.337  0.00  0.00    +0.004 C 
ATOM      7  C   UNL     1      13.106   8.432  21.097  0.00  0.00    +0.012 C 
ATOM      9  C   UNL     1      10.833   7.393  21.352  0.00  0.00    +0.019 C 
ATOM     13  C   UNL     1      12.650   9.535  22.066  0.00  0.00    +0.085 C 
ATOM     14  C   UNL     1      10.461   8.527  22.306  0.00  0.00    +0.081 C 
ATOM     31  H   UNL     1      11.354   9.806  23.619  0.00  0.00    +0.122 HD
BRANCH   6  12
ATOM     12  C   UNL     1      11.319   8.718  19.254  0.00  0.00    +0.099 C 
BRANCH  12  16
ATOM      1  O   UNL     1      11.910   7.232  17.438  0.00  0.00    -0.276 OA
ATOM      3  N   UNL     1      12.222   9.521  17.187  0.00  0.00    -0.312 N 
ATOM     16  C   UNL     1      11.840   8.378  17.874  0.00  0.00    +0.214 C 
ATOM     30  H   UNL     1      12.134  10.431  17.634  0.00  0.00    +0.149 HD
BRANCH   3   8
ATOM      8  C   UNL     1      12.758   9.495  15.845  0.00  0.00    +0.073 C 
ATOM     10  C   UNL     1      14.149   9.003  15.575  0.00  0.00    +0.024 C 
ATOM     11  C   UNL     1      13.824  10.459  15.415  0.00  0.00    +0.024 C 
ENDBRANCH   3   8
ENDBRANCH  12  16
ENDBRANCH   6  12
ENDBRANCH  15   7
BRANCH  15  17
ATOM      2  O   UNL     1      16.569   6.339  19.444  0.00  0.00    -0.354 OA
ATOM      5  N   UNL     1      15.368   7.003  19.229  0.00  0.00    -0.083 NA
ATOM     17  C   UNL     1      15.367   8.007  20.109  0.00  0.00    +0.085 A 
ATOM     18  C   UNL     1      16.530   8.026  20.899  0.00  0.00    +0.076 A 
ATOM     19  C   UNL     1      17.253   6.957  20.440  0.00  0.00    +0.167 A 
BRANCH  19  21
ATOM     21  C   UNL     1      18.522   6.379  20.775  0.00  0.00    +0.020 A 
ATOM     22  C   UNL     1      20.989   5.254  21.428  0.00  0.00    -0.042 A 
ATOM     23  C   UNL     1      19.213   6.822  21.902  0.00  0.00    +0.012 A 
ATOM     24  C   UNL     1      19.063   5.373  19.974  0.00  0.00    +0.012 A 
ATOM     25  C   UNL     1      20.447   6.259  22.229  0.00  0.00    +0.005 A 
ATOM     26  C   UNL     1      20.297   4.811  20.301  0.00  0.00    +0.005 A 
BRANCH  22  20
ATOM     20  C   UNL     1      22.309   4.653  21.778  0.00  0.00    -0.013 C 
ATOM     27  C   UNL     1      23.483   5.452  21.131  0.00  0.00    +0.015 C 
ATOM     28  C   UNL     1      22.410   3.180  21.276  0.00  0.00    +0.015 C 
ATOM     29  C   UNL     1      22.637   4.596  23.307  0.00  0.00    +0.015 C 
ENDBRANCH  22  20
ENDBRANCH  19  21
ENDBRANCH  15  17
TORSDOF 7
ENDMDL
MODEL 2
REMARK VINA RESULT:      -7.6     27.894     31.896
REMARK  Name = 26743284
REMARK  10 active torsions:
REMARK  status: ('A' for Active; 'I' for Inactive)
REMARK    1  A    between atoms: N_3  and  C_8
REMARK    2  A    between atoms: C_6  and  C_12
REMARK    3  A    between atoms: C_7  and  C_15
REMARK    4  A    between atoms: C_12  and  C_16
REMARK    5  A    between atoms: C_15  and  C_17
REMARK    6  A    between atoms: C_19  and  C_21
REMARK    7  A    between atoms: C_20  and  C_22
REMARK    8  A    between atoms: C_20  and  C_27
REMARK    9  A    between atoms: C_20  and  C_28
REMARK   10  A    between atoms: C_20  and  C_29
REMARK                            x       y       z     vdW  Elec       q    Type
REMARK                         _______ _______ _______ _____ _____    ______ ____
ROOT
ATOM     15  C   UNL     1     -15.821   3.107  25.051  0.00  0.00    +0.064 C 
ENDROOT
BRANCH  15   7
ATOM      4  N   UNL     1     -18.618   5.073  26.767  0.00  0.00    -0.316 NA
ATOM      6  C   UNL     1     -16.216   3.549  27.549  0.00  0.00    +0.004 C 
ATOM      7  C   UNL     1     -16.476   4.013  26.096  0.00  0.00    +0.012 C 
ATOM      9  C   UNL     1     -16.980   4.471  28.514  0.00  0.00    +0.019 C 
ATOM     13  C   UNL     1     -17.978   4.170  25.809  0.00  0.00    +0.085 C 
ATOM     14  C   UNL     1     -18.455   4.610  28.144  0.00  0.00    +0.081 C 
ATOM     31  H   UNL     1     -19.612   5.145  26.551  0.00  0.00    +0.122 HD
BRANCH   6  12
ATOM     12  C   UNL     1     -16.567   2.078  27.805  0.00  0.00    +0.099 C 
BRANCH  12  16
ATOM      1  O   UNL     1     -15.999   0.399  29.451  0.00  0.00    -0.276 OA
ATOM      3  N   UNL     1     -14.694   2.313  29.278  0.00  0.00    -0.312 N 
ATOM     16  C   UNL     1     -15.747   1.481  28.928  0.00  0.00    +0.214 C 
ATOM     30  H   UNL     1     -14.569   3.198  28.791  0.00  0.00    +0.149 HD
BRANCH   3   8
ATOM      8  C   UNL     1     -13.747   1.994  30.322  0.00  0.00    +0.073 C 
ATOM     10  C   UNL     1     -14.132   2.073  31.769  0.00  0.00    +0.024 C 
ATOM     11  C   UNL     1     -13.163   3.064  31.196  0.00  0.00    +0.024 C 
ENDBRANCH   3   8
ENDBRANCH  12  16
ENDBRANCH   6  12
ENDBRANCH  15   7
BRANCH  15  17
ATOM      2  O   UNL     1     -15.594   4.590  21.778  0.00  0.00    -0.354 OA
ATOM      5  N   UNL     1     -16.203   3.762  22.713  0.00  0.00    -0.083 NA
ATOM     17  C   UNL     1     -15.455   3.876  23.814  0.00  0.00    +0.085 A 
ATOM     18  C   UNL     1     -14.371   4.753  23.634  0.00  0.00    +0.076 A 
ATOM     19  C   UNL     1     -14.504   5.175  22.338  0.00  0.00    +0.167 A 
BRANCH  19  21
ATOM     21  C   UNL     1     -13.769   6.064  21.487  0.00  0.00    +0.020 A 
ATOM     22  C   UNL     1     -12.339   7.792  19.829  0.00  0.00    -0.042 A 
ATOM     23  C   UNL     1     -12.375   6.038  21.490  0.00  0.00    +0.012 A 
ATOM     24  C   UNL     1     -14.449   6.954  20.655  0.00  0.00    +0.012 A 
ATOM     25  C   UNL     1     -11.659   6.901  20.660  0.00  0.00    +0.005 A 
ATOM     26  C   UNL     1     -13.734   7.818  19.826  0.00  0.00    +0.005 A 
BRANCH  22  20
ATOM     20  C   UNL     1     -11.573   8.716  18.943  0.00  0.00    -0.013 C 
ATOM     27  C   UNL     1     -12.495   9.832  18.359  0.00  0.00    +0.015 C 
ATOM     28  C   UNL     1     -10.941   7.951  17.740  0.00  0.00    +0.015 C 
ATOM     29  C   UNL     1     -10.386   9.472  19.627  0.00  0.00    +0.015 C 
ENDBRANCH  22  20
ENDBRANCH  19  21
ENDBRANCH  15  17
TORSDOF 7
ENDMDL
MODEL 3
REMARK VINA RESULT:      -7.2      1.540      3.914
REMARK  Name = 26743284
REMARK  10 active torsions:
REMARK  status: ('A' for Active; 'I' for Inactive)
REMARK    1  A    between atoms: N_3  and  C_8
REMARK    2  A    between atoms: C_6  and  C_12
REMARK    3  A    between atoms: C_7  and  C_15
REMARK    4  A    between atoms: C_12  and  C_16
REMARK    5  A    between atoms: C_15  and  C_17
REMARK    6  A    between atoms: C_19  and  C_21
REMARK    7  A    between atoms: C_20  and  C_22
REMARK    8  A    between atoms: C_20  and  C_27
REMARK    9  A    between atoms: C_20  and  C_28
REMARK   10  A    between atoms: C_20  and  C_29
REMARK                            x       y       z     vdW  Elec       q    Type
REMARK                         _______ _______ _______ _____ _____    ______ ____
ROOT
ATOM     15  C   UNL     1      14.411   7.061  19.173  0.00  0.00    +0.064 C 
ENDROOT
BRANCH  15   7
ATOM      4  N   UNL     1      14.217   8.917  15.833  0.00  0.00    -0.316 NA
ATOM      6  C   UNL     1      13.255   9.280  18.599  0.00  0.00    +0.004 C 
ATOM      7  C   UNL     1      14.357   8.259  18.223  0.00  0.00    +0.012 C 
ATOM      9  C   UNL     1      13.227  10.398  17.543  0.00  0.00    +0.019 C 
ATOM     13  C   UNL     1      14.222   7.789  16.766  0.00  0.00    +0.085 C 
ATOM     14  C   UNL     1      13.132   9.854  16.119  0.00  0.00    +0.081 C 
ATOM     31  H   UNL     1      14.117   8.566  14.881  0.00  0.00    +0.122 HD
BRANCH   6  12
ATOM     12  C   UNL     1      11.864   8.660  18.775  0.00  0.00    +0.099 C 
BRANCH  12  16
ATOM      1  O   UNL     1      10.513   7.928  20.643  0.00  0.00    -0.276 OA
ATOM      3  N   UNL     1      12.201   9.485  20.997  0.00  0.00    -0.312 N 
ATOM     16  C   UNL     1      11.431   8.628  20.225  0.00  0.00    +0.214 C 
ATOM     30  H   UNL     1      12.938  10.032  20.560  0.00  0.00    +0.149 HD
BRANCH   3   8
ATOM      8  C   UNL     1      12.007   9.657  22.419  0.00  0.00    +0.073 C 
ATOM     10  C   UNL     1      10.822  10.404  22.956  0.00  0.00    +0.024 C 
ATOM     11  C   UNL     1      12.197  10.993  23.074  0.00  0.00    +0.024 C 
ENDBRANCH   3   8
ENDBRANCH  12  16
ENDBRANCH   6  12
ENDBRANCH  15   7
BRANCH  15  17
ATOM      2  O   UNL     1      17.698   5.608  18.945  0.00  0.00    -0.354 OA
ATOM      5  N   UNL     1      16.429   5.865  18.438  0.00  0.00    -0.083 NA
ATOM     17  C   UNL     1      15.823   6.593  19.381  0.00  0.00    +0.085 A 
ATOM     18  C   UNL     1      16.652   6.824  20.492  0.00  0.00    +0.076 A 
ATOM     19  C   UNL     1      17.818   6.184  20.168  0.00  0.00    +0.167 A 
BRANCH  19  21
ATOM     21  C   UNL     1      19.084   6.002  20.818  0.00  0.00    +0.020 A 
ATOM     22  C   UNL     1      21.544   5.648  22.085  0.00  0.00    -0.042 A 
ATOM     23  C   UNL     1      19.381   6.719  21.977  0.00  0.00    +0.012 A 
ATOM     24  C   UNL     1      20.016   5.108  20.292  0.00  0.00    +0.012 A 
ATOM     25  C   UNL     1      20.611   6.542  22.611  0.00  0.00    +0.005 A 
ATOM     26  C   UNL     1      21.246   4.931  20.925  0.00  0.00    +0.005 A 
BRANCH  22  20
ATOM     20  C   UNL     1      22.859   5.459  22.762  0.00  0.00    -0.013 C 
ATOM     27  C   UNL     1      22.850   4.190  23.670  0.00  0.00    +0.015 C 
ATOM     28  C   UNL     1      23.211   6.681  23.664  0.00  0.00    +0.015 C 
ATOM     29  C   UNL     1      24.086   5.279  21.807  0.00  0.00    +0.015 C 
ENDBRANCH  22  20
ENDBRANCH  19  21
ENDBRANCH  15  17
TORSDOF 7
ENDMDL
MODEL 4
REMARK VINA RESULT:      -7.0     27.675     31.983
REMARK  Name = 26743284
REMARK  10 active torsions:
REMARK  status: ('A' for Active; 'I' for Inactive)
REMARK    1  A    between atoms: N_3  and  C_8
REMARK    2  A    between atoms: C_6  and  C_12
REMARK    3  A    between atoms: C_7  and  C_15
REMARK    4  A    between atoms: C_12  and  C_16
REMARK    5  A    between atoms: C_15  and  C_17
REMARK    6  A    between atoms: C_19  and  C_21
REMARK    7  A    between atoms: C_20  and  C_22
REMARK    8  A    between atoms: C_20  and  C_27
REMARK    9  A    between atoms: C_20  and  C_28
REMARK   10  A    between atoms: C_20  and  C_29
REMARK                            x       y       z     vdW  Elec       q    Type
REMARK                         _______ _______ _______ _____ _____    ______ ____
ROOT
ATOM     15  C   UNL     1     -15.470   3.653  24.545  0.00  0.00    +0.064 C 
ENDROOT
BRANCH  15   7
ATOM      4  N   UNL     1     -18.913   2.307  23.563  0.00  0.00    -0.316 NA
ATOM      6  C   UNL     1     -17.451   2.986  26.035  0.00  0.00    +0.004 C 
ATOM      7  C   UNL     1     -16.983   3.445  24.633  0.00  0.00    +0.012 C 
ATOM      9  C   UNL     1     -18.966   2.726  25.997  0.00  0.00    +0.019 C 
ATOM     13  C   UNL     1     -17.460   2.484  23.532  0.00  0.00    +0.085 C 
ATOM     14  C   UNL     1     -19.370   1.796  24.854  0.00  0.00    +0.081 C 
ATOM     31  H   UNL     1     -19.190   1.659  22.827  0.00  0.00    +0.122 HD
BRANCH   6  12
ATOM     12  C   UNL     1     -16.700   1.763  26.573  0.00  0.00    +0.099 C 
BRANCH  12  16
ATOM      1  O   UNL     1     -15.630   3.104  28.279  0.00  0.00    -0.276 OA
ATOM      3  N   UNL     1     -16.123   0.877  28.722  0.00  0.00    -0.312 N 
ATOM     16  C   UNL     1     -16.090   2.019  27.935  0.00  0.00    +0.214 C 
ATOM     30  H   UNL     1     -16.520   0.018  28.347  0.00  0.00    +0.149 HD
BRANCH   3   8
ATOM      8  C   UNL     1     -15.608   0.832  30.071  0.00  0.00    +0.073 C 
ATOM     10  C   UNL     1     -14.132   0.783  30.337  0.00  0.00    +0.024 C 
ATOM     11  C   UNL     1     -14.986  -0.416  30.625  0.00  0.00    +0.024 C 
ENDBRANCH   3   8
ENDBRANCH  12  16
ENDBRANCH   6  12
ENDBRANCH  15   7
BRANCH  15  17
ATOM      2  O   UNL     1     -15.320   6.628  22.523  0.00  0.00    -0.354 OA
ATOM      5  N   UNL     1     -15.924   5.821  23.479  0.00  0.00    -0.083 NA
ATOM     17  C   UNL     1     -15.125   4.756  23.586  0.00  0.00    +0.085 A 
ATOM     18  C   UNL     1     -14.012   4.836  22.729  0.00  0.00    +0.076 A 
ATOM     19  C   UNL     1     -14.183   6.031  22.084  0.00  0.00    +0.167 A 
BRANCH  19  21
ATOM     21  C   UNL     1     -13.447   6.753  21.087  0.00  0.00    +0.020 A 
ATOM     22  C   UNL     1     -12.014   8.158  19.149  0.00  0.00    -0.042 A 
ATOM     23  C   UNL     1     -14.124   7.418  20.066  0.00  0.00    +0.012 A 
ATOM     24  C   UNL     1     -12.053   6.790  21.141  0.00  0.00    +0.012 A 
ATOM     25  C   UNL     1     -13.408   8.121  19.097  0.00  0.00    +0.005 A 
ATOM     26  C   UNL     1     -11.337   7.493  20.172  0.00  0.00    +0.005 A 
BRANCH  22  20
ATOM     20  C   UNL     1     -11.249   8.909  18.113  0.00  0.00    -0.013 C 
ATOM     27  C   UNL     1     -12.183   9.853  17.293  0.00  0.00    +0.015 C 
ATOM     28  C   UNL     1     -10.559   7.939  17.106  0.00  0.00    +0.015 C 
ATOM     29  C   UNL     1     -10.104   9.827  18.658  0.00  0.00    +0.015 C 
ENDBRANCH  22  20
ENDBRANCH  19  21
ENDBRANCH  15  17
TORSDOF 7
ENDMDL
MODEL 5
REMARK VINA RESULT:      -6.9      2.228      4.128
REMARK  Name = 26743284
REMARK  10 active torsions:
REMARK  status: ('A' for Active; 'I' for Inactive)
REMARK    1  A    between atoms: N_3  and  C_8
REMARK    2  A    between atoms: C_6  and  C_12
REMARK    3  A    between atoms: C_7  and  C_15
REMARK    4  A    between atoms: C_12  and  C_16
REMARK    5  A    between atoms: C_15  and  C_17
REMARK    6  A    between atoms: C_19  and  C_21
REMARK    7  A    between atoms: C_20  and  C_22
REMARK    8  A    between atoms: C_20  and  C_27
REMARK    9  A    between atoms: C_20  and  C_28
REMARK   10  A    between atoms: C_20  and  C_29
REMARK                            x       y       z     vdW  Elec       q    Type
REMARK                         _______ _______ _______ _____ _____    ______ ____
ROOT
ATOM     15  C   UNL     1      13.494   7.432  18.767  0.00  0.00    +0.064 C 
ENDROOT
BRANCH  15   7
ATOM      4  N   UNL     1      12.965   9.011  15.323  0.00  0.00    -0.316 NA
ATOM      6  C   UNL     1      14.454   9.608  17.800  0.00  0.00    +0.004 C 
ATOM      7  C   UNL     1      13.851   8.214  17.501  0.00  0.00    +0.012 C 
ATOM      9  C   UNL     1      14.699  10.342  16.471  0.00  0.00    +0.019 C 
ATOM     13  C   UNL     1      12.635   8.309  16.565  0.00  0.00    +0.085 C 
ATOM     14  C   UNL     1      13.461  10.362  15.577  0.00  0.00    +0.081 C 
ATOM     31  H   UNL     1      12.135   9.061  14.734  0.00  0.00    +0.122 HD
BRANCH   6  12
ATOM     12  C   UNL     1      13.606  10.463  18.749  0.00  0.00    +0.099 C 
BRANCH  12  16
ATOM      1  O   UNL     1      13.848  11.449  20.944  0.00  0.00    -0.276 OA
ATOM      3  N   UNL     1      15.655  10.350  19.982  0.00  0.00    -0.312 N 
ATOM     16  C   UNL     1      14.351  10.821  20.017  0.00  0.00    +0.214 C 
ATOM     30  H   UNL     1      15.986   9.843  19.164  0.00  0.00    +0.149 HD
BRANCH   3   8
ATOM      8  C   UNL     1      16.596  10.548  21.061  0.00  0.00    +0.073 C 
ATOM     10  C   UNL     1      17.448  11.780  21.132  0.00  0.00    +0.024 C 
ATOM     11  C   UNL     1      18.075  10.451  20.831  0.00  0.00    +0.024 C 
ENDBRANCH   3   8
ENDBRANCH  12  16
ENDBRANCH   6  12
ENDBRANCH  15   7
BRANCH  15  17
ATOM      2  O   UNL     1      15.930   7.021  21.386  0.00  0.00    -0.354 OA
ATOM      5  N   UNL     1      14.660   7.350  20.929  0.00  0.00    -0.083 NA
ATOM     17  C   UNL     1      14.711   7.168  19.607  0.00  0.00    +0.085 A 
ATOM     18  C   UNL     1      15.976   6.730  19.177  0.00  0.00    +0.076 A 
ATOM     19  C   UNL     1      16.705   6.654  20.333  0.00  0.00    +0.167 A 
BRANCH  19  21
ATOM     21  C   UNL     1      18.053   6.284  20.653  0.00  0.00    +0.020 A 
ATOM     22  C   UNL     1      20.675   5.563  21.275  0.00  0.00    -0.042 A 
ATOM     23  C   UNL     1      18.705   6.886  21.728  0.00  0.00    +0.012 A 
ATOM     24  C   UNL     1      18.711   5.320  19.888  0.00  0.00    +0.012 A 
ATOM     25  C   UNL     1      20.016   6.525  22.040  0.00  0.00    +0.005 A 
ATOM     26  C   UNL     1      20.022   4.960  20.199  0.00  0.00    +0.005 A 
BRANCH  22  20
ATOM     20  C   UNL     1      22.077   5.178  21.607  0.00  0.00    -0.013 C 
ATOM     27  C   UNL     1      22.119   3.856  22.435  0.00  0.00    +0.015 C 
ATOM     28  C   UNL     1      22.782   6.284  22.451  0.00  0.00    +0.015 C 
ATOM     29  C   UNL     1      23.015   4.930  20.379  0.00  0.00    +0.015 C 
ENDBRANCH  22  20
ENDBRANCH  19  21
ENDBRANCH  15  17
TORSDOF 7
ENDMDL
MODEL 6
REMARK VINA RESULT:      -6.9      1.993      4.007
REMARK  Name = 26743284
REMARK  10 active torsions:
REMARK  status: ('A' for Active; 'I' for Inactive)
REMARK    1  A    between atoms: N_3  and  C_8
REMARK    2  A    between atoms: C_6  and  C_12
REMARK    3  A    between atoms: C_7  and  C_15
REMARK    4  A    between atoms: C_12  and  C_16
REMARK    5  A    between atoms: C_15  and  C_17
REMARK    6  A    between atoms: C_19  and  C_21
REMARK    7  A    between atoms: C_20  and  C_22
REMARK    8  A    between atoms: C_20  and  C_27
REMARK    9  A    between atoms: C_20  and  C_28
REMARK   10  A    between atoms: C_20  and  C_29
REMARK                            x       y       z     vdW  Elec       q    Type
REMARK                         _______ _______ _______ _____ _____    ______ ____
ROOT
ATOM     15  C   UNL     1      14.116   7.647  20.824  0.00  0.00    +0.064 C 
ENDROOT
BRANCH  15   7
ATOM      4  N   UNL     1      12.209   7.159  17.544  0.00  0.00    -0.316 NA
ATOM      6  C   UNL     1      12.930   9.380  19.348  0.00  0.00    +0.004 C 
ATOM      7  C   UNL     1      13.603   7.988  19.423  0.00  0.00    +0.012 C 
ATOM      9  C   UNL     1      12.377   9.593  17.929  0.00  0.00    +0.019 C 
ATOM     13  C   UNL     1      12.674   6.879  18.903  0.00  0.00    +0.085 C 
ATOM     14  C   UNL     1      11.497   8.434  17.465  0.00  0.00    +0.081 C 
ATOM     31  H   UNL     1      11.591   6.409  17.237  0.00  0.00    +0.122 HD
BRANCH   6  12
ATOM     12  C   UNL     1      11.836   9.601  20.399  0.00  0.00    +0.099 C 
BRANCH  12  16
ATOM      1  O   UNL     1      13.027  11.596  21.074  0.00  0.00    -0.276 OA
ATOM      3  N   UNL     1      11.279  10.812  22.388  0.00  0.00    -0.312 N 
ATOM     16  C   UNL     1      12.135  10.782  21.298  0.00  0.00    +0.214 C 
ATOM     30  H   UNL     1      10.572  10.088  22.494  0.00  0.00    +0.149 HD
BRANCH   3   8
ATOM      8  C   UNL     1      11.338  11.831  23.411  0.00  0.00    +0.073 C 
ATOM     10  C   UNL     1      12.464  11.872  24.401  0.00  0.00    +0.024 C 
ATOM     11  C   UNL     1      11.082  11.501  24.852  0.00  0.00    +0.024 C 
ENDBRANCH   3   8
ENDBRANCH  12  16
ENDBRANCH   6  12
ENDBRANCH  15   7
BRANCH  15  17
ATOM      2  O   UNL     1      17.671   8.172  20.598  0.00  0.00    -0.354 OA
ATOM      5  N   UNL     1      16.354   8.591  20.449  0.00  0.00    -0.083 NA
ATOM     17  C   UNL     1      15.615   7.552  20.848  0.00  0.00    +0.085 A 
ATOM     18  C   UNL     1      16.403   6.461  21.255  0.00  0.00    +0.076 A 
ATOM     19  C   UNL     1      17.687   6.903  21.079  0.00  0.00    +0.167 A 
BRANCH  19  21
ATOM     21  C   UNL     1      18.986   6.332  21.286  0.00  0.00    +0.020 A 
ATOM     22  C   UNL     1      21.513   5.222  21.689  0.00  0.00    -0.042 A 
ATOM     23  C   UNL     1      19.705   6.637  22.441  0.00  0.00    +0.012 A 
ATOM     24  C   UNL     1      19.530   5.472  20.331  0.00  0.00    +0.012 A 
ATOM     25  C   UNL     1      20.968   6.081  22.644  0.00  0.00    +0.005 A 
ATOM     26  C   UNL     1      20.793   4.917  20.533  0.00  0.00    +0.005 A 
BRANCH  22  20
ATOM     20  C   UNL     1      22.864   4.628  21.905  0.00  0.00    -0.013 C 
ATOM     27  C   UNL     1      23.725   5.514  22.859  0.00  0.00    +0.015 C 
ATOM     28  C   UNL     1      23.642   4.490  20.561  0.00  0.00    +0.015 C 
ATOM     29  C   UNL     1      22.875   3.198  22.542  0.00  0.00    +0.015 C 
ENDBRANCH  22  20
ENDBRANCH  19  21
ENDBRANCH  15  17
TORSDOF 7
ENDMDL
MODEL 7
REMARK VINA RESULT:      -6.5     14.053     18.600
REMARK  Name = 26743284
REMARK  10 active torsions:
REMARK  status: ('A' for Active; 'I' for Inactive)
REMARK    1  A    between atoms: N_3  and  C_8
REMARK    2  A    between atoms: C_6  and  C_12
REMARK    3  A    between atoms: C_7  and  C_15
REMARK    4  A    between atoms: C_12  and  C_16
REMARK    5  A    between atoms: C_15  and  C_17
REMARK    6  A    between atoms: C_19  and  C_21
REMARK    7  A    between atoms: C_20  and  C_22
REMARK    8  A    between atoms: C_20  and  C_27
REMARK    9  A    between atoms: C_20  and  C_28
REMARK   10  A    between atoms: C_20  and  C_29
REMARK                            x       y       z     vdW  Elec       q    Type
REMARK                         _______ _______ _______ _____ _____    ______ ____
ROOT
ATOM     15  C   UNL     1      22.445  -9.946  21.618  0.00  0.00    +0.064 C 
ENDROOT
BRANCH  15   7
ATOM      4  N   UNL     1      23.198  -9.928  17.867  0.00  0.00    -0.316 NA
ATOM      6  C   UNL     1      21.207 -11.112  19.695  0.00  0.00    +0.004 C 
ATOM      7  C   UNL     1      22.149  -9.958  20.117  0.00  0.00    +0.012 C 
ATOM      9  C   UNL     1      21.038 -11.088  18.167  0.00  0.00    +0.019 C 
ATOM     13  C   UNL     1      23.455  -9.966  19.308  0.00  0.00    +0.085 C 
ATOM     14  C   UNL     1      22.377 -11.056  17.432  0.00  0.00    +0.081 C 
ATOM     31  H   UNL     1      24.085  -9.943  17.366  0.00  0.00    +0.122 HD
BRANCH   6  12
ATOM     12  C   UNL     1      21.666 -12.496  20.172  0.00  0.00    +0.099 C 
BRANCH  12  16
ATOM      1  O   UNL     1      19.825 -13.431  21.433  0.00  0.00    -0.276 OA
ATOM      3  N   UNL     1      20.313 -14.282  19.327  0.00  0.00    -0.312 N 
ATOM     16  C   UNL     1      20.502 -13.434  20.409  0.00  0.00    +0.214 C 
ATOM     30  H   UNL     1      20.931 -14.215  18.521  0.00  0.00    +0.149 HD
BRANCH   3   8
ATOM      8  C   UNL     1      19.272 -15.283  19.280  0.00  0.00    +0.073 C 
ATOM     10  C   UNL     1      18.715 -15.762  17.972  0.00  0.00    +0.024 C 
ATOM     11  C   UNL     1      17.869 -14.928  18.888  0.00  0.00    +0.024 C 
ENDBRANCH   3   8
ENDBRANCH  12  16
ENDBRANCH   6  12
ENDBRANCH  15   7
BRANCH  15  17
ATOM      2  O   UNL     1      21.146  -7.493  23.911  0.00  0.00    -0.354 OA
ATOM      5  N   UNL     1      21.957  -8.578  23.601  0.00  0.00    -0.083 NA
ATOM     17  C   UNL     1      21.728  -8.821  22.308  0.00  0.00    +0.085 A 
ATOM     18  C   UNL     1      20.791  -7.930  21.755  0.00  0.00    +0.076 A 
ATOM     19  C   UNL     1      20.457  -7.116  22.804  0.00  0.00    +0.167 A 
BRANCH  19  21
ATOM     21  C   UNL     1      19.572  -6.000  22.973  0.00  0.00    +0.020 A 
ATOM     22  C   UNL     1      17.851  -3.829  23.301  0.00  0.00    -0.042 A 
ATOM     23  C   UNL     1      18.229  -6.115  22.616  0.00  0.00    +0.012 A 
ATOM     24  C   UNL     1      20.056  -4.800  23.494  0.00  0.00    +0.012 A 
ATOM     25  C   UNL     1      17.368  -5.030  22.781  0.00  0.00    +0.005 A 
ATOM     26  C   UNL     1      19.196  -3.715  23.659  0.00  0.00    +0.005 A 
BRANCH  22  20
ATOM     20  C   UNL     1      16.931  -2.669  23.477  0.00  0.00    -0.013 C 
ATOM     27  C   UNL     1      15.513  -2.981  22.907  0.00  0.00    +0.015 C 
ATOM     28  C   UNL     1      17.468  -1.405  22.738  0.00  0.00    +0.015 C 
ATOM     29  C   UNL     1      16.695  -2.217  24.957  0.00  0.00    +0.015 C 
ENDBRANCH  22  20
ENDBRANCH  19  21
ENDBRANCH  15  17
TORSDOF 7
ENDMDL
MODEL 8
REMARK VINA RESULT:      -6.5     28.021     32.447
REMARK  Name = 26743284
REMARK  10 active torsions:
REMARK  status: ('A' for Active; 'I' for Inactive)
REMARK    1  A    between atoms: N_3  and  C_8
REMARK    2  A    between atoms: C_6  and  C_12
REMARK    3  A    between atoms: C_7  and  C_15
REMARK    4  A    between atoms: C_12  and  C_16
REMARK    5  A    between atoms: C_15  and  C_17
REMARK    6  A    between atoms: C_19  and  C_21
REMARK    7  A    between atoms: C_20  and  C_22
REMARK    8  A    between atoms: C_20  and  C_27
REMARK    9  A    between atoms: C_20  and  C_28
REMARK   10  A    between atoms: C_20  and  C_29
REMARK                            x       y       z     vdW  Elec       q    Type
REMARK                         _______ _______ _______ _____ _____    ______ ____
ROOT
ATOM     15  C   UNL     1      -7.504 -12.634  17.864  0.00  0.00    +0.064 C 
ENDROOT
BRANCH  15   7
ATOM      4  N   UNL     1      -3.735 -12.029  17.619  0.00  0.00    -0.316 NA
ATOM      6  C   UNL     1      -6.229 -10.589  16.978  0.00  0.00    +0.004 C 
ATOM      7  C   UNL     1      -6.196 -11.841  17.888  0.00  0.00    +0.012 C 
ATOM      9  C   UNL     1      -4.849  -9.912  17.007  0.00  0.00    +0.019 C 
ATOM     13  C   UNL     1      -5.005 -12.754  17.554  0.00  0.00    +0.085 C 
ATOM     14  C   UNL     1      -3.713 -10.888  16.706  0.00  0.00    +0.081 C 
ATOM     31  H   UNL     1      -2.972 -12.663  17.384  0.00  0.00    +0.122 HD
BRANCH   6  12
ATOM     12  C   UNL     1      -6.666 -10.878  15.537  0.00  0.00    +0.099 C 
BRANCH  12  16
ATOM      1  O   UNL     1      -8.327 -10.050  13.985  0.00  0.00    -0.276 OA
ATOM      3  N   UNL     1      -8.265  -9.203  16.148  0.00  0.00    -0.312 N 
ATOM     16  C   UNL     1      -7.836 -10.018  15.110  0.00  0.00    +0.214 C 
ATOM     30  H   UNL     1      -7.790  -9.241  17.047  0.00  0.00    +0.149 HD
BRANCH   3   8
ATOM      8  C   UNL     1      -9.367  -8.277  16.023  0.00  0.00    +0.073 C 
ATOM     10  C   UNL     1     -10.184  -7.876  17.215  0.00  0.00    +0.024 C 
ATOM     11  C   UNL     1     -10.789  -8.738  16.146  0.00  0.00    +0.024 C 
ENDBRANCH   3   8
ENDBRANCH  12  16
ENDBRANCH   6  12
ENDBRANCH  15   7
BRANCH  15  17
ATOM      2  O   UNL     1      -9.534 -10.741  20.157  0.00  0.00    -0.354 OA
ATOM      5  N   UNL     1      -8.326 -11.299  19.757  0.00  0.00    -0.083 NA
ATOM     17  C   UNL     1      -8.595 -11.909  18.600  0.00  0.00    +0.085 A 
ATOM     18  C   UNL     1      -9.943 -11.772  18.224  0.00  0.00    +0.076 A 
ATOM     19  C   UNL     1     -10.489 -11.029  19.236  0.00  0.00    +0.167 A 
BRANCH  19  21
ATOM     21  C   UNL     1     -11.798 -10.514  19.516  0.00  0.00    +0.020 A 
ATOM     22  C   UNL     1     -14.344  -9.512  20.060  0.00  0.00    -0.042 A 
ATOM     23  C   UNL     1     -12.082  -9.976  20.771  0.00  0.00    +0.012 A 
ATOM     24  C   UNL     1     -12.786 -10.551  18.532  0.00  0.00    +0.012 A 
ATOM     25  C   UNL     1     -13.354  -9.474  21.043  0.00  0.00    +0.005 A 
ATOM     26  C   UNL     1     -14.059 -10.050  18.804  0.00  0.00    +0.005 A 
BRANCH  22  20
ATOM     20  C   UNL     1     -15.705  -8.976  20.351  0.00  0.00    -0.013 C 
ATOM     27  C   UNL     1     -16.603 -10.054  21.032  0.00  0.00    +0.015 C 
ATOM     28  C   UNL     1     -16.424  -8.520  19.045  0.00  0.00    +0.015 C 
ATOM     29  C   UNL     1     -15.748  -7.735  21.305  0.00  0.00    +0.015 C 
ENDBRANCH  22  20
ENDBRANCH  19  21
ENDBRANCH  15  17
TORSDOF 7
ENDMDL
MODEL 9
REMARK VINA RESULT:      -6.5     14.463     16.594
REMARK  Name = 26743284
REMARK  10 active torsions:
REMARK  status: ('A' for Active; 'I' for Inactive)
REMARK    1  A    between atoms: N_3  and  C_8
REMARK    2  A    between atoms: C_6  and  C_12
REMARK    3  A    between atoms: C_7  and  C_15
REMARK    4  A    between atoms: C_12  and  C_16
REMARK    5  A    between atoms: C_15  and  C_17
REMARK    6  A    between atoms: C_19  and  C_21
REMARK    7  A    between atoms: C_20  and  C_22
REMARK    8  A    between atoms: C_20  and  C_27
REMARK    9  A    between atoms: C_20  and  C_28
REMARK   10  A    between atoms: C_20  and  C_29
REMARK                            x       y       z     vdW  Elec       q    Type
REMARK                         _______ _______ _______ _____ _____    ______ ____
ROOT
ATOM     15  C   UNL     1      11.657   7.986   3.418  0.00  0.00    +0.064 C 
ENDROOT
BRANCH  15   7
ATOM      4  N   UNL     1       8.934   7.098   5.953  0.00  0.00    -0.316 NA
ATOM      6  C   UNL     1      10.748   5.686   4.104  0.00  0.00    +0.004 C 
ATOM      7  C   UNL     1      10.943   7.170   4.497  0.00  0.00    +0.012 C 
ATOM      9  C   UNL     1       9.953   4.975   5.211  0.00  0.00    +0.019 C 
ATOM     13  C   UNL     1       9.613   7.835   4.886  0.00  0.00    +0.085 C 
ATOM     14  C   UNL     1       8.665   5.713   5.572  0.00  0.00    +0.081 C 
ATOM     31  H   UNL     1       8.055   7.563   6.177  0.00  0.00    +0.122 HD
BRANCH   6  12
ATOM     12  C   UNL     1      10.081   5.486   2.738  0.00  0.00    +0.099 C 
BRANCH  12  16
ATOM      1  O   UNL     1      10.227   3.812   0.997  0.00  0.00    -0.276 OA
ATOM      3  N   UNL     1      12.081   4.234   2.333  0.00  0.00    -0.312 N 
ATOM     16  C   UNL     1      10.772   4.421   1.914  0.00  0.00    +0.214 C 
ATOM     30  H   UNL     1      12.445   4.782   3.109  0.00  0.00    +0.149 HD
BRANCH   3   8
ATOM      8  C   UNL     1      12.977   3.277   1.724  0.00  0.00    +0.073 C 
ATOM     10  C   UNL     1      14.455   3.525   1.665  0.00  0.00    +0.024 C 
ATOM     11  C   UNL     1      13.638   3.560   0.407  0.00  0.00    +0.024 C 
ENDBRANCH   3   8
ENDBRANCH  12  16
ENDBRANCH   6  12
ENDBRANCH  15   7
BRANCH  15  17
ATOM      2  O   UNL     1      15.110   7.045   3.022  0.00  0.00    -0.354 OA
ATOM      5  N   UNL     1      13.765   6.955   2.686  0.00  0.00    -0.083 NA
ATOM     17  C   UNL     1      13.147   7.815   3.500  0.00  0.00    +0.085 A 
ATOM     18  C   UNL     1      14.043   8.470   4.364  0.00  0.00    +0.076 A 
ATOM     19  C   UNL     1      15.263   7.950   4.022  0.00  0.00    +0.167 A 
BRANCH  19  21
ATOM     21  C   UNL     1      16.608   8.152   4.478  0.00  0.00    +0.020 A 
ATOM     22  C   UNL     1      19.224   8.545   5.364  0.00  0.00    -0.042 A 
ATOM     23  C   UNL     1      17.679   7.899   3.622  0.00  0.00    +0.012 A 
ATOM     24  C   UNL     1      16.844   8.601   5.778  0.00  0.00    +0.012 A 
ATOM     25  C   UNL     1      18.987   8.097   4.064  0.00  0.00    +0.005 A 
ATOM     26  C   UNL     1      18.151   8.798   6.220  0.00  0.00    +0.005 A 
BRANCH  22  20
ATOM     20  C   UNL     1      20.622   8.756   5.837  0.00  0.00    -0.013 C 
ATOM     27  C   UNL     1      20.715   8.652   7.391  0.00  0.00    +0.015 C 
ATOM     28  C   UNL     1      21.152  10.164   5.427  0.00  0.00    +0.015 C 
ATOM     29  C   UNL     1      21.677   7.737   5.288  0.00  0.00    +0.015 C 
ENDBRANCH  22  20
ENDBRANCH  19  21
ENDBRANCH  15  17
TORSDOF 7
ENDMDL
MODEL 10
REMARK VINA RESULT:      -6.4     29.378     32.314
REMARK  Name = 26743284
REMARK  10 active torsions:
REMARK  status: ('A' for Active; 'I' for Inactive)
REMARK    1  A    between atoms: N_3  and  C_8
REMARK    2  A    between atoms: C_6  and  C_12
REMARK    3  A    between atoms: C_7  and  C_15
REMARK    4  A    between atoms: C_12  and  C_16
REMARK    5  A    between atoms: C_15  and  C_17
REMARK    6  A    between atoms: C_19  and  C_21
REMARK    7  A    between atoms: C_20  and  C_22
REMARK    8  A    between atoms: C_20  and  C_27
REMARK    9  A    between atoms: C_20  and  C_28
REMARK   10  A    between atoms: C_20  and  C_29
REMARK                            x       y       z     vdW  Elec       q    Type
REMARK                         _______ _______ _______ _____ _____    ______ ____
ROOT
ATOM     15  C   UNL     1     -15.996   4.631  31.532  0.00  0.00    +0.064 C 
ENDROOT
BRANCH  15   7
ATOM      4  N   UNL     1     -14.611   1.293  32.787  0.00  0.00    -0.316 NA
ATOM      6  C   UNL     1     -15.069   2.641  30.202  0.00  0.00    +0.004 C 
ATOM      7  C   UNL     1     -15.098   3.393  31.555  0.00  0.00    +0.012 C 
ATOM      9  C   UNL     1     -14.210   1.375  30.352  0.00  0.00    +0.019 C 
ATOM     13  C   UNL     1     -15.489   2.463  32.714  0.00  0.00    +0.085 C 
ATOM     14  C   UNL     1     -14.631   0.521  31.547  0.00  0.00    +0.081 C 
ATOM     31  H   UNL     1     -14.907   0.698  33.560  0.00  0.00    +0.122 HD
BRANCH   6  12
ATOM     12  C   UNL     1     -16.457   2.298  29.650  0.00  0.00    +0.099 C 
BRANCH  12  16
ATOM      1  O   UNL     1     -16.535   0.723  27.816  0.00  0.00    -0.276 OA
ATOM      3  N   UNL     1     -16.203   2.979  27.369  0.00  0.00    -0.312 N 
ATOM     16  C   UNL     1     -16.409   1.884  28.195  0.00  0.00    +0.214 C 
ATOM     30  H   UNL     1     -16.102   3.905  27.777  0.00  0.00    +0.149 HD
BRANCH   3   8
ATOM      8  C   UNL     1     -16.113   2.877  25.930  0.00  0.00    +0.073 C 
ATOM     10  C   UNL     1     -16.086   4.102  25.065  0.00  0.00    +0.024 C 
ATOM     11  C   UNL     1     -17.286   3.201  25.053  0.00  0.00    +0.024 C 
ENDBRANCH   3   8
ENDBRANCH  12  16
ENDBRANCH   6  12
ENDBRANCH  15   7
BRANCH  15  17
ATOM      2  O   UNL     1     -14.721   7.989  31.782  0.00  0.00    -0.354 OA
ATOM      5  N   UNL     1     -15.680   7.064  31.386  0.00  0.00    -0.083 NA
ATOM     17  C   UNL     1     -15.208   5.883  31.794  0.00  0.00    +0.085 A 
ATOM     18  C   UNL     1     -13.968   5.999  32.446  0.00  0.00    +0.076 A 
ATOM     19  C   UNL     1     -13.707   7.343  32.412  0.00  0.00    +0.167 A 
BRANCH  19  21
ATOM     21  C   UNL     1     -12.637   8.175  32.881  0.00  0.00    +0.020 A 
ATOM     22  C   UNL     1     -10.554   9.790  33.794  0.00  0.00    -0.042 A 
ATOM     23  C   UNL     1     -12.568   8.528  34.228  0.00  0.00    +0.012 A 
ATOM     24  C   UNL     1     -11.664   8.628  31.989  0.00  0.00    +0.012 A 
ATOM     25  C   UNL     1     -11.526   9.335  34.685  0.00  0.00    +0.005 A 
ATOM     26  C   UNL     1     -10.623   9.435  32.446  0.00  0.00    +0.005 A 
BRANCH  22  20
ATOM     20  C   UNL     1      -9.440  10.654  34.282  0.00  0.00    -0.013 C 
ATOM     27  C   UNL     1      -9.975  11.812  35.179  0.00  0.00    +0.015 C 
ATOM     28  C   UNL     1      -8.662  11.298  33.094  0.00  0.00    +0.015 C 
ATOM     29  C   UNL     1      -8.355   9.926  35.144  0.00  0.00    +0.015 C 
ENDBRANCH  22  20
ENDBRANCH  19  21
ENDBRANCH  15  17
TORSDOF 7
ENDMDL
