MODEL 1
REMARK VINA RESULT:      -5.5      0.000      0.000
REMARK  Name = 56775547
REMARK  10 active torsions:
REMARK  status: ('A' for Active; 'I' for Inactive)
REMARK    1  A    between atoms: O_3  and  C_16
REMARK    2  A    between atoms: O_3  and  C_22
REMARK    3  A    between atoms: O_4  and  C_18
REMARK    4  A    between atoms: O_4  and  C_23
REMARK    5  A    between atoms: N_5  and  C_7
REMARK    6  A    between atoms: N_5  and  C_11
REMARK    7  A    between atoms: C_7  and  C_10
REMARK    8  A    between atoms: C_10  and  C_12
REMARK    9  A    between atoms: C_11  and  C_13
REMARK   10  A    between atoms: C_15  and  C_18
REMARK                            x       y       z     vdW  Elec       q    Type
REMARK                         _______ _______ _______ _____ _____    ______ ____
ROOT
ATOM      1  O   UNL     1      12.317   8.399   2.963  0.00  0.00    -0.376 OA
ATOM      7  C   UNL     1      11.273   6.559   3.248  0.00  0.00    +0.072 C 
ATOM      8  C   UNL     1      11.517   7.547   2.112  0.00  0.00    +0.184 C 
ATOM      9  C   UNL     1      12.048   7.553   4.104  0.00  0.00    +0.184 C 
ENDROOT
BRANCH   7   5
ATOM      5  N   UNL     1      12.107   5.374   3.028  0.00  0.00    -0.302 NA
ATOM     24  H   UNL     1      12.943   5.519   2.467  0.00  0.00    +0.123 HD
BRANCH   5  11
ATOM     11  C   UNL     1      11.285   4.309   2.454  0.00  0.00    +0.120 C 
BRANCH  11  13
ATOM     13  C   UNL     1      11.607   4.056   1.018  0.00  0.00    +0.008 A 
ATOM     16  C   UNL     1      12.789   3.410   0.656  0.00  0.00    +0.124 A 
ATOM     17  C   UNL     1      10.713   4.475   0.034  0.00  0.00    +0.008 A 
ATOM     19  C   UNL     1      13.076   3.182  -0.689  0.00  0.00    +0.046 A 
ATOM     20  C   UNL     1      10.999   4.247  -1.312  0.00  0.00    +0.001 A 
ATOM     21  C   UNL     1      12.181   3.601  -1.674  0.00  0.00    +0.004 A 
BRANCH  16   3
ATOM      3  O   UNL     1      13.675   2.995   1.605  0.00  0.00    -0.495 OA
ATOM     22  C   UNL     1      14.982   3.565   1.564  0.00  0.00    +0.277 C 
ENDBRANCH  16   3
ENDBRANCH  11  13
ENDBRANCH   5  11
ENDBRANCH   7   5
BRANCH   7  10
ATOM     10  C   UNL     1       9.864   6.218   3.624  0.00  0.00    +0.085 C 
BRANCH  10  12
ATOM      2  O   UNL     1       9.848   4.619   6.864  0.00  0.00    -0.357 OA
ATOM      6  N   UNL     1      10.016   4.603   5.485  0.00  0.00    -0.083 NA
ATOM     12  C   UNL     1       9.771   5.856   5.092  0.00  0.00    +0.086 A 
ATOM     14  C   UNL     1       9.444   6.699   6.169  0.00  0.00    +0.073 A 
ATOM     15  C   UNL     1       9.506   5.872   7.260  0.00  0.00    +0.163 A 
BRANCH  15  18
ATOM     18  C   UNL     1       9.288   6.069   8.697  0.00  0.00    +0.236 C 
BRANCH  18   4
ATOM      4  O   UNL     1      10.102   5.167   9.450  0.00  0.00    -0.375 OA
ATOM     23  C   UNL     1       9.335   4.472  10.420  0.00  0.00    +0.194 C 
ENDBRANCH  18   4
ENDBRANCH  15  18
ENDBRANCH  10  12
ENDBRANCH   7  10
TORSDOF 8
ENDMDL
MODEL 2
REMARK VINA RESULT:      -5.2     21.602     24.697
REMARK  Name = 56775547
REMARK  10 active torsions:
REMARK  status: ('A' for Active; 'I' for Inactive)
REMARK    1  A    between atoms: O_3  and  C_16
REMARK    2  A    between atoms: O_3  and  C_22
REMARK    3  A    between atoms: O_4  and  C_18
REMARK    4  A    between atoms: O_4  and  C_23
REMARK    5  A    between atoms: N_5  and  C_7
REMARK    6  A    between atoms: N_5  and  C_11
REMARK    7  A    between atoms: C_7  and  C_10
REMARK    8  A    between atoms: C_10  and  C_12
REMARK    9  A    between atoms: C_11  and  C_13
REMARK   10  A    between atoms: C_15  and  C_18
REMARK                            x       y       z     vdW  Elec       q    Type
REMARK                         _______ _______ _______ _____ _____    ______ ____
ROOT
ATOM      1  O   UNL     1      -1.026 -11.399  15.241  0.00  0.00    -0.376 OA
ATOM      7  C   UNL     1      -3.157 -11.274  15.192  0.00  0.00    +0.072 C 
ATOM      8  C   UNL     1      -2.013 -10.636  15.972  0.00  0.00    +0.184 C 
ATOM      9  C   UNL     1      -2.066 -12.110  14.532  0.00  0.00    +0.184 C 
ENDROOT
BRANCH   7   5
ATOM      5  N   UNL     1      -3.663 -10.303  14.219  0.00  0.00    -0.302 NA
ATOM     24  H   UNL     1      -4.273  -9.579  14.591  0.00  0.00    +0.123 HD
BRANCH   5  11
ATOM     11  C   UNL     1      -4.327 -11.018  13.128  0.00  0.00    +0.120 C 
BRANCH  11  13
ATOM     13  C   UNL     1      -4.437 -10.189  11.892  0.00  0.00    +0.008 A 
ATOM     16  C   UNL     1      -3.316  -9.927  11.106  0.00  0.00    +0.124 A 
ATOM     17  C   UNL     1      -5.680  -9.672  11.526  0.00  0.00    +0.008 A 
ATOM     19  C   UNL     1      -3.436  -9.150   9.954  0.00  0.00    +0.046 A 
ATOM     20  C   UNL     1      -5.802  -8.895  10.374  0.00  0.00    +0.001 A 
ATOM     21  C   UNL     1      -4.679  -8.633   9.588  0.00  0.00    +0.004 A 
BRANCH  16   3
ATOM      3  O   UNL     1      -2.094 -10.423  11.448  0.00  0.00    -0.495 OA
ATOM     22  C   UNL     1      -1.042  -9.479  11.642  0.00  0.00    +0.277 C 
ENDBRANCH  16   3
ENDBRANCH  11  13
ENDBRANCH   5  11
ENDBRANCH   7   5
BRANCH   7  10
ATOM     10  C   UNL     1      -4.250 -11.969  15.945  0.00  0.00    +0.085 C 
BRANCH  10  12
ATOM      2  O   UNL     1      -6.571  -9.279  16.595  0.00  0.00    -0.357 OA
ATOM      6  N   UNL     1      -5.294  -9.823  16.578  0.00  0.00    -0.083 NA
ATOM     12  C   UNL     1      -5.453 -11.063  16.106  0.00  0.00    +0.086 A 
ATOM     14  C   UNL     1      -6.796 -11.354  15.812  0.00  0.00    +0.073 A 
ATOM     15  C   UNL     1      -7.458 -10.199  16.137  0.00  0.00    +0.163 A 
BRANCH  15  18
ATOM     18  C   UNL     1      -8.865  -9.787  16.089  0.00  0.00    +0.236 C 
BRANCH  18   4
ATOM      4  O   UNL     1      -8.976  -8.375  16.287  0.00  0.00    -0.375 OA
ATOM     23  C   UNL     1      -9.869  -8.074  17.347  0.00  0.00    +0.194 C 
ENDBRANCH  18   4
ENDBRANCH  15  18
ENDBRANCH  10  12
ENDBRANCH   7  10
TORSDOF 8
ENDMDL
MODEL 3
REMARK VINA RESULT:      -5.1     22.287     25.519
REMARK  Name = 56775547
REMARK  10 active torsions:
REMARK  status: ('A' for Active; 'I' for Inactive)
REMARK    1  A    between atoms: O_3  and  C_16
REMARK    2  A    between atoms: O_3  and  C_22
REMARK    3  A    between atoms: O_4  and  C_18
REMARK    4  A    between atoms: O_4  and  C_23
REMARK    5  A    between atoms: N_5  and  C_7
REMARK    6  A    between atoms: N_5  and  C_11
REMARK    7  A    between atoms: C_7  and  C_10
REMARK    8  A    between atoms: C_10  and  C_12
REMARK    9  A    between atoms: C_11  and  C_13
REMARK   10  A    between atoms: C_15  and  C_18
REMARK                            x       y       z     vdW  Elec       q    Type
REMARK                         _______ _______ _______ _____ _____    ______ ____
ROOT
ATOM      1  O   UNL     1      -2.212 -14.104  13.116  0.00  0.00    -0.376 OA
ATOM      7  C   UNL     1      -2.702 -12.080  13.588  0.00  0.00    +0.072 C 
ATOM      8  C   UNL     1      -3.126 -13.128  12.564  0.00  0.00    +0.184 C 
ATOM      9  C   UNL     1      -1.698 -13.129  14.052  0.00  0.00    +0.184 C 
ENDROOT
BRANCH   7   5
ATOM      5  N   UNL     1      -3.756 -11.955  14.598  0.00  0.00    -0.302 NA
ATOM     24  H   UNL     1      -4.671 -11.674  14.251  0.00  0.00    +0.123 HD
BRANCH   5  11
ATOM     11  C   UNL     1      -3.307 -11.041  15.649  0.00  0.00    +0.120 C 
BRANCH  11  13
ATOM     13  C   UNL     1      -4.276 -10.962  16.782  0.00  0.00    +0.008 A 
ATOM     16  C   UNL     1      -5.495 -10.301  16.634  0.00  0.00    +0.124 A 
ATOM     17  C   UNL     1      -3.950 -11.557  18.001  0.00  0.00    +0.008 A 
ATOM     19  C   UNL     1      -6.388 -10.236  17.702  0.00  0.00    +0.046 A 
ATOM     20  C   UNL     1      -4.842 -11.492  19.071  0.00  0.00    +0.001 A 
ATOM     21  C   UNL     1      -6.062 -10.831  18.922  0.00  0.00    +0.004 A 
BRANCH  16   3
ATOM      3  O   UNL     1      -5.829  -9.714  15.451  0.00  0.00    -0.495 OA
ATOM     22  C   UNL     1      -7.048 -10.136  14.840  0.00  0.00    +0.277 C 
ENDBRANCH  16   3
ENDBRANCH  11  13
ENDBRANCH   5  11
ENDBRANCH   7   5
BRANCH   7  10
ATOM     10  C   UNL     1      -2.198 -10.755  13.104  0.00  0.00    +0.085 C 
BRANCH  10  12
ATOM      2  O   UNL     1      -4.957  -9.464  11.161  0.00  0.00    -0.357 OA
ATOM      6  N   UNL     1      -4.413  -9.993  12.325  0.00  0.00    -0.083 NA
ATOM     12  C   UNL     1      -3.120 -10.182  12.048  0.00  0.00    +0.086 A 
ATOM     14  C   UNL     1      -2.793  -9.795  10.736  0.00  0.00    +0.073 A 
ATOM     15  C   UNL     1      -3.983  -9.351  10.222  0.00  0.00    +0.163 A 
BRANCH  15  18
ATOM     18  C   UNL     1      -4.386  -8.805   8.922  0.00  0.00    +0.236 C 
BRANCH  18   4
ATOM      4  O   UNL     1      -5.571  -9.456   8.456  0.00  0.00    -0.375 OA
ATOM     23  C   UNL     1      -5.293 -10.300   7.350  0.00  0.00    +0.194 C 
ENDBRANCH  18   4
ENDBRANCH  15  18
ENDBRANCH  10  12
ENDBRANCH   7  10
TORSDOF 8
ENDMDL
MODEL 4
REMARK VINA RESULT:      -5.1     22.563     25.111
REMARK  Name = 56775547
REMARK  10 active torsions:
REMARK  status: ('A' for Active; 'I' for Inactive)
REMARK    1  A    between atoms: O_3  and  C_16
REMARK    2  A    between atoms: O_3  and  C_22
REMARK    3  A    between atoms: O_4  and  C_18
REMARK    4  A    between atoms: O_4  and  C_23
REMARK    5  A    between atoms: N_5  and  C_7
REMARK    6  A    between atoms: N_5  and  C_11
REMARK    7  A    between atoms: C_7  and  C_10
REMARK    8  A    between atoms: C_10  and  C_12
REMARK    9  A    between atoms: C_11  and  C_13
REMARK   10  A    between atoms: C_15  and  C_18
REMARK                            x       y       z     vdW  Elec       q    Type
REMARK                         _______ _______ _______ _____ _____    ______ ____
ROOT
ATOM      1  O   UNL     1      -2.279 -14.191  14.122  0.00  0.00    -0.376 OA
ATOM      7  C   UNL     1      -2.799 -12.128  14.297  0.00  0.00    +0.072 C 
ATOM      8  C   UNL     1      -1.645 -12.951  13.735  0.00  0.00    +0.184 C 
ATOM      9  C   UNL     1      -3.359 -13.468  14.758  0.00  0.00    +0.184 C 
ENDROOT
BRANCH   7   5
ATOM      5  N   UNL     1      -3.611 -11.634  13.183  0.00  0.00    -0.302 NA
ATOM     24  H   UNL     1      -3.743 -12.282  12.409  0.00  0.00    +0.123 HD
BRANCH   5  11
ATOM     11  C   UNL     1      -3.048 -10.372  12.701  0.00  0.00    +0.120 C 
BRANCH  11  13
ATOM     13  C   UNL     1      -3.821  -9.808  11.555  0.00  0.00    +0.008 A 
ATOM     16  C   UNL     1      -5.197  -9.604  11.653  0.00  0.00    +0.124 A 
ATOM     17  C   UNL     1      -3.152  -9.486  10.373  0.00  0.00    +0.008 A 
ATOM     19  C   UNL     1      -5.903  -9.076  10.573  0.00  0.00    +0.046 A 
ATOM     20  C   UNL     1      -3.858  -8.959   9.292  0.00  0.00    +0.001 A 
ATOM     21  C   UNL     1      -5.234  -8.754   9.392  0.00  0.00    +0.004 A 
BRANCH  16   3
ATOM      3  O   UNL     1      -5.866  -9.913  12.799  0.00  0.00    -0.495 OA
ATOM     22  C   UNL     1      -7.261  -9.618  12.834  0.00  0.00    +0.277 C 
ENDBRANCH  16   3
ENDBRANCH  11  13
ENDBRANCH   5  11
ENDBRANCH   7   5
BRANCH   7  10
ATOM     10  C   UNL     1      -2.507 -11.072  15.319  0.00  0.00    +0.085 C 
BRANCH  10  12
ATOM      2  O   UNL     1      -5.666 -10.317  16.902  0.00  0.00    -0.357 OA
ATOM      6  N   UNL     1      -4.810 -10.329  15.807  0.00  0.00    -0.083 NA
ATOM     12  C   UNL     1      -3.683 -10.890  16.256  0.00  0.00    +0.086 A 
ATOM     14  C   UNL     1      -3.767 -11.247  17.613  0.00  0.00    +0.073 A 
ATOM     15  C   UNL     1      -5.033 -10.865  17.972  0.00  0.00    +0.163 A 
BRANCH  15  18
ATOM     18  C   UNL     1      -5.798 -10.932  19.222  0.00  0.00    +0.236 C 
BRANCH  18   4
ATOM      4  O   UNL     1      -6.807 -11.941  19.133  0.00  0.00    -0.375 OA
ATOM     23  C   UNL     1      -8.099 -11.395  19.346  0.00  0.00    +0.194 C 
ENDBRANCH  18   4
ENDBRANCH  15  18
ENDBRANCH  10  12
ENDBRANCH   7  10
TORSDOF 8
ENDMDL
MODEL 5
REMARK VINA RESULT:      -5.0      1.709      7.765
REMARK  Name = 56775547
REMARK  10 active torsions:
REMARK  status: ('A' for Active; 'I' for Inactive)
REMARK    1  A    between atoms: O_3  and  C_16
REMARK    2  A    between atoms: O_3  and  C_22
REMARK    3  A    between atoms: O_4  and  C_18
REMARK    4  A    between atoms: O_4  and  C_23
REMARK    5  A    between atoms: N_5  and  C_7
REMARK    6  A    between atoms: N_5  and  C_11
REMARK    7  A    between atoms: C_7  and  C_10
REMARK    8  A    between atoms: C_10  and  C_12
REMARK    9  A    between atoms: C_11  and  C_13
REMARK   10  A    between atoms: C_15  and  C_18
REMARK                            x       y       z     vdW  Elec       q    Type
REMARK                         _______ _______ _______ _____ _____    ______ ____
ROOT
ATOM      1  O   UNL     1      11.301   7.310   2.352  0.00  0.00    -0.376 OA
ATOM      7  C   UNL     1      11.203   5.400   3.299  0.00  0.00    +0.072 C 
ATOM      8  C   UNL     1      12.284   6.336   2.769  0.00  0.00    +0.184 C 
ATOM      9  C   UNL     1      10.225   6.430   2.748  0.00  0.00    +0.184 C 
ENDROOT
BRANCH   7   5
ATOM      5  N   UNL     1      11.193   5.472   4.762  0.00  0.00    -0.302 NA
ATOM     24  H   UNL     1      12.074   5.257   5.222  0.00  0.00    +0.123 HD
BRANCH   5  11
ATOM     11  C   UNL     1      10.125   4.615   5.277  0.00  0.00    +0.120 C 
BRANCH  11  13
ATOM     13  C   UNL     1       9.759   4.951   6.685  0.00  0.00    +0.008 A 
ATOM     16  C   UNL     1       9.335   6.235   7.025  0.00  0.00    +0.124 A 
ATOM     17  C   UNL     1       9.847   3.963   7.667  0.00  0.00    +0.008 A 
ATOM     19  C   UNL     1       8.997   6.532   8.345  0.00  0.00    +0.046 A 
ATOM     20  C   UNL     1       9.509   4.260   8.987  0.00  0.00    +0.001 A 
ATOM     21  C   UNL     1       9.084   5.545   9.326  0.00  0.00    +0.004 A 
BRANCH  16   3
ATOM      3  O   UNL     1       9.244   7.212   6.079  0.00  0.00    -0.495 OA
ATOM     22  C   UNL     1       8.311   8.263   6.321  0.00  0.00    +0.277 C 
ENDBRANCH  16   3
ENDBRANCH  11  13
ENDBRANCH   5  11
ENDBRANCH   7   5
BRANCH   7  10
ATOM     10  C   UNL     1      11.145   3.994   2.784  0.00  0.00    +0.085 C 
BRANCH  10  12
ATOM      2  O   UNL     1      13.764   3.291   0.397  0.00  0.00    -0.357 OA
ATOM      6  N   UNL     1      13.240   3.292   1.684  0.00  0.00    -0.083 NA
ATOM     12  C   UNL     1      12.024   3.831   1.562  0.00  0.00    +0.086 A 
ATOM     14  C   UNL     1      11.728   4.187   0.234  0.00  0.00    +0.073 A 
ATOM     15  C   UNL     1      12.854   3.826  -0.458  0.00  0.00    +0.163 A 
BRANCH  15  18
ATOM     18  C   UNL     1      13.247   3.902  -1.869  0.00  0.00    +0.236 C 
BRANCH  18   4
ATOM      4  O   UNL     1      12.175   3.463  -2.707  0.00  0.00    -0.375 OA
ATOM     23  C   UNL     1      11.993   2.059  -2.614  0.00  0.00    +0.194 C 
ENDBRANCH  18   4
ENDBRANCH  15  18
ENDBRANCH  10  12
ENDBRANCH   7  10
TORSDOF 8
ENDMDL
MODEL 6
REMARK VINA RESULT:      -5.0     26.868     28.347
REMARK  Name = 56775547
REMARK  10 active torsions:
REMARK  status: ('A' for Active; 'I' for Inactive)
REMARK    1  A    between atoms: O_3  and  C_16
REMARK    2  A    between atoms: O_3  and  C_22
REMARK    3  A    between atoms: O_4  and  C_18
REMARK    4  A    between atoms: O_4  and  C_23
REMARK    5  A    between atoms: N_5  and  C_7
REMARK    6  A    between atoms: N_5  and  C_11
REMARK    7  A    between atoms: C_7  and  C_10
REMARK    8  A    between atoms: C_10  and  C_12
REMARK    9  A    between atoms: C_11  and  C_13
REMARK   10  A    between atoms: C_15  and  C_18
REMARK                            x       y       z     vdW  Elec       q    Type
REMARK                         _______ _______ _______ _____ _____    ______ ____
ROOT
ATOM      1  O   UNL     1      -8.671 -10.944  13.541  0.00  0.00    -0.376 OA
ATOM      7  C   UNL     1      -8.960  -9.802  15.322  0.00  0.00    +0.072 C 
ATOM      8  C   UNL     1      -8.730 -11.264  14.950  0.00  0.00    +0.184 C 
ATOM      9  C   UNL     1      -8.981  -9.559  13.817  0.00  0.00    +0.184 C 
ENDROOT
BRANCH   7   5
ATOM      5  N   UNL     1      -7.718  -9.255  15.873  0.00  0.00    -0.302 NA
ATOM     24  H   UNL     1      -6.857  -9.657  15.509  0.00  0.00    +0.123 HD
BRANCH   5  11
ATOM     11  C   UNL     1      -7.754  -9.360  17.331  0.00  0.00    +0.120 C 
BRANCH  11  13
ATOM     13  C   UNL     1      -6.628 -10.181  17.868  0.00  0.00    +0.008 A 
ATOM     16  C   UNL     1      -6.765 -10.882  19.066  0.00  0.00    +0.124 A 
ATOM     17  C   UNL     1      -5.429 -10.241  17.158  0.00  0.00    +0.008 A 
ATOM     19  C   UNL     1      -5.704 -11.644  19.553  0.00  0.00    +0.046 A 
ATOM     20  C   UNL     1      -4.366 -11.002  17.646  0.00  0.00    +0.001 A 
ATOM     21  C   UNL     1      -4.504 -11.704  18.843  0.00  0.00    +0.004 A 
BRANCH  16   3
ATOM      3  O   UNL     1      -7.929 -10.834  19.772  0.00  0.00    -0.495 OA
ATOM     22  C   UNL     1      -8.770 -11.985  19.713  0.00  0.00    +0.277 C 
ENDBRANCH  16   3
ENDBRANCH  11  13
ENDBRANCH   5  11
ENDBRANCH   7   5
BRANCH   7  10
ATOM     10  C   UNL     1     -10.167  -9.442  16.133  0.00  0.00    +0.085 C 
BRANCH  10  12
ATOM      2  O   UNL     1     -10.792  -5.955  15.423  0.00  0.00    -0.357 OA
ATOM      6  N   UNL     1     -10.010  -6.986  15.928  0.00  0.00    -0.083 NA
ATOM     12  C   UNL     1     -10.720  -8.097  15.707  0.00  0.00    +0.086 A 
ATOM     14  C   UNL     1     -11.946  -7.831  15.074  0.00  0.00    +0.073 A 
ATOM     15  C   UNL     1     -11.943  -6.469  14.918  0.00  0.00    +0.163 A 
BRANCH  15  18
ATOM     18  C   UNL     1     -12.892  -5.511  14.341  0.00  0.00    +0.236 C 
BRANCH  18   4
ATOM      4  O   UNL     1     -12.650  -5.356  12.940  0.00  0.00    -0.375 OA
ATOM     23  C   UNL     1     -12.321  -4.014  12.621  0.00  0.00    +0.194 C 
ENDBRANCH  18   4
ENDBRANCH  15  18
ENDBRANCH  10  12
ENDBRANCH   7  10
TORSDOF 8
ENDMDL
MODEL 7
REMARK VINA RESULT:      -4.9      1.317      2.145
REMARK  Name = 56775547
REMARK  10 active torsions:
REMARK  status: ('A' for Active; 'I' for Inactive)
REMARK    1  A    between atoms: O_3  and  C_16
REMARK    2  A    between atoms: O_3  and  C_22
REMARK    3  A    between atoms: O_4  and  C_18
REMARK    4  A    between atoms: O_4  and  C_23
REMARK    5  A    between atoms: N_5  and  C_7
REMARK    6  A    between atoms: N_5  and  C_11
REMARK    7  A    between atoms: C_7  and  C_10
REMARK    8  A    between atoms: C_10  and  C_12
REMARK    9  A    between atoms: C_11  and  C_13
REMARK   10  A    between atoms: C_15  and  C_18
REMARK                            x       y       z     vdW  Elec       q    Type
REMARK                         _______ _______ _______ _____ _____    ______ ____
ROOT
ATOM      1  O   UNL     1      13.510   7.605   2.754  0.00  0.00    -0.376 OA
ATOM      7  C   UNL     1      11.846   6.283   2.956  0.00  0.00    +0.072 C 
ATOM      8  C   UNL     1      12.450   7.169   1.872  0.00  0.00    +0.184 C 
ATOM      9  C   UNL     1      12.935   6.861   3.852  0.00  0.00    +0.184 C 
ENDROOT
BRANCH   7   5
ATOM      5  N   UNL     1      12.170   4.886   2.658  0.00  0.00    -0.302 NA
ATOM     24  H   UNL     1      13.120   4.710   2.338  0.00  0.00    +0.123 HD
BRANCH   5  11
ATOM     11  C   UNL     1      11.202   4.364   1.693  0.00  0.00    +0.120 C 
BRANCH  11  13
ATOM     13  C   UNL     1      11.812   4.125   0.351  0.00  0.00    +0.008 A 
ATOM     16  C   UNL     1      11.047   4.233  -0.810  0.00  0.00    +0.124 A 
ATOM     17  C   UNL     1      13.163   3.787   0.267  0.00  0.00    +0.008 A 
ATOM     19  C   UNL     1      11.632   4.007  -2.055  0.00  0.00    +0.046 A 
ATOM     20  C   UNL     1      13.749   3.559  -0.979  0.00  0.00    +0.001 A 
ATOM     21  C   UNL     1      12.983   3.669  -2.140  0.00  0.00    +0.004 A 
BRANCH  16   3
ATOM      3  O   UNL     1       9.726   4.561  -0.745  0.00  0.00    -0.495 OA
ATOM     22  C   UNL     1       9.236   5.470  -1.730  0.00  0.00    +0.277 C 
ENDBRANCH  16   3
ENDBRANCH  11  13
ENDBRANCH   5  11
ENDBRANCH   7   5
BRANCH   7  10
ATOM     10  C   UNL     1      10.410   6.480   3.337  0.00  0.00    +0.085 C 
BRANCH  10  12
ATOM      2  O   UNL     1       9.897   4.609   6.384  0.00  0.00    -0.357 OA
ATOM      6  N   UNL     1      10.150   4.694   5.021  0.00  0.00    -0.083 NA
ATOM     12  C   UNL     1      10.158   6.003   4.752  0.00  0.00    +0.086 A 
ATOM     14  C   UNL     1       9.916   6.784   5.895  0.00  0.00    +0.073 A 
ATOM     15  C   UNL     1       9.759   5.860   6.894  0.00  0.00    +0.163 A 
BRANCH  15  18
ATOM     18  C   UNL     1       9.485   5.956   8.332  0.00  0.00    +0.236 C 
BRANCH  18   4
ATOM      4  O   UNL     1      10.057   4.841   9.021  0.00  0.00    -0.375 OA
ATOM     23  C   UNL     1       9.342   4.552  10.212  0.00  0.00    +0.194 C 
ENDBRANCH  18   4
ENDBRANCH  15  18
ENDBRANCH  10  12
ENDBRANCH   7  10
TORSDOF 8
ENDMDL
MODEL 8
REMARK VINA RESULT:      -4.9     25.799     28.620
REMARK  Name = 56775547
REMARK  10 active torsions:
REMARK  status: ('A' for Active; 'I' for Inactive)
REMARK    1  A    between atoms: O_3  and  C_16
REMARK    2  A    between atoms: O_3  and  C_22
REMARK    3  A    between atoms: O_4  and  C_18
REMARK    4  A    between atoms: O_4  and  C_23
REMARK    5  A    between atoms: N_5  and  C_7
REMARK    6  A    between atoms: N_5  and  C_11
REMARK    7  A    between atoms: C_7  and  C_10
REMARK    8  A    between atoms: C_10  and  C_12
REMARK    9  A    between atoms: C_11  and  C_13
REMARK   10  A    between atoms: C_15  and  C_18
REMARK                            x       y       z     vdW  Elec       q    Type
REMARK                         _______ _______ _______ _____ _____    ______ ____
ROOT
ATOM      1  O   UNL     1     -10.745 -11.994  16.099  0.00  0.00    -0.376 OA
ATOM      7  C   UNL     1      -9.994 -10.107  16.756  0.00  0.00    +0.072 C 
ATOM      8  C   UNL     1     -10.135 -11.518  17.320  0.00  0.00    +0.184 C 
ATOM      9  C   UNL     1     -10.728 -10.661  15.541  0.00  0.00    +0.184 C 
ENDROOT
BRANCH   7   5
ATOM      5  N   UNL     1      -8.592  -9.880  16.399  0.00  0.00    -0.302 NA
ATOM     24  H   UNL     1      -8.089 -10.689  16.041  0.00  0.00    +0.123 HD
BRANCH   5  11
ATOM     11  C   UNL     1      -7.890  -9.312  17.551  0.00  0.00    +0.120 C 
BRANCH  11  13
ATOM     13  C   UNL     1      -6.679 -10.102  17.922  0.00  0.00    +0.008 A 
ATOM     16  C   UNL     1      -5.590 -10.187  17.056  0.00  0.00    +0.124 A 
ATOM     17  C   UNL     1      -6.645 -10.762  19.151  0.00  0.00    +0.008 A 
ATOM     19  C   UNL     1      -4.466 -10.930  17.418  0.00  0.00    +0.046 A 
ATOM     20  C   UNL     1      -5.522 -11.505  19.514  0.00  0.00    +0.001 A 
ATOM     21  C   UNL     1      -4.433 -11.589  18.647  0.00  0.00    +0.004 A 
BRANCH  16   3
ATOM      3  O   UNL     1      -5.606  -9.550  15.851  0.00  0.00    -0.495 OA
ATOM     22  C   UNL     1      -5.360 -10.347  14.694  0.00  0.00    +0.277 C 
ENDBRANCH  16   3
ENDBRANCH  11  13
ENDBRANCH   5  11
ENDBRANCH   7   5
BRANCH   7  10
ATOM     10  C   UNL     1     -10.598  -8.962  17.511  0.00  0.00    +0.085 C 
BRANCH  10  12
ATOM      2  O   UNL     1     -10.702  -6.143  15.254  0.00  0.00    -0.357 OA
ATOM      6  N   UNL     1     -10.024  -7.049  16.060  0.00  0.00    -0.083 NA
ATOM     12  C   UNL     1     -10.975  -7.837  16.570  0.00  0.00    +0.086 A 
ATOM     14  C   UNL     1     -12.260  -7.479  16.126  0.00  0.00    +0.073 A 
ATOM     15  C   UNL     1     -12.033  -6.408  15.301  0.00  0.00    +0.163 A 
BRANCH  15  18
ATOM     18  C   UNL     1     -12.903  -5.540  14.502  0.00  0.00    +0.236 C 
BRANCH  18   4
ATOM      4  O   UNL     1     -14.265  -5.960  14.617  0.00  0.00    -0.375 OA
ATOM     23  C   UNL     1     -15.011  -5.607  13.464  0.00  0.00    +0.194 C 
ENDBRANCH  18   4
ENDBRANCH  15  18
ENDBRANCH  10  12
ENDBRANCH   7  10
TORSDOF 8
ENDMDL
MODEL 9
REMARK VINA RESULT:      -4.9     23.028     25.678
REMARK  Name = 56775547
REMARK  10 active torsions:
REMARK  status: ('A' for Active; 'I' for Inactive)
REMARK    1  A    between atoms: O_3  and  C_16
REMARK    2  A    between atoms: O_3  and  C_22
REMARK    3  A    between atoms: O_4  and  C_18
REMARK    4  A    between atoms: O_4  and  C_23
REMARK    5  A    between atoms: N_5  and  C_7
REMARK    6  A    between atoms: N_5  and  C_11
REMARK    7  A    between atoms: C_7  and  C_10
REMARK    8  A    between atoms: C_10  and  C_12
REMARK    9  A    between atoms: C_11  and  C_13
REMARK   10  A    between atoms: C_15  and  C_18
REMARK                            x       y       z     vdW  Elec       q    Type
REMARK                         _______ _______ _______ _____ _____    ______ ____
ROOT
ATOM      1  O   UNL     1      -2.318 -14.004  13.200  0.00  0.00    -0.376 OA
ATOM      7  C   UNL     1      -2.591 -12.034  13.976  0.00  0.00    +0.072 C 
ATOM      8  C   UNL     1      -3.443 -13.100  13.294  0.00  0.00    +0.184 C 
ATOM      9  C   UNL     1      -1.435 -13.002  13.756  0.00  0.00    +0.184 C 
ENDROOT
BRANCH   7   5
ATOM      5  N   UNL     1      -2.922 -12.008  15.402  0.00  0.00    -0.302 NA
ATOM     24  H   UNL     1      -3.706 -12.591  15.686  0.00  0.00    +0.123 HD
BRANCH   5  11
ATOM     11  C   UNL     1      -3.139 -10.622  15.820  0.00  0.00    +0.120 C 
BRANCH  11  13
ATOM     13  C   UNL     1      -4.425 -10.448  16.558  0.00  0.00    +0.008 A 
ATOM     16  C   UNL     1      -4.573 -10.932  17.857  0.00  0.00    +0.124 A 
ATOM     17  C   UNL     1      -5.488  -9.795  15.933  0.00  0.00    +0.008 A 
ATOM     19  C   UNL     1      -5.781 -10.761  18.532  0.00  0.00    +0.046 A 
ATOM     20  C   UNL     1      -6.696  -9.624  16.607  0.00  0.00    +0.001 A 
ATOM     21  C   UNL     1      -6.843 -10.108  17.907  0.00  0.00    +0.004 A 
BRANCH  16   3
ATOM      3  O   UNL     1      -3.546 -11.573  18.483  0.00  0.00    -0.495 OA
ATOM     22  C   UNL     1      -3.887 -12.444  19.560  0.00  0.00    +0.277 C 
ENDBRANCH  16   3
ENDBRANCH  11  13
ENDBRANCH   5  11
ENDBRANCH   7   5
BRANCH   7  10
ATOM     10  C   UNL     1      -2.519 -10.666  13.369  0.00  0.00    +0.085 C 
BRANCH  10  12
ATOM      2  O   UNL     1      -5.187 -10.211  10.976  0.00  0.00    -0.357 OA
ATOM      6  N   UNL     1      -4.676 -10.187  12.267  0.00  0.00    -0.083 NA
ATOM     12  C   UNL     1      -3.403 -10.574  12.142  0.00  0.00    +0.086 A 
ATOM     14  C   UNL     1      -3.058 -10.853  10.809  0.00  0.00    +0.073 A 
ATOM     15  C   UNL     1      -4.215 -10.610  10.115  0.00  0.00    +0.163 A 
BRANCH  15  18
ATOM     18  C   UNL     1      -4.586 -10.691   8.699  0.00  0.00    +0.236 C 
BRANCH  18   4
ATOM      4  O   UNL     1      -5.030  -9.416   8.228  0.00  0.00    -0.375 OA
ATOM     23  C   UNL     1      -6.269  -9.524   7.545  0.00  0.00    +0.194 C 
ENDBRANCH  18   4
ENDBRANCH  15  18
ENDBRANCH  10  12
ENDBRANCH   7  10
TORSDOF 8
ENDMDL
MODEL 10
REMARK VINA RESULT:      -4.8      2.376      7.666
REMARK  Name = 56775547
REMARK  10 active torsions:
REMARK  status: ('A' for Active; 'I' for Inactive)
REMARK    1  A    between atoms: O_3  and  C_16
REMARK    2  A    between atoms: O_3  and  C_22
REMARK    3  A    between atoms: O_4  and  C_18
REMARK    4  A    between atoms: O_4  and  C_23
REMARK    5  A    between atoms: N_5  and  C_7
REMARK    6  A    between atoms: N_5  and  C_11
REMARK    7  A    between atoms: C_7  and  C_10
REMARK    8  A    between atoms: C_10  and  C_12
REMARK    9  A    between atoms: C_11  and  C_13
REMARK   10  A    between atoms: C_15  and  C_18
REMARK                            x       y       z     vdW  Elec       q    Type
REMARK                         _______ _______ _______ _____ _____    ______ ____
ROOT
ATOM      1  O   UNL     1      13.149   7.746   2.407  0.00  0.00    -0.376 OA
ATOM      7  C   UNL     1      11.786   6.115   2.612  0.00  0.00    +0.072 C 
ATOM      8  C   UNL     1      12.888   6.769   3.441  0.00  0.00    +0.184 C 
ATOM      9  C   UNL     1      12.183   7.117   1.534  0.00  0.00    +0.184 C 
ENDROOT
BRANCH   7   5
ATOM      5  N   UNL     1      10.487   6.505   3.165  0.00  0.00    -0.302 NA
ATOM     24  H   UNL     1      10.450   7.422   3.606  0.00  0.00    +0.123 HD
BRANCH   5  11
ATOM     11  C   UNL     1      10.032   5.473   4.097  0.00  0.00    +0.120 C 
BRANCH  11  13
ATOM     13  C   UNL     1       9.634   6.039   5.419  0.00  0.00    +0.008 A 
ATOM     16  C   UNL     1       8.597   6.967   5.515  0.00  0.00    +0.124 A 
ATOM     17  C   UNL     1      10.312   5.631   6.568  0.00  0.00    +0.008 A 
ATOM     19  C   UNL     1       8.237   7.486   6.758  0.00  0.00    +0.046 A 
ATOM     20  C   UNL     1       9.953   6.151   7.812  0.00  0.00    +0.001 A 
ATOM     21  C   UNL     1       8.915   7.079   7.907  0.00  0.00    +0.004 A 
BRANCH  16   3
ATOM      3  O   UNL     1       7.925   7.377   4.403  0.00  0.00    -0.495 OA
ATOM     22  C   UNL     1       7.772   8.784   4.220  0.00  0.00    +0.277 C 
ENDBRANCH  16   3
ENDBRANCH  11  13
ENDBRANCH   5  11
ENDBRANCH   7   5
BRANCH   7  10
ATOM     10  C   UNL     1      11.877   4.650   2.313  0.00  0.00    +0.085 C 
BRANCH  10  12
ATOM      2  O   UNL     1       9.985   4.206  -0.733  0.00  0.00    -0.357 OA
ATOM      6  N   UNL     1      10.098   4.572   0.603  0.00  0.00    -0.083 NA
ATOM     12  C   UNL     1      11.380   4.355   0.913  0.00  0.00    +0.086 A 
ATOM     14  C   UNL     1      12.116   3.856  -0.176  0.00  0.00    +0.073 A 
ATOM     15  C   UNL     1      11.193   3.781  -1.186  0.00  0.00    +0.163 A 
BRANCH  15  18
ATOM     18  C   UNL     1      11.254   3.353  -2.587  0.00  0.00    +0.236 C 
BRANCH  18   4
ATOM      4  O   UNL     1      10.020   3.642  -3.249  0.00  0.00    -0.375 OA
ATOM     23  C   UNL     1       9.502   2.490  -3.895  0.00  0.00    +0.194 C 
ENDBRANCH  18   4
ENDBRANCH  15  18
ENDBRANCH  10  12
ENDBRANCH   7  10
TORSDOF 8
ENDMDL
