REMARK  Name = 40777833
REMARK  11 active torsions:
REMARK  status: ('A' for Active; 'I' for Inactive)
REMARK    1  A    between atoms: O_2  and  C_8
REMARK    2  A    between atoms: O_3  and  C_9
REMARK    3  A    between atoms: N_6  and  C_13
REMARK    4  A    between atoms: N_7  and  C_15
REMARK    5  A    between atoms: C_10  and  C_12
REMARK    6  A    between atoms: C_11  and  C_13
REMARK    7  A    between atoms: C_12  and  C_14
REMARK    8  A    between atoms: C_15  and  C_18
REMARK    9  A    between atoms: C_15  and  C_19
REMARK   10  A    between atoms: C_16  and  C_17
REMARK   11  A    between atoms: C_24  and  C_25
REMARK                            x       y       z     vdW  Elec       q    Type
REMARK                         _______ _______ _______ _____ _____    ______ ____
ROOT
ATOM      1  O   UNL     1      -1.765  -0.753   0.570  0.00  0.00    -0.366 OA
ATOM      8  C   UNL     1      -3.787  -1.114  -0.589  0.00  0.00    +0.175 C 
ATOM      9  C   UNL     1      -3.338  -2.441  -0.012  0.00  0.00    +0.176 C 
ATOM     10  C   UNL     1      -3.030  -0.130   0.286  0.00  0.00    +0.158 C 
ATOM     11  C   UNL     1      -1.870  -2.170   0.301  0.00  0.00    +0.167 C 
ENDROOT
BRANCH   8   2
ATOM      2  O   UNL     1      -5.183  -0.919  -0.521  0.00  0.00    -0.387 OA
ATOM     26  H   UNL     1      -5.603  -1.650  -1.006  0.00  0.00    +0.210 HD
ENDBRANCH   8   2
BRANCH   9   3
ATOM      3  O   UNL     1      -4.013  -2.699   1.219  0.00  0.00    -0.387 OA
ATOM     27  H   UNL     1      -3.667  -3.538   1.569  0.00  0.00    +0.210 HD
ENDBRANCH   9   3
BRANCH  10  12
ATOM     12  C   UNL     1      -2.800   1.215  -0.380  0.00  0.00    +0.130 C 
BRANCH  12  14
ATOM      4  O   UNL     1      -1.972   2.138   1.697  0.00  0.00    -0.276 OA
ATOM      7  N   UNL     1      -1.191   2.998  -0.316  0.00  0.00    -0.313 N 
ATOM     14  C   UNL     1      -1.958   2.149   0.469  0.00  0.00    +0.216 C 
ATOM     29  H   UNL     1      -1.213   2.894  -1.326  0.00  0.00    +0.149 HD
BRANCH   7  15
ATOM     15  C   UNL     1      -0.298   3.991   0.236  0.00  0.00    +0.067 C 
ATOM     18  C   UNL     1       1.081   3.391   0.485  0.00  0.00    +0.027 C 
ATOM     19  C   UNL     1      -0.215   5.200  -0.687  0.00  0.00    +0.027 C 
ENDBRANCH   7  15
ENDBRANCH  12  14
ENDBRANCH  10  12
BRANCH  11  13
ATOM     13  C   UNL     1      -0.943  -2.494  -0.863  0.00  0.00    +0.138 C 
BRANCH  13   6
ATOM      5  O   UNL     1       0.456  -0.016  -1.248  0.00  0.00    -0.270 OA
ATOM      6  N   UNL     1       0.423  -2.222  -0.527  0.00  0.00    -0.309 N 
ATOM     16  C   UNL     1       1.023  -0.985  -0.750  0.00  0.00    +0.244 C 
ATOM     28  H   UNL     1       0.965  -2.998  -0.164  0.00  0.00    +0.149 HD
BRANCH  16  17
ATOM     17  C   UNL     1       2.455  -0.872  -0.371  0.00  0.00    +0.037 A 
ATOM     20  C   UNL     1       3.279   0.045  -1.024  0.00  0.00    +0.013 A 
ATOM     21  C   UNL     1       2.976  -1.683   0.637  0.00  0.00    +0.013 A 
ATOM     22  C   UNL     1       4.624   0.152  -0.668  0.00  0.00    +0.004 A 
ATOM     23  C   UNL     1       4.321  -1.576   0.993  0.00  0.00    +0.004 A 
ATOM     24  C   UNL     1       5.144  -0.659   0.341  0.00  0.00    -0.050 A 
ATOM     25  C   UNL     1       6.582  -0.546   0.721  0.00  0.00    +0.044 C 
ENDBRANCH  16  17
ENDBRANCH  13   6
ENDBRANCH  11  13
TORSDOF 8
