REMARK  Name = 26744604
REMARK  7 active torsions:
REMARK  status: ('A' for Active; 'I' for Inactive)
REMARK    1  A    between atoms: O_3  and  C_10
REMARK    2  A    between atoms: N_5  and  C_12
REMARK    3  A    between atoms: C_8  and  C_13
REMARK    4  A    between atoms: C_12  and  C_14
REMARK    5  A    between atoms: C_12  and  C_15
REMARK    6  A    between atoms: C_16  and  C_17
REMARK    7  A    between atoms: C_17  and  C_18
REMARK                            x       y       z     vdW  Elec       q    Type
REMARK                         _______ _______ _______ _____ _____    ______ ____
ROOT
ATOM      4  O   UNL     1       1.178   2.072   1.446  0.00  0.00    -0.336 OA
ATOM      6  N   UNL     1       0.552   1.060  -0.451  0.00  0.00    -0.194 NA
ATOM      7  N   UNL     1      -0.126   2.510   1.184  0.00  0.00    -0.061 NA
ATOM     13  C   UNL     1       1.501   1.223   0.436  0.00  0.00    +0.245 A 
ATOM     16  C   UNL     1      -0.426   1.869   0.050  0.00  0.00    +0.176 A 
ENDROOT
BRANCH  13   8
ATOM      5  N   UNL     1       2.954  -0.871   0.477  0.00  0.00    -0.286 NA
ATOM      8  C   UNL     1       2.889   0.599   0.490  0.00  0.00    +0.149 C 
ATOM      9  C   UNL     1       3.799   0.952  -0.696  0.00  0.00    +0.061 C 
ATOM     10  C   UNL     1       3.714  -0.242  -1.651  0.00  0.00    +0.130 C 
ATOM     11  C   UNL     1       2.913  -1.311  -0.915  0.00  0.00    +0.116 C 
BRANCH   5  12
ATOM     12  C   UNL     1       2.021  -1.572   1.340  0.00  0.00    +0.051 C 
ATOM     14  C   UNL     1       2.115  -1.037   2.766  0.00  0.00    +0.024 C 
ATOM     15  C   UNL     1       2.315  -3.068   1.295  0.00  0.00    +0.024 C 
ENDBRANCH   5  12
BRANCH  10   3
ATOM      3  O   UNL     1       5.026  -0.707  -1.940  0.00  0.00    -0.390 OA
ATOM     24  H   UNL     1       5.500   0.017  -2.385  0.00  0.00    +0.210 HD
ENDBRANCH  10   3
ENDBRANCH  13   8
BRANCH  16  17
ATOM     17  C   UNL     1      -1.726   2.026  -0.611  0.00  0.00    +0.116 C 
BRANCH  17  18
ATOM      1 CL   UNL     1      -1.692  -0.338  -2.612  0.00  0.00    -0.083 Cl
ATOM      2  F   UNL     1      -5.378  -2.191   0.311  0.00  0.00    -0.205 F 
ATOM     18  C   UNL     1      -2.700   0.873  -0.389  0.00  0.00    -0.021 A 
ATOM     19  C   UNL     1      -2.743  -0.226  -1.248  0.00  0.00    +0.047 A 
ATOM     20  C   UNL     1      -3.562   0.936   0.706  0.00  0.00    +0.008 A 
ATOM     21  C   UNL     1      -3.647  -1.261  -1.012  0.00  0.00    +0.058 A 
ATOM     22  C   UNL     1      -4.467  -0.099   0.942  0.00  0.00    +0.039 A 
ATOM     23  C   UNL     1      -4.509  -1.197   0.083  0.00  0.00    +0.125 A 
ENDBRANCH  17  18
ENDBRANCH  16  17
TORSDOF 5
