MODEL 1
REMARK VINA RESULT:      -7.1      0.000      0.000
REMARK  Name = 45783990
REMARK  10 active torsions:
REMARK  status: ('A' for Active; 'I' for Inactive)
REMARK    1  A    between atoms: N_4  and  C_13
REMARK    2  A    between atoms: N_7  and  C_31
REMARK    3  A    between atoms: C_8  and  C_12
REMARK    4  A    between atoms: C_9  and  C_13
REMARK    5  A    between atoms: C_11  and  C_16
REMARK    6  A    between atoms: C_12  and  C_19
REMARK    7  A    between atoms: C_12  and  C_20
REMARK    8  A    between atoms: C_15  and  C_23
REMARK    9  A    between atoms: C_16  and  C_24
REMARK   10  A    between atoms: C_25  and  C_26
REMARK                            x       y       z     vdW  Elec       q    Type
REMARK                         _______ _______ _______ _____ _____    ______ ____
ROOT
ATOM      8  C   UNL     1      -5.394 -10.488  10.709  0.00  0.00    +0.000 C 
ATOM      9  C   UNL     1      -4.621 -10.163   9.408  0.00  0.00    +0.029 C 
ATOM     10  C   UNL     1      -4.468 -11.164  11.729  0.00  0.00    +0.012 C 
ATOM     11  C   UNL     1      -3.217 -10.326  12.071  0.00  0.00    +0.024 C 
ATOM     14  C   UNL     1      -3.260  -9.571   9.676  0.00  0.00    -0.023 C 
ATOM     15  C   UNL     1      -2.622  -9.623  10.859  0.00  0.00    -0.073 C 
ATOM     23  C   UNL     1      -1.303  -8.924  11.040  0.00  0.00    +0.039 C 
ENDROOT
BRANCH   8  12
ATOM     12  C   UNL     1      -6.047  -9.231  11.300  0.00  0.00    -0.013 C 
ATOM     19  C   UNL     1      -6.578  -9.517  12.700  0.00  0.00    +0.007 C 
ATOM     20  C   UNL     1      -7.165  -8.735  10.388  0.00  0.00    +0.007 C 
ENDBRANCH   8  12
BRANCH   9  13
ATOM     13  C   UNL     1      -4.467 -11.401   8.518  0.00  0.00    +0.092 C 
BRANCH  13   4
ATOM      4  N   UNL     1      -5.360 -11.324   7.372  0.00  0.00    -0.302 NA
ATOM     17  C   UNL     1      -5.783  -9.954   7.084  0.00  0.00    +0.084 C 
ATOM     18  C   UNL     1      -4.727 -11.793   6.140  0.00  0.00    +0.084 C 
ATOM     21  C   UNL     1      -6.353 -10.062   5.677  0.00  0.00    +0.017 C 
ATOM     22  C   UNL     1      -5.662 -11.272   5.057  0.00  0.00    +0.017 C 
ENDBRANCH  13   4
ENDBRANCH   9  13
BRANCH  11  16
ATOM     16  C   UNL     1      -2.208 -11.225  12.794  0.00  0.00    +0.105 C 
BRANCH  16  24
ATOM      1  O   UNL     1      -3.523 -11.288  14.849  0.00  0.00    -0.420 OA
ATOM      5  N   UNL     1      -1.373 -10.748  15.153  0.00  0.00    -0.112 NA
ATOM      6  N   UNL     1      -1.993 -10.747  16.389  0.00  0.00    -0.107 NA
ATOM     24  C   UNL     1      -2.303 -11.070  14.285  0.00  0.00    +0.218 A 
ATOM     25  C   UNL     1      -3.246 -11.067  16.164  0.00  0.00    +0.248 A 
BRANCH  25  26
ATOM     26  C   UNL     1      -4.346 -11.217  17.070  0.00  0.00    +0.039 A 
ATOM     27  C   UNL     1      -5.644 -10.932  16.644  0.00  0.00    +0.015 A 
ATOM     28  C   UNL     1      -4.121 -11.649  18.377  0.00  0.00    +0.015 A 
ATOM     29  C   UNL     1      -6.715 -11.078  17.525  0.00  0.00    +0.033 A 
ATOM     30  C   UNL     1      -5.191 -11.794  19.258  0.00  0.00    +0.033 A 
ATOM     31  C   UNL     1      -6.489 -11.508  18.833  0.00  0.00    +0.126 A 
BRANCH  31   7
ATOM      2  O   UNL     1      -7.693 -12.731  20.374  0.00  0.00    -0.126 OA
ATOM      3  O   UNL     1      -8.401 -10.720  19.852  0.00  0.00    -0.126 OA
ATOM      7  N   UNL     1      -7.580 -11.660  19.730  0.00  0.00    +0.056 N 
ENDBRANCH  31   7
ENDBRANCH  25  26
ENDBRANCH  16  24
ENDBRANCH  11  16
TORSDOF 7
ENDMDL
MODEL 2
REMARK VINA RESULT:      -6.6      3.888      8.384
REMARK  Name = 45783990
REMARK  10 active torsions:
REMARK  status: ('A' for Active; 'I' for Inactive)
REMARK    1  A    between atoms: N_4  and  C_13
REMARK    2  A    between atoms: N_7  and  C_31
REMARK    3  A    between atoms: C_8  and  C_12
REMARK    4  A    between atoms: C_9  and  C_13
REMARK    5  A    between atoms: C_11  and  C_16
REMARK    6  A    between atoms: C_12  and  C_19
REMARK    7  A    between atoms: C_12  and  C_20
REMARK    8  A    between atoms: C_15  and  C_23
REMARK    9  A    between atoms: C_16  and  C_24
REMARK   10  A    between atoms: C_25  and  C_26
REMARK                            x       y       z     vdW  Elec       q    Type
REMARK                         _______ _______ _______ _____ _____    ______ ____
ROOT
ATOM      8  C   UNL     1      -9.173  -9.293  16.152  0.00  0.00    +0.000 C 
ATOM      9  C   UNL     1     -10.397  -8.920  17.021  0.00  0.00    +0.029 C 
ATOM     10  C   UNL     1      -7.935  -9.513  17.032  0.00  0.00    +0.012 C 
ATOM     11  C   UNL     1      -8.141 -10.591  18.120  0.00  0.00    +0.024 C 
ATOM     14  C   UNL     1     -10.513  -9.777  18.256  0.00  0.00    -0.023 C 
ATOM     15  C   UNL     1      -9.522 -10.539  18.756  0.00  0.00    -0.073 C 
ATOM     23  C   UNL     1      -9.772 -11.424  19.945  0.00  0.00    +0.039 C 
ENDROOT
BRANCH   8  12
ATOM     12  C   UNL     1      -9.460 -10.524  15.280  0.00  0.00    -0.013 C 
ATOM     19  C   UNL     1      -8.263 -10.835  14.389  0.00  0.00    +0.007 C 
ATOM     20  C   UNL     1     -10.716 -10.301  14.443  0.00  0.00    +0.007 C 
ENDBRANCH   8  12
BRANCH   9  13
ATOM     13  C   UNL     1     -10.370  -7.445  17.432  0.00  0.00    +0.092 C 
BRANCH  13   4
ATOM      4  N   UNL     1     -11.331  -6.677  16.655  0.00  0.00    -0.302 NA
ATOM     17  C   UNL     1     -10.735  -6.082  15.459  0.00  0.00    +0.084 C 
ATOM     18  C   UNL     1     -12.434  -7.500  16.161  0.00  0.00    +0.084 C 
ATOM     21  C   UNL     1     -11.951  -5.686  14.634  0.00  0.00    +0.017 C 
ATOM     22  C   UNL     1     -13.068  -6.615  15.097  0.00  0.00    +0.017 C 
ENDBRANCH  13   4
ENDBRANCH   9  13
BRANCH  11  16
ATOM     16  C   UNL     1      -7.007 -10.474  19.145  0.00  0.00    +0.105 C 
BRANCH  16  24
ATOM      1  O   UNL     1      -5.485 -10.526  17.237  0.00  0.00    -0.420 OA
ATOM      5  N   UNL     1      -4.659 -11.461  19.095  0.00  0.00    -0.112 NA
ATOM      6  N   UNL     1      -3.700 -11.559  18.103  0.00  0.00    -0.107 NA
ATOM     24  C   UNL     1      -5.683 -10.851  18.544  0.00  0.00    +0.218 A 
ATOM     25  C   UNL     1      -4.225 -11.001  17.038  0.00  0.00    +0.248 A 
BRANCH  25  26
ATOM     26  C   UNL     1      -3.687 -10.818  15.722  0.00  0.00    +0.039 A 
ATOM     27  C   UNL     1      -4.542 -10.760  14.621  0.00  0.00    +0.015 A 
ATOM     28  C   UNL     1      -2.310 -10.697  15.541  0.00  0.00    +0.015 A 
ATOM     29  C   UNL     1      -4.020 -10.583  13.340  0.00  0.00    +0.033 A 
ATOM     30  C   UNL     1      -1.787 -10.520  14.261  0.00  0.00    +0.033 A 
ATOM     31  C   UNL     1      -2.642 -10.463  13.160  0.00  0.00    +0.126 A 
BRANCH  31   7
ATOM      2  O   UNL     1      -1.060  -9.605  11.717  0.00  0.00    -0.126 OA
ATOM      3  O   UNL     1      -2.705 -10.792  10.878  0.00  0.00    -0.126 OA
ATOM      7  N   UNL     1      -2.110 -10.278  11.856  0.00  0.00    +0.056 N 
ENDBRANCH  31   7
ENDBRANCH  25  26
ENDBRANCH  16  24
ENDBRANCH  11  16
TORSDOF 7
ENDMDL
MODEL 3
REMARK VINA RESULT:      -6.6     20.424     21.725
REMARK  Name = 45783990
REMARK  10 active torsions:
REMARK  status: ('A' for Active; 'I' for Inactive)
REMARK    1  A    between atoms: N_4  and  C_13
REMARK    2  A    between atoms: N_7  and  C_31
REMARK    3  A    between atoms: C_8  and  C_12
REMARK    4  A    between atoms: C_9  and  C_13
REMARK    5  A    between atoms: C_11  and  C_16
REMARK    6  A    between atoms: C_12  and  C_19
REMARK    7  A    between atoms: C_12  and  C_20
REMARK    8  A    between atoms: C_15  and  C_23
REMARK    9  A    between atoms: C_16  and  C_24
REMARK   10  A    between atoms: C_25  and  C_26
REMARK                            x       y       z     vdW  Elec       q    Type
REMARK                         _______ _______ _______ _____ _____    ______ ____
ROOT
ATOM      8  C   UNL     1     -13.089   8.823  20.067  0.00  0.00    +0.000 C 
ATOM      9  C   UNL     1     -11.765   8.028  19.959  0.00  0.00    +0.029 C 
ATOM     10  C   UNL     1     -14.291   7.869  20.046  0.00  0.00    +0.012 C 
ATOM     11  C   UNL     1     -14.243   6.798  21.157  0.00  0.00    +0.024 C 
ATOM     14  C   UNL     1     -11.752   6.803  20.838  0.00  0.00    -0.023 C 
ATOM     15  C   UNL     1     -12.844   6.246  21.392  0.00  0.00    -0.073 C 
ATOM     23  C   UNL     1     -12.707   5.074  22.324  0.00  0.00    +0.039 C 
ENDROOT
BRANCH   8  12
ATOM     12  C   UNL     1     -13.106   9.711  21.319  0.00  0.00    -0.013 C 
ATOM     19  C   UNL     1     -14.453  10.413  21.453  0.00  0.00    +0.007 C 
ATOM     20  C   UNL     1     -11.969  10.726  21.267  0.00  0.00    +0.007 C 
ENDBRANCH   8  12
BRANCH   9  13
ATOM     13  C   UNL     1     -11.472   7.615  18.513  0.00  0.00    +0.092 C 
BRANCH  13   4
ATOM      4  N   UNL     1     -11.499   8.772  17.632  0.00  0.00    -0.302 NA
ATOM     17  C   UNL     1     -10.165   9.155  17.170  0.00  0.00    +0.084 C 
ATOM     18  C   UNL     1     -12.267   8.527  16.411  0.00  0.00    +0.084 C 
ATOM     21  C   UNL     1     -10.461  10.085  16.003  0.00  0.00    +0.017 C 
ATOM     22  C   UNL     1     -11.844   9.676  15.506  0.00  0.00    +0.017 C 
ENDBRANCH  13   4
ENDBRANCH   9  13
BRANCH  11  16
ATOM     16  C   UNL     1     -15.268   5.706  20.829  0.00  0.00    +0.105 C 
BRANCH  16  24
ATOM      1  O   UNL     1     -15.892   4.456  22.830  0.00  0.00    -0.420 OA
ATOM      5  N   UNL     1     -17.310   6.103  22.299  0.00  0.00    -0.112 NA
ATOM      6  N   UNL     1     -17.781   5.485  23.442  0.00  0.00    -0.107 NA
ATOM     24  C   UNL     1     -16.206   5.470  21.978  0.00  0.00    +0.218 A 
ATOM     25  C   UNL     1     -16.923   4.531  23.716  0.00  0.00    +0.248 A 
BRANCH  25  26
ATOM     26  C   UNL     1     -16.904   3.573  24.782  0.00  0.00    +0.039 A 
ATOM     27  C   UNL     1     -16.358   3.917  26.018  0.00  0.00    +0.015 A 
ATOM     28  C   UNL     1     -17.433   2.298  24.585  0.00  0.00    +0.015 A 
ATOM     29  C   UNL     1     -16.338   2.986  27.057  0.00  0.00    +0.033 A 
ATOM     30  C   UNL     1     -17.413   1.366  25.622  0.00  0.00    +0.033 A 
ATOM     31  C   UNL     1     -16.866   1.710  26.858  0.00  0.00    +0.126 A 
BRANCH  31   7
ATOM      2  O   UNL     1     -17.914   0.171  28.219  0.00  0.00    -0.126 OA
ATOM      3  O   UNL     1     -15.772   0.544  28.520  0.00  0.00    -0.126 OA
ATOM      7  N   UNL     1     -16.849   0.763  27.916  0.00  0.00    +0.056 N 
ENDBRANCH  31   7
ENDBRANCH  25  26
ENDBRANCH  16  24
ENDBRANCH  11  16
TORSDOF 7
ENDMDL
MODEL 4
REMARK VINA RESULT:      -6.6     24.043     28.171
REMARK  Name = 45783990
REMARK  10 active torsions:
REMARK  status: ('A' for Active; 'I' for Inactive)
REMARK    1  A    between atoms: N_4  and  C_13
REMARK    2  A    between atoms: N_7  and  C_31
REMARK    3  A    between atoms: C_8  and  C_12
REMARK    4  A    between atoms: C_9  and  C_13
REMARK    5  A    between atoms: C_11  and  C_16
REMARK    6  A    between atoms: C_12  and  C_19
REMARK    7  A    between atoms: C_12  and  C_20
REMARK    8  A    between atoms: C_15  and  C_23
REMARK    9  A    between atoms: C_16  and  C_24
REMARK   10  A    between atoms: C_25  and  C_26
REMARK                            x       y       z     vdW  Elec       q    Type
REMARK                         _______ _______ _______ _____ _____    ______ ____
ROOT
ATOM      8  C   UNL     1     -10.971  10.233  31.355  0.00  0.00    +0.000 C 
ATOM      9  C   UNL     1     -10.909  11.207  32.555  0.00  0.00    +0.029 C 
ATOM     10  C   UNL     1     -11.504   8.864  31.800  0.00  0.00    +0.012 C 
ATOM     11  C   UNL     1     -12.890   8.936  32.476  0.00  0.00    +0.024 C 
ATOM     14  C   UNL     1     -12.142  11.140  33.420  0.00  0.00    -0.023 C 
ATOM     15  C   UNL     1     -13.045  10.142  33.391  0.00  0.00    -0.073 C 
ATOM     23  C   UNL     1     -14.286  10.218  34.236  0.00  0.00    +0.039 C 
ENDROOT
BRANCH   8  12
ATOM     12  C   UNL     1     -11.815  10.811  30.210  0.00  0.00    -0.013 C 
ATOM     19  C   UNL     1     -11.565  10.034  28.922  0.00  0.00    +0.007 C 
ATOM     20  C   UNL     1     -11.505  12.292  30.017  0.00  0.00    +0.007 C 
ENDBRANCH   8  12
BRANCH   9  13
ATOM     13  C   UNL     1      -9.671  10.955  33.422  0.00  0.00    +0.092 C 
BRANCH  13   4
ATOM      4  N   UNL     1      -8.512  11.645  32.877  0.00  0.00    -0.302 NA
ATOM     17  C   UNL     1      -8.831  12.997  32.419  0.00  0.00    +0.084 C 
ATOM     18  C   UNL     1      -7.449  11.821  33.867  0.00  0.00    +0.084 C 
ATOM     21  C   UNL     1      -7.459  13.640  32.272  0.00  0.00    +0.017 C 
ATOM     22  C   UNL     1      -6.550  12.865  33.220  0.00  0.00    +0.017 C 
ENDBRANCH  13   4
ENDBRANCH   9  13
BRANCH  11  16
ATOM     16  C   UNL     1     -13.156   7.606  33.191  0.00  0.00    +0.105 C 
BRANCH  16  24
ATOM      1  O   UNL     1     -13.855   5.445  32.297  0.00  0.00    -0.420 OA
ATOM      5  N   UNL     1     -15.284   7.115  31.878  0.00  0.00    -0.112 NA
ATOM      6  N   UNL     1     -15.800   5.959  31.321  0.00  0.00    -0.107 NA
ATOM     24  C   UNL     1     -14.149   6.767  32.437  0.00  0.00    +0.218 A 
ATOM     25  C   UNL     1     -14.934   5.011  31.590  0.00  0.00    +0.248 A 
BRANCH  25  26
ATOM     26  C   UNL     1     -14.947   3.616  31.260  0.00  0.00    +0.039 A 
ATOM     27  C   UNL     1     -15.029   3.216  29.926  0.00  0.00    +0.015 A 
ATOM     28  C   UNL     1     -14.879   2.659  32.272  0.00  0.00    +0.015 A 
ATOM     29  C   UNL     1     -15.043   1.859  29.604  0.00  0.00    +0.033 A 
ATOM     30  C   UNL     1     -14.893   1.302  31.951  0.00  0.00    +0.033 A 
ATOM     31  C   UNL     1     -14.976   0.902  30.617  0.00  0.00    +0.126 A 
BRANCH  31   7
ATOM      2  O   UNL     1     -14.142  -0.918  29.471  0.00  0.00    -0.126 OA
ATOM      3  O   UNL     1     -15.840  -1.225  30.827  0.00  0.00    -0.126 OA
ATOM      7  N   UNL     1     -14.986  -0.480  30.290  0.00  0.00    +0.056 N 
ENDBRANCH  31   7
ENDBRANCH  25  26
ENDBRANCH  16  24
ENDBRANCH  11  16
TORSDOF 7
ENDMDL
MODEL 5
REMARK VINA RESULT:      -6.5     20.450     22.258
REMARK  Name = 45783990
REMARK  10 active torsions:
REMARK  status: ('A' for Active; 'I' for Inactive)
REMARK    1  A    between atoms: N_4  and  C_13
REMARK    2  A    between atoms: N_7  and  C_31
REMARK    3  A    between atoms: C_8  and  C_12
REMARK    4  A    between atoms: C_9  and  C_13
REMARK    5  A    between atoms: C_11  and  C_16
REMARK    6  A    between atoms: C_12  and  C_19
REMARK    7  A    between atoms: C_12  and  C_20
REMARK    8  A    between atoms: C_15  and  C_23
REMARK    9  A    between atoms: C_16  and  C_24
REMARK   10  A    between atoms: C_25  and  C_26
REMARK                            x       y       z     vdW  Elec       q    Type
REMARK                         _______ _______ _______ _____ _____    ______ ____
ROOT
ATOM      8  C   UNL     1     -13.904   8.795  21.158  0.00  0.00    +0.000 C 
ATOM      9  C   UNL     1     -12.770   7.999  20.469  0.00  0.00    +0.029 C 
ATOM     10  C   UNL     1     -15.081   7.870  21.496  0.00  0.00    +0.012 C 
ATOM     11  C   UNL     1     -14.682   6.671  22.383  0.00  0.00    +0.024 C 
ATOM     14  C   UNL     1     -12.500   6.676  21.140  0.00  0.00    -0.023 C 
ATOM     15  C   UNL     1     -13.335   6.073  22.006  0.00  0.00    -0.073 C 
ATOM     23  C   UNL     1     -12.928   4.794  22.685  0.00  0.00    +0.039 C 
ENDROOT
BRANCH   8  12
ATOM     12  C   UNL     1     -13.394   9.524  22.409  0.00  0.00    -0.013 C 
ATOM     19  C   UNL     1     -14.563  10.096  23.204  0.00  0.00    +0.007 C 
ATOM     20  C   UNL     1     -12.414  10.626  22.019  0.00  0.00    +0.007 C 
ENDBRANCH   8  12
BRANCH   9  13
ATOM     13  C   UNL     1     -13.069   7.761  18.985  0.00  0.00    +0.092 C 
BRANCH  13   4
ATOM      4  N   UNL     1     -11.865   7.923  18.186  0.00  0.00    -0.302 NA
ATOM     17  C   UNL     1     -12.152   8.403  16.834  0.00  0.00    +0.084 C 
ATOM     18  C   UNL     1     -10.947   8.911  18.752  0.00  0.00    +0.084 C 
ATOM     21  C   UNL     1     -10.788   8.862  16.339  0.00  0.00    +0.017 C 
ATOM     22  C   UNL     1      -9.995   9.192  17.598  0.00  0.00    +0.017 C 
ENDBRANCH  13   4
ENDBRANCH   9  13
BRANCH  11  16
ATOM     16  C   UNL     1     -15.820   5.643  22.357  0.00  0.00    +0.105 C 
BRANCH  16  24
ATOM      1  O   UNL     1     -16.037   4.500  24.503  0.00  0.00    -0.420 OA
ATOM      5  N   UNL     1     -17.423   6.237  24.245  0.00  0.00    -0.112 NA
ATOM      6  N   UNL     1     -17.652   5.689  25.493  0.00  0.00    -0.107 NA
ATOM     24  C   UNL     1     -16.473   5.512  23.703  0.00  0.00    +0.218 A 
ATOM     25  C   UNL     1     -16.821   4.679  25.601  0.00  0.00    +0.248 A 
BRANCH  25  26
ATOM     26  C   UNL     1     -16.616   3.752  26.675  0.00  0.00    +0.039 A 
ATOM     27  C   UNL     1     -16.603   2.381  26.419  0.00  0.00    +0.015 A 
ATOM     28  C   UNL     1     -16.428   4.220  27.975  0.00  0.00    +0.015 A 
ATOM     29  C   UNL     1     -16.403   1.478  27.464  0.00  0.00    +0.033 A 
ATOM     30  C   UNL     1     -16.229   3.319  29.020  0.00  0.00    +0.033 A 
ATOM     31  C   UNL     1     -16.217   1.947  28.764  0.00  0.00    +0.126 A 
BRANCH  31   7
ATOM      2  O   UNL     1     -16.386  -0.160  29.686  0.00  0.00    -0.126 OA
ATOM      3  O   UNL     1     -15.460   1.432  30.881  0.00  0.00    -0.126 OA
ATOM      7  N   UNL     1     -16.010   1.029  29.828  0.00  0.00    +0.056 N 
ENDBRANCH  31   7
ENDBRANCH  25  26
ENDBRANCH  16  24
ENDBRANCH  11  16
TORSDOF 7
ENDMDL
MODEL 6
REMARK VINA RESULT:      -6.5      2.928      9.124
REMARK  Name = 45783990
REMARK  10 active torsions:
REMARK  status: ('A' for Active; 'I' for Inactive)
REMARK    1  A    between atoms: N_4  and  C_13
REMARK    2  A    between atoms: N_7  and  C_31
REMARK    3  A    between atoms: C_8  and  C_12
REMARK    4  A    between atoms: C_9  and  C_13
REMARK    5  A    between atoms: C_11  and  C_16
REMARK    6  A    between atoms: C_12  and  C_19
REMARK    7  A    between atoms: C_12  and  C_20
REMARK    8  A    between atoms: C_15  and  C_23
REMARK    9  A    between atoms: C_16  and  C_24
REMARK   10  A    between atoms: C_25  and  C_26
REMARK                            x       y       z     vdW  Elec       q    Type
REMARK                         _______ _______ _______ _____ _____    ______ ____
ROOT
ATOM      8  C   UNL     1      -7.250 -12.182  17.052  0.00  0.00    +0.000 C 
ATOM      9  C   UNL     1      -7.296 -11.938  18.579  0.00  0.00    +0.029 C 
ATOM     10  C   UNL     1      -6.093 -11.399  16.417  0.00  0.00    +0.012 C 
ATOM     11  C   UNL     1      -4.717 -11.733  17.033  0.00  0.00    +0.024 C 
ATOM     14  C   UNL     1      -5.930 -11.993  19.216  0.00  0.00    -0.023 C 
ATOM     15  C   UNL     1      -4.768 -11.915  18.542  0.00  0.00    -0.073 C 
ATOM     23  C   UNL     1      -3.460 -12.068  19.268  0.00  0.00    +0.039 C 
ENDROOT
BRANCH   8  12
ATOM     12  C   UNL     1      -7.150 -13.680  16.728  0.00  0.00    -0.013 C 
ATOM     19  C   UNL     1      -7.275 -13.907  15.226  0.00  0.00    +0.007 C 
ATOM     20  C   UNL     1      -8.221 -14.459  17.485  0.00  0.00    +0.007 C 
ENDBRANCH   8  12
BRANCH   9  13
ATOM     13  C   UNL     1      -7.957 -10.598  18.917  0.00  0.00    +0.092 C 
BRANCH  13   4
ATOM      4  N   UNL     1      -9.398 -10.676  18.742  0.00  0.00    -0.302 NA
ATOM     17  C   UNL     1     -10.118 -10.650  20.014  0.00  0.00    +0.084 C 
ATOM     18  C   UNL     1      -9.931  -9.546  17.981  0.00  0.00    +0.084 C 
ATOM     21  C   UNL     1     -11.549 -10.349  19.591  0.00  0.00    +0.017 C 
ATOM     22  C   UNL     1     -11.426  -9.627  18.253  0.00  0.00    +0.017 C 
ENDBRANCH  13   4
ENDBRANCH   9  13
BRANCH  11  16
ATOM     16  C   UNL     1      -3.712 -10.661  16.595  0.00  0.00    +0.105 C 
BRANCH  16  24
ATOM      1  O   UNL     1      -3.759 -10.786  14.157  0.00  0.00    -0.420 OA
ATOM      5  N   UNL     1      -1.869 -11.552  15.077  0.00  0.00    -0.112 NA
ATOM      6  N   UNL     1      -1.760 -11.681  13.705  0.00  0.00    -0.107 NA
ATOM     24  C   UNL     1      -3.052 -11.026  15.295  0.00  0.00    +0.218 A 
ATOM     25  C   UNL     1      -2.885 -11.221  13.209  0.00  0.00    +0.248 A 
BRANCH  25  26
ATOM     26  C   UNL     1      -3.327 -11.110  11.850  0.00  0.00    +0.039 A 
ATOM     27  C   UNL     1      -3.482  -9.851  11.269  0.00  0.00    +0.015 A 
ATOM     28  C   UNL     1      -3.603 -12.258  11.109  0.00  0.00    +0.015 A 
ATOM     29  C   UNL     1      -3.912  -9.741   9.947  0.00  0.00    +0.033 A 
ATOM     30  C   UNL     1      -4.034 -12.149   9.787  0.00  0.00    +0.033 A 
ATOM     31  C   UNL     1      -4.189 -10.890   9.206  0.00  0.00    +0.126 A 
BRANCH  31   7
ATOM      2  O   UNL     1      -4.388 -11.721   7.064  0.00  0.00    -0.126 OA
ATOM      3  O   UNL     1      -5.230  -9.742   7.499  0.00  0.00    -0.126 OA
ATOM      7  N   UNL     1      -4.624 -10.779   7.858  0.00  0.00    +0.056 N 
ENDBRANCH  31   7
ENDBRANCH  25  26
ENDBRANCH  16  24
ENDBRANCH  11  16
TORSDOF 7
ENDMDL
MODEL 7
REMARK VINA RESULT:      -6.4      3.232      6.300
REMARK  Name = 45783990
REMARK  10 active torsions:
REMARK  status: ('A' for Active; 'I' for Inactive)
REMARK    1  A    between atoms: N_4  and  C_13
REMARK    2  A    between atoms: N_7  and  C_31
REMARK    3  A    between atoms: C_8  and  C_12
REMARK    4  A    between atoms: C_9  and  C_13
REMARK    5  A    between atoms: C_11  and  C_16
REMARK    6  A    between atoms: C_12  and  C_19
REMARK    7  A    between atoms: C_12  and  C_20
REMARK    8  A    between atoms: C_15  and  C_23
REMARK    9  A    between atoms: C_16  and  C_24
REMARK   10  A    between atoms: C_25  and  C_26
REMARK                            x       y       z     vdW  Elec       q    Type
REMARK                         _______ _______ _______ _____ _____    ______ ____
ROOT
ATOM      8  C   UNL     1      -3.796 -10.464  15.426  0.00  0.00    +0.000 C 
ATOM      9  C   UNL     1      -4.897 -11.258  14.685  0.00  0.00    +0.029 C 
ATOM     10  C   UNL     1      -4.069 -10.447  16.937  0.00  0.00    +0.012 C 
ATOM     11  C   UNL     1      -4.189 -11.858  17.553  0.00  0.00    +0.024 C 
ATOM     14  C   UNL     1      -5.254 -12.545  15.385  0.00  0.00    -0.023 C 
ATOM     15  C   UNL     1      -4.937 -12.836  16.660  0.00  0.00    -0.073 C 
ATOM     23  C   UNL     1      -5.267 -14.186  17.234  0.00  0.00    +0.039 C 
ENDROOT
BRANCH   8  12
ATOM     12  C   UNL     1      -2.400 -11.027  15.121  0.00  0.00    -0.013 C 
ATOM     19  C   UNL     1      -1.331 -10.219  15.850  0.00  0.00    +0.007 C 
ATOM     20  C   UNL     1      -2.146 -11.029  13.617  0.00  0.00    +0.007 C 
ENDBRANCH   8  12
BRANCH   9  13
ATOM     13  C   UNL     1      -6.165 -10.419  14.493  0.00  0.00    +0.092 C 
BRANCH  13   4
ATOM      4  N   UNL     1      -6.140  -9.736  13.209  0.00  0.00    -0.302 NA
ATOM     17  C   UNL     1      -5.487 -10.527  12.168  0.00  0.00    +0.084 C 
ATOM     18  C   UNL     1      -7.482  -9.464  12.695  0.00  0.00    +0.084 C 
ATOM     21  C   UNL     1      -5.915  -9.824  10.887  0.00  0.00    +0.017 C 
ATOM     22  C   UNL     1      -7.224  -9.123  11.234  0.00  0.00    +0.017 C 
ENDBRANCH  13   4
ENDBRANCH   9  13
BRANCH  11  16
ATOM     16  C   UNL     1      -4.809 -11.730  18.950  0.00  0.00    +0.105 C 
BRANCH  16  24
ATOM      1  O   UNL     1      -6.825 -10.543  18.255  0.00  0.00    -0.420 OA
ATOM      5  N   UNL     1      -7.218 -12.462  19.336  0.00  0.00    -0.112 NA
ATOM      6  N   UNL     1      -8.437 -11.900  19.004  0.00  0.00    -0.107 NA
ATOM     24  C   UNL     1      -6.306 -11.636  18.879  0.00  0.00    +0.218 A 
ATOM     25  C   UNL     1      -8.160 -10.782  18.375  0.00  0.00    +0.248 A 
BRANCH  25  26
ATOM     26  C   UNL     1      -9.028  -9.794  17.805  0.00  0.00    +0.039 A 
ATOM     27  C   UNL     1     -10.371  -9.748  18.179  0.00  0.00    +0.015 A 
ATOM     28  C   UNL     1      -8.530  -8.878  16.878  0.00  0.00    +0.015 A 
ATOM     29  C   UNL     1     -11.217  -8.787  17.625  0.00  0.00    +0.033 A 
ATOM     30  C   UNL     1      -9.375  -7.918  16.324  0.00  0.00    +0.033 A 
ATOM     31  C   UNL     1     -10.719  -7.872  16.697  0.00  0.00    +0.126 A 
BRANCH  31   7
ATOM      2  O   UNL     1     -12.818  -7.078  16.169  0.00  0.00    -0.126 OA
ATOM      3  O   UNL     1     -11.074  -5.865  15.619  0.00  0.00    -0.126 OA
ATOM      7  N   UNL     1     -11.578  -6.891  16.135  0.00  0.00    +0.056 N 
ENDBRANCH  31   7
ENDBRANCH  25  26
ENDBRANCH  16  24
ENDBRANCH  11  16
TORSDOF 7
ENDMDL
MODEL 8
REMARK VINA RESULT:      -6.4      3.474      6.185
REMARK  Name = 45783990
REMARK  10 active torsions:
REMARK  status: ('A' for Active; 'I' for Inactive)
REMARK    1  A    between atoms: N_4  and  C_13
REMARK    2  A    between atoms: N_7  and  C_31
REMARK    3  A    between atoms: C_8  and  C_12
REMARK    4  A    between atoms: C_9  and  C_13
REMARK    5  A    between atoms: C_11  and  C_16
REMARK    6  A    between atoms: C_12  and  C_19
REMARK    7  A    between atoms: C_12  and  C_20
REMARK    8  A    between atoms: C_15  and  C_23
REMARK    9  A    between atoms: C_16  and  C_24
REMARK   10  A    between atoms: C_25  and  C_26
REMARK                            x       y       z     vdW  Elec       q    Type
REMARK                         _______ _______ _______ _____ _____    ______ ____
ROOT
ATOM      8  C   UNL     1      -3.386 -10.712  14.993  0.00  0.00    +0.000 C 
ATOM      9  C   UNL     1      -4.395 -11.618  14.249  0.00  0.00    +0.029 C 
ATOM     10  C   UNL     1      -3.979 -10.223  16.322  0.00  0.00    +0.012 C 
ATOM     11  C   UNL     1      -4.423 -11.372  17.253  0.00  0.00    +0.024 C 
ATOM     14  C   UNL     1      -5.069 -12.608  15.165  0.00  0.00    -0.023 C 
ATOM     15  C   UNL     1      -5.083 -12.523  16.508  0.00  0.00    -0.073 C 
ATOM     23  C   UNL     1      -5.711 -13.613  17.331  0.00  0.00    +0.039 C 
ENDROOT
BRANCH   8  12
ATOM     12  C   UNL     1      -2.047 -11.431  15.214  0.00  0.00    -0.013 C 
ATOM     19  C   UNL     1      -0.979 -10.438  15.661  0.00  0.00    +0.007 C 
ATOM     20  C   UNL     1      -1.616 -12.154  13.942  0.00  0.00    +0.007 C 
ENDBRANCH   8  12
BRANCH   9  13
ATOM     13  C   UNL     1      -5.464 -10.795  13.522  0.00  0.00    +0.092 C 
BRANCH  13   4
ATOM      4  N   UNL     1      -4.851  -9.892  12.561  0.00  0.00    -0.302 NA
ATOM     17  C   UNL     1      -4.125 -10.603  11.510  0.00  0.00    +0.084 C 
ATOM     18  C   UNL     1      -5.838  -9.076  11.854  0.00  0.00    +0.084 C 
ATOM     21  C   UNL     1      -3.921  -9.530  10.449  0.00  0.00    +0.017 C 
ATOM     22  C   UNL     1      -5.045  -8.525  10.677  0.00  0.00    +0.017 C 
ENDBRANCH  13   4
ENDBRANCH   9  13
BRANCH  11  16
ATOM     16  C   UNL     1      -5.311 -10.790  18.359  0.00  0.00    +0.105 C 
BRANCH  16  24
ATOM      1  O   UNL     1      -7.715 -10.392  18.505  0.00  0.00    -0.420 OA
ATOM      5  N   UNL     1      -6.745  -9.494  16.699  0.00  0.00    -0.112 NA
ATOM      6  N   UNL     1      -8.094  -9.193  16.655  0.00  0.00    -0.107 NA
ATOM     24  C   UNL     1      -6.570 -10.194  17.796  0.00  0.00    +0.218 A 
ATOM     25  C   UNL     1      -8.620  -9.737  17.727  0.00  0.00    +0.248 A 
BRANCH  25  26
ATOM     26  C   UNL     1      -9.974  -9.747  18.197  0.00  0.00    +0.039 A 
ATOM     27  C   UNL     1     -10.286 -10.362  19.410  0.00  0.00    +0.015 A 
ATOM     28  C   UNL     1     -10.980  -9.143  17.443  0.00  0.00    +0.015 A 
ATOM     29  C   UNL     1     -11.604 -10.373  19.868  0.00  0.00    +0.033 A 
ATOM     30  C   UNL     1     -12.297  -9.154  17.900  0.00  0.00    +0.033 A 
ATOM     31  C   UNL     1     -12.609  -9.769  19.113  0.00  0.00    +0.126 A 
BRANCH  31   7
ATOM      2  O   UNL     1     -14.182 -10.147  20.757  0.00  0.00    -0.126 OA
ATOM      3  O   UNL     1     -14.867  -9.416  18.804  0.00  0.00    -0.126 OA
ATOM      7  N   UNL     1     -13.950  -9.777  19.581  0.00  0.00    +0.056 N 
ENDBRANCH  31   7
ENDBRANCH  25  26
ENDBRANCH  16  24
ENDBRANCH  11  16
TORSDOF 7
ENDMDL
MODEL 9
REMARK VINA RESULT:      -6.4      1.448      1.984
REMARK  Name = 45783990
REMARK  10 active torsions:
REMARK  status: ('A' for Active; 'I' for Inactive)
REMARK    1  A    between atoms: N_4  and  C_13
REMARK    2  A    between atoms: N_7  and  C_31
REMARK    3  A    between atoms: C_8  and  C_12
REMARK    4  A    between atoms: C_9  and  C_13
REMARK    5  A    between atoms: C_11  and  C_16
REMARK    6  A    between atoms: C_12  and  C_19
REMARK    7  A    between atoms: C_12  and  C_20
REMARK    8  A    between atoms: C_15  and  C_23
REMARK    9  A    between atoms: C_16  and  C_24
REMARK   10  A    between atoms: C_25  and  C_26
REMARK                            x       y       z     vdW  Elec       q    Type
REMARK                         _______ _______ _______ _____ _____    ______ ____
ROOT
ATOM      8  C   UNL     1      -6.183 -11.652   9.137  0.00  0.00    +0.000 C 
ATOM      9  C   UNL     1      -5.501 -10.844   8.007  0.00  0.00    +0.029 C 
ATOM     10  C   UNL     1      -5.136 -12.179  10.128  0.00  0.00    +0.012 C 
ATOM     11  C   UNL     1      -4.263 -11.065  10.747  0.00  0.00    +0.024 C 
ATOM     14  C   UNL     1      -4.438  -9.909   8.524  0.00  0.00    -0.023 C 
ATOM     15  C   UNL     1      -3.882  -9.983   9.748  0.00  0.00    -0.073 C 
ATOM     23  C   UNL     1      -2.890  -8.945  10.194  0.00  0.00    +0.039 C 
ENDROOT
BRANCH   8  12
ATOM     12  C   UNL     1      -7.254 -10.817   9.853  0.00  0.00    -0.013 C 
ATOM     19  C   UNL     1      -8.030 -11.683  10.840  0.00  0.00    +0.007 C 
ATOM     20  C   UNL     1      -8.195 -10.177   8.838  0.00  0.00    +0.007 C 
ENDBRANCH   8  12
BRANCH   9  13
ATOM     13  C   UNL     1      -4.891 -11.764   6.945  0.00  0.00    +0.092 C 
BRANCH  13   4
ATOM      4  N   UNL     1      -5.766 -11.865   5.787  0.00  0.00    -0.302 NA
ATOM     17  C   UNL     1      -6.434 -10.601   5.480  0.00  0.00    +0.084 C 
ATOM     18  C   UNL     1      -5.040 -12.217   4.567  0.00  0.00    +0.084 C 
ATOM     21  C   UNL     1      -6.955 -10.825   4.068  0.00  0.00    +0.017 C 
ATOM     22  C   UNL     1      -6.042 -11.889   3.469  0.00  0.00    +0.017 C 
ENDBRANCH  13   4
ENDBRANCH   9  13
BRANCH  11  16
ATOM     16  C   UNL     1      -3.047 -11.713  11.419  0.00  0.00    +0.105 C 
BRANCH  16  24
ATOM      1  O   UNL     1      -3.902 -11.298  13.667  0.00  0.00    -0.420 OA
ATOM      5  N   UNL     1      -1.789 -10.635  13.354  0.00  0.00    -0.112 NA
ATOM      6  N   UNL     1      -2.140 -10.342  14.659  0.00  0.00    -0.107 NA
ATOM     24  C   UNL     1      -2.847 -11.192  12.814  0.00  0.00    +0.218 A 
ATOM     25  C   UNL     1      -3.381 -10.747  14.797  0.00  0.00    +0.248 A 
BRANCH  25  26
ATOM     26  C   UNL     1      -4.256 -10.698  15.932  0.00  0.00    +0.039 A 
ATOM     27  C   UNL     1      -3.878 -11.307  17.129  0.00  0.00    +0.015 A 
ATOM     28  C   UNL     1      -5.483 -10.042  15.840  0.00  0.00    +0.015 A 
ATOM     29  C   UNL     1      -4.729 -11.260  18.234  0.00  0.00    +0.033 A 
ATOM     30  C   UNL     1      -6.334  -9.995  16.943  0.00  0.00    +0.033 A 
ATOM     31  C   UNL     1      -5.957 -10.605  18.141  0.00  0.00    +0.126 A 
BRANCH  31   7
ATOM      2  O   UNL     1      -6.331 -10.343  20.401  0.00  0.00    -0.126 OA
ATOM      3  O   UNL     1      -8.053 -10.723  19.095  0.00  0.00    -0.126 OA
ATOM      7  N   UNL     1      -6.822 -10.554  19.266  0.00  0.00    +0.056 N 
ENDBRANCH  31   7
ENDBRANCH  25  26
ENDBRANCH  16  24
ENDBRANCH  11  16
TORSDOF 7
ENDMDL
MODEL 10
REMARK VINA RESULT:      -6.4     21.671     26.265
REMARK  Name = 45783990
REMARK  10 active torsions:
REMARK  status: ('A' for Active; 'I' for Inactive)
REMARK    1  A    between atoms: N_4  and  C_13
REMARK    2  A    between atoms: N_7  and  C_31
REMARK    3  A    between atoms: C_8  and  C_12
REMARK    4  A    between atoms: C_9  and  C_13
REMARK    5  A    between atoms: C_11  and  C_16
REMARK    6  A    between atoms: C_12  and  C_19
REMARK    7  A    between atoms: C_12  and  C_20
REMARK    8  A    between atoms: C_15  and  C_23
REMARK    9  A    between atoms: C_16  and  C_24
REMARK   10  A    between atoms: C_25  and  C_26
REMARK                            x       y       z     vdW  Elec       q    Type
REMARK                         _______ _______ _______ _____ _____    ______ ____
ROOT
ATOM      8  C   UNL     1     -15.758   5.466  31.845  0.00  0.00    +0.000 C 
ATOM      9  C   UNL     1     -14.803   5.482  33.062  0.00  0.00    +0.029 C 
ATOM     10  C   UNL     1     -15.395   4.318  30.893  0.00  0.00    +0.012 C 
ATOM     11  C   UNL     1     -15.405   2.932  31.572  0.00  0.00    +0.024 C 
ATOM     14  C   UNL     1     -14.558   4.105  33.625  0.00  0.00    -0.023 C 
ATOM     15  C   UNL     1     -14.832   2.955  32.981  0.00  0.00    -0.073 C 
ATOM     23  C   UNL     1     -14.629   1.634  33.670  0.00  0.00    +0.039 C 
ENDROOT
BRANCH   8  12
ATOM     12  C   UNL     1     -17.225   5.378  32.287  0.00  0.00    -0.013 C 
ATOM     19  C   UNL     1     -18.152   5.587  31.095  0.00  0.00    +0.007 C 
ATOM     20  C   UNL     1     -17.512   6.399  33.383  0.00  0.00    +0.007 C 
ENDBRANCH   8  12
BRANCH   9  13
ATOM     13  C   UNL     1     -13.459   6.132  32.717  0.00  0.00    +0.092 C 
BRANCH  13   4
ATOM      4  N   UNL     1     -13.427   7.516  33.161  0.00  0.00    -0.302 NA
ATOM     17  C   UNL     1     -13.189   7.636  34.599  0.00  0.00    +0.084 C 
ATOM     18  C   UNL     1     -12.350   8.280  32.533  0.00  0.00    +0.084 C 
ATOM     21  C   UNL     1     -12.812   9.102  34.761  0.00  0.00    +0.017 C 
ATOM     22  C   UNL     1     -12.264   9.526  33.403  0.00  0.00    +0.017 C 
ENDBRANCH  13   4
ENDBRANCH   9  13
BRANCH  11  16
ATOM     16  C   UNL     1     -14.693   1.932  30.654  0.00  0.00    +0.105 C 
BRANCH  16  24
ATOM      1  O   UNL     1     -15.537   2.249  28.386  0.00  0.00    -0.420 OA
ATOM      5  N   UNL     1     -16.409   0.484  29.450  0.00  0.00    -0.112 NA
ATOM      6  N   UNL     1     -16.970   0.543  28.188  0.00  0.00    -0.107 NA
ATOM     24  C   UNL     1     -15.579   1.498  29.521  0.00  0.00    +0.218 A 
ATOM     25  C   UNL     1     -16.433   1.588  27.603  0.00  0.00    +0.248 A 
BRANCH  25  26
ATOM     26  C   UNL     1     -16.639   2.130  26.292  0.00  0.00    +0.039 A 
ATOM     27  C   UNL     1     -17.343   1.396  25.337  0.00  0.00    +0.015 A 
ATOM     28  C   UNL     1     -16.137   3.391  25.971  0.00  0.00    +0.015 A 
ATOM     29  C   UNL     1     -17.544   1.923  24.061  0.00  0.00    +0.033 A 
ATOM     30  C   UNL     1     -16.337   3.918  24.696  0.00  0.00    +0.033 A 
ATOM     31  C   UNL     1     -17.040   3.183  23.740  0.00  0.00    +0.126 A 
BRANCH  31   7
ATOM      2  O   UNL     1     -17.778   3.001  21.563  0.00  0.00    -0.126 OA
ATOM      3  O   UNL     1     -16.893   4.902  22.210  0.00  0.00    -0.126 OA
ATOM      7  N   UNL     1     -17.248   3.721  22.442  0.00  0.00    +0.056 N 
ENDBRANCH  31   7
ENDBRANCH  25  26
ENDBRANCH  16  24
ENDBRANCH  11  16
TORSDOF 7
ENDMDL
