REMARK  Name = 11884103
REMARK  9 active torsions:
REMARK  status: ('A' for Active; 'I' for Inactive)
REMARK    1  A    between atoms: O_3  and  C_12
REMARK    2  A    between atoms: O_3  and  C_16
REMARK    3  A    between atoms: N_6  and  C_11
REMARK    4  A    between atoms: N_7  and  C_17
REMARK    5  A    between atoms: N_8  and  C_18
REMARK    6  A    between atoms: C_17  and  C_19
REMARK    7  A    between atoms: C_22  and  C_23
REMARK    8  A    between atoms: C_23  and  C_28
REMARK    9  A    between atoms: C_23  and  C_29
REMARK                            x       y       z     vdW  Elec       q    Type
REMARK                         _______ _______ _______ _____ _____    ______ ____
ROOT
ATOM      1  O   UNL     1      -0.343   2.193   1.159  0.00  0.00    -0.368 OA
ATOM      2  O   UNL     1      -1.516   2.961  -1.569  0.00  0.00    -0.368 OA
ATOM      9  C   UNL     1      -1.826   1.880  -0.664  0.00  0.00    +0.173 C 
ATOM     10  C   UNL     1      -0.516   1.433  -0.048  0.00  0.00    +0.192 C 
ATOM     11  C   UNL     1      -2.621   2.399   0.511  0.00  0.00    +0.131 C 
ATOM     12  C   UNL     1       0.491   1.821  -1.104  0.00  0.00    +0.235 C 
ATOM     13  C   UNL     1      -1.533   2.954   1.415  0.00  0.00    +0.185 C 
ATOM     14  C   UNL     1      -0.090   3.111  -1.640  0.00  0.00    +0.207 C 
ENDROOT
BRANCH  11   6
ATOM      4  O   UNL     1      -5.364   1.636   0.042  0.00  0.00    -0.253 OA
ATOM      6  N   UNL     1      -3.351   1.337   1.159  0.00  0.00    -0.292 N 
ATOM      7  N   UNL     1      -5.138  -0.032   1.638  0.00  0.00    -0.295 N 
ATOM     15  C   UNL     1      -4.681   1.036   0.870  0.00  0.00    +0.300 C 
ATOM     33  H   UNL     1      -2.856   0.738   1.813  0.00  0.00    +0.151 HD
ATOM     34  H   UNL     1      -4.494  -0.481   2.282  0.00  0.00    +0.151 HD
BRANCH   7  17
ATOM     17  C   UNL     1      -6.482  -0.549   1.538  0.00  0.00    +0.141 C 
BRANCH  17  19
ATOM     19  C   UNL     1      -6.589  -1.639   0.511  0.00  0.00    -0.030 A 
ATOM     26  C   UNL     1      -6.892  -1.323  -0.813  0.00  0.00    +0.005 A 
ATOM     27  C   UNL     1      -6.385  -2.969   0.881  0.00  0.00    +0.005 A 
ATOM     30  C   UNL     1      -6.992  -2.335  -1.767  0.00  0.00    +0.000 A 
ATOM     31  C   UNL     1      -6.485  -3.981  -0.073  0.00  0.00    +0.000 A 
ATOM     32  C   UNL     1      -6.788  -3.665  -1.397  0.00  0.00    +0.000 A 
ENDBRANCH  17  19
ENDBRANCH   7  17
ENDBRANCH  11   6
BRANCH  12   3
ATOM      3  O   UNL     1       1.796   1.996  -0.600  0.00  0.00    -0.442 OA
BRANCH   3  16
ATOM      5  O   UNL     1       2.286  -0.180  -1.104  0.00  0.00    -0.226 OA
ATOM      8  N   UNL     1       3.866   1.241  -0.122  0.00  0.00    -0.251 N 
ATOM     16  C   UNL     1       2.635   0.902  -0.649  0.00  0.00    +0.405 C 
ATOM     35  H   UNL     1       3.966   2.197   0.209  0.00  0.00    +0.158 HD
BRANCH   8  18
ATOM     18  C   UNL     1       5.009   0.420   0.018  0.00  0.00    +0.036 A 
ATOM     20  C   UNL     1       4.969  -0.908  -0.406  0.00  0.00    +0.024 A 
ATOM     21  C   UNL     1       6.175   0.939   0.579  0.00  0.00    +0.024 A 
ATOM     22  C   UNL     1       7.263  -1.199   0.293  0.00  0.00    -0.045 A 
ATOM     24  C   UNL     1       6.097  -1.718  -0.269  0.00  0.00    +0.006 A 
ATOM     25  C   UNL     1       7.303   0.129   0.717  0.00  0.00    +0.006 A 
BRANCH  22  23
ATOM     23  C   UNL     1       8.469  -2.064   0.439  0.00  0.00    +0.013 C 
ATOM     28  C   UNL     1       9.008  -2.558  -0.917  0.00  0.00    +0.012 C 
ATOM     29  C   UNL     1       8.223  -3.266   1.372  0.00  0.00    +0.012 C 
ENDBRANCH  22  23
ENDBRANCH   8  18
ENDBRANCH   3  16
ENDBRANCH  12   3
TORSDOF 7
