MODEL 1
REMARK VINA RESULT:      -7.0      0.000      0.000
REMARK  Name = 7143918
REMARK  6 active torsions:
REMARK  status: ('A' for Active; 'I' for Inactive)
REMARK    1  A    between atoms: S_2  and  N_7
REMARK    2  A    between atoms: S_2  and  C_21
REMARK    3  A    between atoms: N_9  and  C_27
REMARK    4  A    between atoms: C_19  and  C_24
REMARK    5  A    between atoms: C_28  and  C_29
REMARK    6  A    between atoms: C_32  and  C_35
REMARK                            x       y       z     vdW  Elec       q    Type
REMARK                         _______ _______ _______ _____ _____    ______ ____
ROOT
ATOM      5  O   UNL     1      -6.668 -10.125  14.125  0.00  0.00    -0.267 OA
ATOM      7  N   UNL     1      -2.824 -13.185  13.341  0.00  0.00    -0.176 NA
ATOM      8  N   UNL     1      -4.375 -10.546  14.129  0.00  0.00    -0.311 N 
ATOM     10  C   UNL     1      -3.074 -11.099  11.991  0.00  0.00    +0.025 C 
ATOM     11  C   UNL     1      -1.902 -11.022  14.148  0.00  0.00    +0.052 C 
ATOM     12  C   UNL     1      -1.890 -10.481  12.721  0.00  0.00    +0.017 C 
ATOM     13  C   UNL     1      -2.950 -12.631  11.962  0.00  0.00    +0.114 C 
ATOM     14  C   UNL     1      -1.719 -12.551  14.119  0.00  0.00    +0.119 C 
ATOM     15  C   UNL     1      -4.373 -10.631  12.662  0.00  0.00    +0.130 C 
ATOM     16  C   UNL     1      -3.190 -10.657  14.860  0.00  0.00    +0.026 A 
ATOM     17  C   UNL     1      -3.200 -10.463  16.188  0.00  0.00    +0.022 A 
ATOM     18  C   UNL     1      -5.608 -10.248  14.743  0.00  0.00    +0.259 A 
ATOM     19  C   UNL     1      -5.592 -10.062  16.237  0.00  0.00    +0.040 A 
ATOM     20  C   UNL     1      -4.421 -10.164  16.880  0.00  0.00    +0.015 A 
ENDROOT
BRANCH   7   2
ATOM      2  S   UNL     1      -2.934 -14.889  13.465  0.00  0.00    +0.061 S 
ATOM      3  O   UNL     1      -1.726 -15.399  14.076  0.00  0.00    -0.153 OA
ATOM      4  O   UNL     1      -3.417 -15.423  12.209  0.00  0.00    -0.153 OA
BRANCH   2  21
ATOM     21  C   UNL     1      -4.237 -15.029  14.649  0.00  0.00    +0.106 A 
ATOM     22  C   UNL     1      -4.965 -16.205  14.718  0.00  0.00    +0.030 A 
ATOM     23  C   UNL     1      -4.508 -13.961  15.488  0.00  0.00    +0.030 A 
ATOM     25  C   UNL     1      -5.995 -16.315  15.654  0.00  0.00    +0.025 A 
ATOM     26  C   UNL     1      -5.536 -14.071  16.423  0.00  0.00    +0.025 A 
ATOM     27  C   UNL     1      -6.280 -15.249  16.506  0.00  0.00    +0.033 A 
BRANCH  27   9
ATOM      6  O   UNL     1      -8.949 -13.863  16.648  0.00  0.00    -0.276 OA
ATOM      9  N   UNL     1      -7.309 -15.359  17.442  0.00  0.00    -0.286 N 
ATOM     32  C   UNL     1      -8.537 -14.685  17.460  0.00  0.00    +0.214 C 
ATOM     35  C   UNL     1      -9.378 -15.086  18.646  0.00  0.00    +0.109 C 
ATOM     37  H   UNL     1      -7.137 -16.013  18.201  0.00  0.00    +0.155 HD
ENDBRANCH  27   9
ENDBRANCH   2  21
ENDBRANCH   7   2
BRANCH  19  24
ATOM     24  C   UNL     1      -6.816  -9.772  16.940  0.00  0.00    +0.014 C 
ATOM     28  C   UNL     1      -7.560 -10.719  17.525  0.00  0.00    +0.008 C 
BRANCH  28  29
ATOM      1 CL   UNL     1     -12.665  -9.723  20.446  0.00  0.00    -0.084 Cl
ATOM     29  C   UNL     1      -8.822 -10.473  18.247  0.00  0.00    -0.025 A 
ATOM     30  C   UNL     1      -9.748  -9.591  17.713  0.00  0.00    +0.009 A 
ATOM     31  C   UNL     1      -9.057 -11.128  19.444  0.00  0.00    +0.009 A 
ATOM     33  C   UNL     1     -10.942  -9.358  18.395  0.00  0.00    +0.020 A 
ATOM     34  C   UNL     1     -10.251 -10.894  20.128  0.00  0.00    +0.020 A 
ATOM     36  C   UNL     1     -11.193 -10.010  19.604  0.00  0.00    +0.041 A 
ENDBRANCH  28  29
ENDBRANCH  19  24
TORSDOF 5
ENDMDL
MODEL 2
REMARK VINA RESULT:      -7.0     28.931     32.167
REMARK  Name = 7143918
REMARK  6 active torsions:
REMARK  status: ('A' for Active; 'I' for Inactive)
REMARK    1  A    between atoms: S_2  and  N_7
REMARK    2  A    between atoms: S_2  and  C_21
REMARK    3  A    between atoms: N_9  and  C_27
REMARK    4  A    between atoms: C_19  and  C_24
REMARK    5  A    between atoms: C_28  and  C_29
REMARK    6  A    between atoms: C_32  and  C_35
REMARK                            x       y       z     vdW  Elec       q    Type
REMARK                         _______ _______ _______ _____ _____    ______ ____
ROOT
ATOM      5  O   UNL     1      15.827   6.315  18.698  0.00  0.00    -0.267 OA
ATOM      7  N   UNL     1      13.276  10.584  18.520  0.00  0.00    -0.176 NA
ATOM      8  N   UNL     1      14.049   7.648  19.402  0.00  0.00    -0.311 N 
ATOM     10  C   UNL     1      12.208   8.442  17.806  0.00  0.00    +0.025 C 
ATOM     11  C   UNL     1      12.144   9.107  20.170  0.00  0.00    +0.052 C 
ATOM     12  C   UNL     1      11.332   8.460  19.051  0.00  0.00    +0.017 C 
ATOM     13  C   UNL     1      12.596   9.874  17.399  0.00  0.00    +0.114 C 
ATOM     14  C   UNL     1      12.483  10.559  19.785  0.00  0.00    +0.119 C 
ATOM     15  C   UNL     1      13.433   7.557  18.071  0.00  0.00    +0.130 C 
ATOM     16  C   UNL     1      13.413   8.324  20.446  0.00  0.00    +0.026 A 
ATOM     17  C   UNL     1      13.938   8.298  21.682  0.00  0.00    +0.022 A 
ATOM     18  C   UNL     1      15.251   6.937  19.593  0.00  0.00    +0.259 A 
ATOM     19  C   UNL     1      15.829   6.947  20.983  0.00  0.00    +0.040 A 
ATOM     20  C   UNL     1      15.164   7.599  21.946  0.00  0.00    +0.015 A 
ENDROOT
BRANCH   7   2
ATOM      2  S   UNL     1      13.985  12.089  18.119  0.00  0.00    +0.061 S 
ATOM      3  O   UNL     1      13.281  13.145  18.816  0.00  0.00    -0.153 OA
ATOM      4  O   UNL     1      14.187  12.148  16.687  0.00  0.00    -0.153 OA
BRANCH   2  21
ATOM     21  C   UNL     1      15.565  11.901  18.883  0.00  0.00    +0.106 A 
ATOM     22  C   UNL     1      16.580  12.790  18.568  0.00  0.00    +0.030 A 
ATOM     23  C   UNL     1      15.764  10.867  19.782  0.00  0.00    +0.030 A 
ATOM     25  C   UNL     1      17.829  12.640  19.172  0.00  0.00    +0.025 A 
ATOM     26  C   UNL     1      17.012  10.718  20.386  0.00  0.00    +0.025 A 
ATOM     27  C   UNL     1      18.046  11.605  20.081  0.00  0.00    +0.033 A 
BRANCH  27   9
ATOM      6  O   UNL     1      18.868  11.885  22.963  0.00  0.00    -0.276 OA
ATOM      9  N   UNL     1      19.294  11.456  20.684  0.00  0.00    -0.286 N 
ATOM     32  C   UNL     1      19.622  11.599  22.039  0.00  0.00    +0.214 C 
ATOM     35  C   UNL     1      21.090  11.352  22.288  0.00  0.00    +0.109 C 
ATOM     37  H   UNL     1      20.054  11.211  20.054  0.00  0.00    +0.155 HD
ENDBRANCH  27   9
ENDBRANCH   2  21
ENDBRANCH   7   2
BRANCH  19  24
ATOM     24  C   UNL     1      17.065   6.257  21.253  0.00  0.00    +0.014 C 
ATOM     28  C   UNL     1      18.261   6.852  21.176  0.00  0.00    +0.008 C 
BRANCH  28  29
ATOM      1 CL   UNL     1      23.482   4.163  22.222  0.00  0.00    -0.084 Cl
ATOM     29  C   UNL     1      19.551   6.188  21.434  0.00  0.00    -0.025 A 
ATOM     30  C   UNL     1      20.255   6.497  22.587  0.00  0.00    +0.009 A 
ATOM     31  C   UNL     1      20.035   5.267  20.520  0.00  0.00    +0.009 A 
ATOM     33  C   UNL     1      21.475   5.868  22.833  0.00  0.00    +0.020 A 
ATOM     34  C   UNL     1      21.257   4.638  20.764  0.00  0.00    +0.020 A 
ATOM     36  C   UNL     1      21.977   4.939  21.920  0.00  0.00    +0.041 A 
ENDBRANCH  28  29
ENDBRANCH  19  24
TORSDOF 5
ENDMDL
MODEL 3
REMARK VINA RESULT:      -7.0     25.519     29.496
REMARK  Name = 7143918
REMARK  6 active torsions:
REMARK  status: ('A' for Active; 'I' for Inactive)
REMARK    1  A    between atoms: S_2  and  N_7
REMARK    2  A    between atoms: S_2  and  C_21
REMARK    3  A    between atoms: N_9  and  C_27
REMARK    4  A    between atoms: C_19  and  C_24
REMARK    5  A    between atoms: C_28  and  C_29
REMARK    6  A    between atoms: C_32  and  C_35
REMARK                            x       y       z     vdW  Elec       q    Type
REMARK                         _______ _______ _______ _____ _____    ______ ____
ROOT
ATOM      5  O   UNL     1      12.009   2.968   2.266  0.00  0.00    -0.267 OA
ATOM      7  N   UNL     1      14.355   5.813  -1.074  0.00  0.00    -0.176 NA
ATOM      8  N   UNL     1      11.987   4.250   0.320  0.00  0.00    -0.311 N 
ATOM     10  C   UNL     1      13.357   3.627  -1.754  0.00  0.00    +0.025 C 
ATOM     11  C   UNL     1      11.973   5.655  -1.771  0.00  0.00    +0.052 C 
ATOM     12  C   UNL     1      12.265   4.359  -2.521  0.00  0.00    +0.017 C 
ATOM     13  C   UNL     1      14.634   4.481  -1.684  0.00  0.00    +0.114 C 
ATOM     14  C   UNL     1      13.237   6.535  -1.752  0.00  0.00    +0.119 C 
ATOM     15  C   UNL     1      12.825   3.255  -0.363  0.00  0.00    +0.130 C 
ATOM     16  C   UNL     1      11.504   5.373  -0.356  0.00  0.00    +0.026 A 
ATOM     17  C   UNL     1      10.648   6.208   0.254  0.00  0.00    +0.022 A 
ATOM     18  C   UNL     1      11.616   3.959   1.648  0.00  0.00    +0.259 A 
ATOM     19  C   UNL     1      10.675   4.928   2.315  0.00  0.00    +0.040 A 
ATOM     20  C   UNL     1      10.233   5.977   1.609  0.00  0.00    +0.015 A 
ENDROOT
BRANCH   7   2
ATOM      2  S   UNL     1      15.731   6.760  -0.706  0.00  0.00    +0.061 S 
ATOM      3  O   UNL     1      15.707   7.965  -1.506  0.00  0.00    -0.153 OA
ATOM      4  O   UNL     1      16.899   5.904  -0.683  0.00  0.00    -0.153 OA
BRANCH   2  21
ATOM     21  C   UNL     1      15.359   7.212   0.960  0.00  0.00    +0.106 A 
ATOM     22  C   UNL     1      14.423   6.478   1.668  0.00  0.00    +0.030 A 
ATOM     23  C   UNL     1      16.010   8.294   1.530  0.00  0.00    +0.030 A 
ATOM     25  C   UNL     1      14.128   6.836   2.985  0.00  0.00    +0.025 A 
ATOM     26  C   UNL     1      15.716   8.651   2.845  0.00  0.00    +0.025 A 
ATOM     27  C   UNL     1      14.775   7.922   3.573  0.00  0.00    +0.033 A 
BRANCH  27   9
ATOM      6  O   UNL     1      12.177   8.776   4.833  0.00  0.00    -0.276 OA
ATOM      9  N   UNL     1      14.482   8.280   4.889  0.00  0.00    -0.286 N 
ATOM     32  C   UNL     1      13.248   8.672   5.424  0.00  0.00    +0.214 C 
ATOM     35  C   UNL     1      13.348   8.977   6.898  0.00  0.00    +0.109 C 
ATOM     37  H   UNL     1      15.268   8.248   5.533  0.00  0.00    +0.155 HD
ENDBRANCH  27   9
ENDBRANCH   2  21
ENDBRANCH   7   2
BRANCH  19  24
ATOM     24  C   UNL     1      10.264   4.709   3.678  0.00  0.00    +0.014 C 
ATOM     28  C   UNL     1      10.558   5.556   4.672  0.00  0.00    +0.008 C 
BRANCH  28  29
ATOM      1 CL   UNL     1       8.975   4.808  10.374  0.00  0.00    -0.084 Cl
ATOM     29  C   UNL     1      10.167   5.371   6.080  0.00  0.00    -0.025 A 
ATOM     30  C   UNL     1       9.964   4.090   6.566  0.00  0.00    +0.009 A 
ATOM     31  C   UNL     1      10.009   6.483   6.892  0.00  0.00    +0.009 A 
ATOM     33  C   UNL     1       9.595   3.914   7.899  0.00  0.00    +0.020 A 
ATOM     34  C   UNL     1       9.638   6.308   8.226  0.00  0.00    +0.020 A 
ATOM     36  C   UNL     1       9.431   5.024   8.730  0.00  0.00    +0.041 A 
ENDBRANCH  28  29
ENDBRANCH  19  24
TORSDOF 5
ENDMDL
MODEL 4
REMARK VINA RESULT:      -6.9     26.926     30.123
REMARK  Name = 7143918
REMARK  6 active torsions:
REMARK  status: ('A' for Active; 'I' for Inactive)
REMARK    1  A    between atoms: S_2  and  N_7
REMARK    2  A    between atoms: S_2  and  C_21
REMARK    3  A    between atoms: N_9  and  C_27
REMARK    4  A    between atoms: C_19  and  C_24
REMARK    5  A    between atoms: C_28  and  C_29
REMARK    6  A    between atoms: C_32  and  C_35
REMARK                            x       y       z     vdW  Elec       q    Type
REMARK                         _______ _______ _______ _____ _____    ______ ____
ROOT
ATOM      5  O   UNL     1       9.664   7.047   1.275  0.00  0.00    -0.267 OA
ATOM      7  N   UNL     1      11.439   7.568   5.893  0.00  0.00    -0.176 NA
ATOM      8  N   UNL     1       9.726   6.392   3.511  0.00  0.00    -0.311 N 
ATOM     10  C   UNL     1       9.017   7.947   5.420  0.00  0.00    +0.025 C 
ATOM     11  C   UNL     1       9.819   5.682   5.926  0.00  0.00    +0.052 C 
ATOM     12  C   UNL     1       8.668   6.658   6.151  0.00  0.00    +0.017 C 
ATOM     13  C   UNL     1      10.319   8.548   5.976  0.00  0.00    +0.114 C 
ATOM     14  C   UNL     1      11.111   6.260   6.534  0.00  0.00    +0.119 C 
ATOM     15  C   UNL     1       9.102   7.659   3.915  0.00  0.00    +0.130 C 
ATOM     16  C   UNL     1      10.013   5.397   4.449  0.00  0.00    +0.026 A 
ATOM     17  C   UNL     1      10.477   4.205   4.043  0.00  0.00    +0.022 A 
ATOM     18  C   UNL     1       9.924   6.197   2.129  0.00  0.00    +0.259 A 
ATOM     19  C   UNL     1      10.471   4.859   1.707  0.00  0.00    +0.040 A 
ATOM     20  C   UNL     1      10.709   3.940   2.651  0.00  0.00    +0.015 A 
ENDROOT
BRANCH   7   2
ATOM      2  S   UNL     1      12.994   8.192   6.241  0.00  0.00    +0.061 S 
ATOM      3  O   UNL     1      13.571   7.446   7.338  0.00  0.00    -0.153 OA
ATOM      4  O   UNL     1      12.923   9.638   6.279  0.00  0.00    -0.153 OA
BRANCH   2  21
ATOM     21  C   UNL     1      13.850   7.731   4.767  0.00  0.00    +0.106 A 
ATOM     22  C   UNL     1      13.122   7.388   3.640  0.00  0.00    +0.030 A 
ATOM     23  C   UNL     1      15.235   7.720   4.763  0.00  0.00    +0.030 A 
ATOM     25  C   UNL     1      13.799   7.023   2.476  0.00  0.00    +0.025 A 
ATOM     26  C   UNL     1      15.911   7.356   3.600  0.00  0.00    +0.025 A 
ATOM     27  C   UNL     1      15.193   7.007   2.455  0.00  0.00    +0.033 A 
BRANCH  27   9
ATOM      6  O   UNL     1      15.107   4.454   0.863  0.00  0.00    -0.276 OA
ATOM      9  N   UNL     1      15.870   6.643   1.292  0.00  0.00    -0.286 N 
ATOM     32  C   UNL     1      15.792   5.434   0.589  0.00  0.00    +0.214 C 
ATOM     35  C   UNL     1      16.686   5.435  -0.627  0.00  0.00    +0.109 C 
ATOM     37  H   UNL     1      16.494   7.351   0.913  0.00  0.00    +0.155 HD
ENDBRANCH  27   9
ENDBRANCH   2  21
ENDBRANCH   7   2
BRANCH  19  24
ATOM     24  C   UNL     1      10.716   4.590   0.312  0.00  0.00    +0.014 C 
ATOM     28  C   UNL     1      11.824   3.980  -0.126  0.00  0.00    +0.008 C 
BRANCH  28  29
ATOM      1 CL   UNL     1      13.035   2.809  -5.849  0.00  0.00    -0.084 Cl
ATOM     29  C   UNL     1      12.123   3.691  -1.540  0.00  0.00    -0.025 A 
ATOM     30  C   UNL     1      11.293   2.837  -2.249  0.00  0.00    +0.009 A 
ATOM     31  C   UNL     1      13.228   4.278  -2.133  0.00  0.00    +0.009 A 
ATOM     33  C   UNL     1      11.575   2.563  -3.587  0.00  0.00    +0.020 A 
ATOM     34  C   UNL     1      13.512   4.003  -3.472  0.00  0.00    +0.020 A 
ATOM     36  C   UNL     1      12.686   3.146  -4.199  0.00  0.00    +0.041 A 
ENDBRANCH  28  29
ENDBRANCH  19  24
TORSDOF 5
ENDMDL
MODEL 5
REMARK VINA RESULT:      -6.9     27.705     30.978
REMARK  Name = 7143918
REMARK  6 active torsions:
REMARK  status: ('A' for Active; 'I' for Inactive)
REMARK    1  A    between atoms: S_2  and  N_7
REMARK    2  A    between atoms: S_2  and  C_21
REMARK    3  A    between atoms: N_9  and  C_27
REMARK    4  A    between atoms: C_19  and  C_24
REMARK    5  A    between atoms: C_28  and  C_29
REMARK    6  A    between atoms: C_32  and  C_35
REMARK                            x       y       z     vdW  Elec       q    Type
REMARK                         _______ _______ _______ _____ _____    ______ ____
ROOT
ATOM      5  O   UNL     1      13.673   6.596   7.051  0.00  0.00    -0.267 OA
ATOM      7  N   UNL     1       9.582   8.774   5.242  0.00  0.00    -0.176 NA
ATOM      8  N   UNL     1      12.136   8.348   7.056  0.00  0.00    -0.311 N 
ATOM     10  C   UNL     1       9.659   8.004   7.616  0.00  0.00    +0.025 C 
ATOM     11  C   UNL     1      10.479  10.246   7.035  0.00  0.00    +0.052 C 
ATOM     12  C   UNL     1       9.711   9.451   8.088  0.00  0.00    +0.017 C 
ATOM     13  C   UNL     1       8.934   7.903   6.264  0.00  0.00    +0.114 C 
ATOM     14  C   UNL     1       9.721  10.190   5.695  0.00  0.00    +0.119 C 
ATOM     15  C   UNL     1      11.088   7.448   7.557  0.00  0.00    +0.130 C 
ATOM     16  C   UNL     1      11.888   9.710   6.867  0.00  0.00    +0.026 A 
ATOM     17  C   UNL     1      12.889  10.533   6.518  0.00  0.00    +0.022 A 
ATOM     18  C   UNL     1      13.417   7.789   6.876  0.00  0.00    +0.259 A 
ATOM     19  C   UNL     1      14.514   8.732   6.458  0.00  0.00    +0.040 A 
ATOM     20  C   UNL     1      14.217  10.031   6.311  0.00  0.00    +0.015 A 
ENDROOT
BRANCH   7   2
ATOM      2  S   UNL     1       9.033   8.562   3.635  0.00  0.00    +0.061 S 
ATOM      3  O   UNL     1       8.997   9.848   2.972  0.00  0.00    -0.153 OA
ATOM      4  O   UNL     1       7.872   7.697   3.645  0.00  0.00    -0.153 OA
BRANCH   2  21
ATOM     21  C   UNL     1      10.385   7.647   2.964  0.00  0.00    +0.106 A 
ATOM     22  C   UNL     1      11.608   7.671   3.613  0.00  0.00    +0.030 A 
ATOM     23  C   UNL     1      10.201   6.922   1.799  0.00  0.00    +0.030 A 
ATOM     25  C   UNL     1      12.677   6.948   3.083  0.00  0.00    +0.025 A 
ATOM     26  C   UNL     1      11.268   6.199   1.268  0.00  0.00    +0.025 A 
ATOM     27  C   UNL     1      12.507   6.211   1.910  0.00  0.00    +0.033 A 
BRANCH  27   9
ATOM      6  O   UNL     1      13.045   3.249   1.894  0.00  0.00    -0.276 OA
ATOM      9  N   UNL     1      13.575   5.488   1.380  0.00  0.00    -0.286 N 
ATOM     32  C   UNL     1      13.776   4.102   1.402  0.00  0.00    +0.214 C 
ATOM     35  C   UNL     1      15.062   3.712   0.715  0.00  0.00    +0.109 C 
ATOM     37  H   UNL     1      14.292   6.046   0.921  0.00  0.00    +0.155 HD
ENDBRANCH  27   9
ENDBRANCH   2  21
ENDBRANCH   7   2
BRANCH  19  24
ATOM     24  C   UNL     1      15.847   8.233   6.238  0.00  0.00    +0.014 C 
ATOM     28  C   UNL     1      16.848   9.003   5.795  0.00  0.00    +0.008 C 
BRANCH  28  29
ATOM      1 CL   UNL     1      22.417   7.116   4.791  0.00  0.00    -0.084 Cl
ATOM     29  C   UNL     1      18.224   8.537   5.547  0.00  0.00    -0.025 A 
ATOM     30  C   UNL     1      18.572   8.091   4.282  0.00  0.00    +0.009 A 
ATOM     31  C   UNL     1      19.143   8.554   6.583  0.00  0.00    +0.009 A 
ATOM     33  C   UNL     1      19.873   7.650   4.046  0.00  0.00    +0.020 A 
ATOM     34  C   UNL     1      20.446   8.112   6.348  0.00  0.00    +0.020 A 
ATOM     36  C   UNL     1      20.811   7.660   5.080  0.00  0.00    +0.041 A 
ENDBRANCH  28  29
ENDBRANCH  19  24
TORSDOF 5
ENDMDL
MODEL 6
REMARK VINA RESULT:      -6.8     21.796     23.613
REMARK  Name = 7143918
REMARK  6 active torsions:
REMARK  status: ('A' for Active; 'I' for Inactive)
REMARK    1  A    between atoms: S_2  and  N_7
REMARK    2  A    between atoms: S_2  and  C_21
REMARK    3  A    between atoms: N_9  and  C_27
REMARK    4  A    between atoms: C_19  and  C_24
REMARK    5  A    between atoms: C_28  and  C_29
REMARK    6  A    between atoms: C_32  and  C_35
REMARK                            x       y       z     vdW  Elec       q    Type
REMARK                         _______ _______ _______ _____ _____    ______ ____
ROOT
ATOM      5  O   UNL     1       9.535  -9.345  32.943  0.00  0.00    -0.267 OA
ATOM      7  N   UNL     1       8.345  -5.853  36.282  0.00  0.00    -0.176 NA
ATOM      8  N   UNL     1       8.769  -7.204  33.455  0.00  0.00    -0.311 N 
ATOM     10  C   UNL     1      10.219  -5.478  34.675  0.00  0.00    +0.025 C 
ATOM     11  C   UNL     1       7.923  -4.900  34.024  0.00  0.00    +0.052 C 
ATOM     12  C   UNL     1       9.378  -4.453  33.927  0.00  0.00    +0.017 C 
ATOM     13  C   UNL     1       9.799  -5.548  36.152  0.00  0.00    +0.114 C 
ATOM     14  C   UNL     1       7.486  -4.914  35.501  0.00  0.00    +0.119 C 
ATOM     15  C   UNL     1      10.096  -6.835  33.967  0.00  0.00    +0.130 C 
ATOM     16  C   UNL     1       7.730  -6.271  33.404  0.00  0.00    +0.026 A 
ATOM     17  C   UNL     1       6.562  -6.597  32.828  0.00  0.00    +0.022 A 
ATOM     18  C   UNL     1       8.633  -8.504  32.930  0.00  0.00    +0.259 A 
ATOM     19  C   UNL     1       7.303  -8.849  32.315  0.00  0.00    +0.040 A 
ATOM     20  C   UNL     1       6.352  -7.907  32.279  0.00  0.00    +0.015 A 
ENDROOT
BRANCH   7   2
ATOM      2  S   UNL     1       7.803  -6.209  37.866  0.00  0.00    +0.061 S 
ATOM      3  O   UNL     1       7.284  -5.002  38.472  0.00  0.00    -0.153 OA
ATOM      4  O   UNL     1       8.806  -7.008  38.538  0.00  0.00    -0.153 OA
BRANCH   2  21
ATOM     21  C   UNL     1       6.433  -7.258  37.496  0.00  0.00    +0.106 A 
ATOM     22  C   UNL     1       6.528  -8.150  36.440  0.00  0.00    +0.030 A 
ATOM     23  C   UNL     1       5.286  -7.172  38.267  0.00  0.00    +0.030 A 
ATOM     25  C   UNL     1       5.444  -8.979  36.148  0.00  0.00    +0.025 A 
ATOM     26  C   UNL     1       4.203  -8.000  37.976  0.00  0.00    +0.025 A 
ATOM     27  C   UNL     1       4.282  -8.905  36.916  0.00  0.00    +0.033 A 
BRANCH  27   9
ATOM      6  O   UNL     1       3.493 -11.570  38.074  0.00  0.00    -0.276 OA
ATOM      9  N   UNL     1       3.199  -9.734  36.624  0.00  0.00    -0.286 N 
ATOM     32  C   UNL     1       2.878 -10.972  37.197  0.00  0.00    +0.214 C 
ATOM     35  C   UNL     1       1.618 -11.553  36.605  0.00  0.00    +0.109 C 
ATOM     37  H   UNL     1       2.568  -9.387  35.905  0.00  0.00    +0.155 HD
ENDBRANCH  27   9
ENDBRANCH   2  21
ENDBRANCH   7   2
BRANCH  19  24
ATOM     24  C   UNL     1       7.081 -10.166  31.772  0.00  0.00    +0.014 C 
ATOM     28  C   UNL     1       7.228 -10.450  30.472  0.00  0.00    +0.008 C 
BRANCH  28  29
ATOM      1 CL   UNL     1       6.324 -15.818  28.032  0.00  0.00    -0.084 Cl
ATOM     29  C   UNL     1       7.005 -11.776  29.869  0.00  0.00    -0.025 A 
ATOM     30  C   UNL     1       7.859 -12.222  28.873  0.00  0.00    +0.009 A 
ATOM     31  C   UNL     1       5.945 -12.552  30.310  0.00  0.00    +0.009 A 
ATOM     33  C   UNL     1       7.649 -13.477  28.303  0.00  0.00    +0.020 A 
ATOM     34  C   UNL     1       5.734 -13.808  29.739  0.00  0.00    +0.020 A 
ATOM     36  C   UNL     1       6.585 -14.270  28.736  0.00  0.00    +0.041 A 
ENDBRANCH  28  29
ENDBRANCH  19  24
TORSDOF 5
ENDMDL
MODEL 7
REMARK VINA RESULT:      -6.6      3.612      6.028
REMARK  Name = 7143918
REMARK  6 active torsions:
REMARK  status: ('A' for Active; 'I' for Inactive)
REMARK    1  A    between atoms: S_2  and  N_7
REMARK    2  A    between atoms: S_2  and  C_21
REMARK    3  A    between atoms: N_9  and  C_27
REMARK    4  A    between atoms: C_19  and  C_24
REMARK    5  A    between atoms: C_28  and  C_29
REMARK    6  A    between atoms: C_32  and  C_35
REMARK                            x       y       z     vdW  Elec       q    Type
REMARK                         _______ _______ _______ _____ _____    ______ ____
ROOT
ATOM      5  O   UNL     1      -7.771  -8.865  17.467  0.00  0.00    -0.267 OA
ATOM      7  N   UNL     1      -3.995 -11.691  15.882  0.00  0.00    -0.176 NA
ATOM      8  N   UNL     1      -6.731 -10.942  17.277  0.00  0.00    -0.311 N 
ATOM     10  C   UNL     1      -4.446 -11.439  18.325  0.00  0.00    +0.025 C 
ATOM     11  C   UNL     1      -5.607 -13.185  17.045  0.00  0.00    +0.052 C 
ATOM     12  C   UNL     1      -4.944 -12.876  18.385  0.00  0.00    +0.017 C 
ATOM     13  C   UNL     1      -3.420 -11.270  17.193  0.00  0.00    +0.114 C 
ATOM     14  C   UNL     1      -4.564 -13.071  15.918  0.00  0.00    +0.119 C 
ATOM     15  C   UNL     1      -5.650 -10.500  18.169  0.00  0.00    +0.130 C 
ATOM     16  C   UNL     1      -6.771 -12.249  16.784  0.00  0.00    +0.026 A 
ATOM     17  C   UNL     1      -7.826 -12.663  16.065  0.00  0.00    +0.022 A 
ATOM     18  C   UNL     1      -7.767 -10.018  17.032  0.00  0.00    +0.259 A 
ATOM     19  C   UNL     1      -8.924 -10.504  16.200  0.00  0.00    +0.040 A 
ATOM     20  C   UNL     1      -8.913 -11.773  15.771  0.00  0.00    +0.015 A 
ENDROOT
BRANCH   7   2
ATOM      2  S   UNL     1      -3.049 -11.315  14.506  0.00  0.00    +0.061 S 
ATOM      3  O   UNL     1      -2.632 -12.545  13.867  0.00  0.00    -0.153 OA
ATOM      4  O   UNL     1      -2.084 -10.296  14.862  0.00  0.00    -0.153 OA
BRANCH   2  21
ATOM     21  C   UNL     1      -4.276 -10.566  13.482  0.00  0.00    +0.106 A 
ATOM     22  C   UNL     1      -5.513 -10.257  14.023  0.00  0.00    +0.030 A 
ATOM     23  C   UNL     1      -3.981 -10.300  12.155  0.00  0.00    +0.030 A 
ATOM     25  C   UNL     1      -6.483  -9.664  13.213  0.00  0.00    +0.025 A 
ATOM     26  C   UNL     1      -4.950  -9.708  11.346  0.00  0.00    +0.025 A 
ATOM     27  C   UNL     1      -6.202  -9.390  11.874  0.00  0.00    +0.033 A 
BRANCH  27   9
ATOM      6  O   UNL     1      -8.157 -10.624   9.946  0.00  0.00    -0.276 OA
ATOM      9  N   UNL     1      -7.170  -8.798  11.065  0.00  0.00    -0.286 N 
ATOM     32  C   UNL     1      -8.058  -9.424  10.180  0.00  0.00    +0.214 C 
ATOM     35  C   UNL     1      -8.954  -8.427   9.487  0.00  0.00    +0.109 C 
ATOM     37  H   UNL     1      -7.233  -7.785  11.133  0.00  0.00    +0.155 HD
ENDBRANCH  27   9
ENDBRANCH   2  21
ENDBRANCH   7   2
BRANCH  19  24
ATOM     24  C   UNL     1     -10.013  -9.612  15.892  0.00  0.00    +0.014 C 
ATOM     28  C   UNL     1     -10.002  -8.788  14.837  0.00  0.00    +0.008 C 
BRANCH  28  29
ATOM      1 CL   UNL     1     -14.391  -5.007  13.416  0.00  0.00    -0.084 Cl
ATOM     29  C   UNL     1     -11.086  -7.854  14.486  0.00  0.00    -0.025 A 
ATOM     30  C   UNL     1     -11.234  -6.682  15.211  0.00  0.00    +0.009 A 
ATOM     31  C   UNL     1     -11.937  -8.165  13.438  0.00  0.00    +0.009 A 
ATOM     33  C   UNL     1     -12.259  -5.798  14.879  0.00  0.00    +0.020 A 
ATOM     34  C   UNL     1     -12.964  -7.281  13.106  0.00  0.00    +0.020 A 
ATOM     36  C   UNL     1     -13.125  -6.097  13.826  0.00  0.00    +0.041 A 
ENDBRANCH  28  29
ENDBRANCH  19  24
TORSDOF 5
ENDMDL
MODEL 8
REMARK VINA RESULT:      -6.5     25.615     29.142
REMARK  Name = 7143918
REMARK  6 active torsions:
REMARK  status: ('A' for Active; 'I' for Inactive)
REMARK    1  A    between atoms: S_2  and  N_7
REMARK    2  A    between atoms: S_2  and  C_21
REMARK    3  A    between atoms: N_9  and  C_27
REMARK    4  A    between atoms: C_19  and  C_24
REMARK    5  A    between atoms: C_28  and  C_29
REMARK    6  A    between atoms: C_32  and  C_35
REMARK                            x       y       z     vdW  Elec       q    Type
REMARK                         _______ _______ _______ _____ _____    ______ ____
ROOT
ATOM      5  O   UNL     1      12.658  11.076   4.572  0.00  0.00    -0.267 OA
ATOM      7  N   UNL     1      13.347   6.867   2.010  0.00  0.00    -0.176 NA
ATOM      8  N   UNL     1      14.035   9.335   3.861  0.00  0.00    -0.311 N 
ATOM     10  C   UNL     1      14.591   8.942   1.391  0.00  0.00    +0.025 C 
ATOM     11  C   UNL     1      15.507   7.437   3.102  0.00  0.00    +0.052 C 
ATOM     12  C   UNL     1      15.880   8.333   1.924  0.00  0.00    +0.017 C 
ATOM     13  C   UNL     1      13.630   7.840   0.916  0.00  0.00    +0.114 C 
ATOM     14  C   UNL     1      14.590   6.300   2.614  0.00  0.00    +0.119 C 
ATOM     15  C   UNL     1      13.972   9.830   2.478  0.00  0.00    +0.130 C 
ATOM     16  C   UNL     1      14.824   8.233   4.198  0.00  0.00    +0.026 A 
ATOM     17  C   UNL     1      14.957   7.870   5.483  0.00  0.00    +0.022 A 
ATOM     18  C   UNL     1      13.347  10.088   4.833  0.00  0.00    +0.259 A 
ATOM     19  C   UNL     1      13.493   9.640   6.264  0.00  0.00    +0.040 A 
ATOM     20  C   UNL     1      14.278   8.586   6.525  0.00  0.00    +0.015 A 
ENDROOT
BRANCH   7   2
ATOM      2  S   UNL     1      12.099   5.740   1.693  0.00  0.00    +0.061 S 
ATOM      3  O   UNL     1      12.685   4.446   1.421  0.00  0.00    -0.153 OA
ATOM      4  O   UNL     1      11.149   6.336   0.777  0.00  0.00    -0.153 OA
BRANCH   2  21
ATOM     21  C   UNL     1      11.339   5.664   3.286  0.00  0.00    +0.106 A 
ATOM     22  C   UNL     1      10.707   4.496   3.679  0.00  0.00    +0.030 A 
ATOM     23  C   UNL     1      11.389   6.772   4.114  0.00  0.00    +0.030 A 
ATOM     25  C   UNL     1      10.107   4.436   4.938  0.00  0.00    +0.025 A 
ATOM     26  C   UNL     1      10.790   6.712   5.372  0.00  0.00    +0.025 A 
ATOM     27  C   UNL     1      10.149   5.543   5.784  0.00  0.00    +0.033 A 
BRANCH  27   9
ATOM      6  O   UNL     1      11.376   5.489   8.532  0.00  0.00    -0.276 OA
ATOM      9  N   UNL     1       9.550   5.484   7.042  0.00  0.00    -0.286 N 
ATOM     32  C   UNL     1      10.173   5.460   8.296  0.00  0.00    +0.214 C 
ATOM     35  C   UNL     1       9.168   5.393   9.419  0.00  0.00    +0.109 C 
ATOM     37  H   UNL     1       8.533   5.455   7.038  0.00  0.00    +0.155 HD
ENDBRANCH  27   9
ENDBRANCH   2  21
ENDBRANCH   7   2
BRANCH  19  24
ATOM     24  C   UNL     1      12.806  10.348   7.313  0.00  0.00    +0.014 C 
ATOM     28  C   UNL     1      11.638   9.938   7.823  0.00  0.00    +0.008 C 
BRANCH  28  29
ATOM      1 CL   UNL     1       8.627  12.745  12.140  0.00  0.00    -0.084 Cl
ATOM     29  C   UNL     1      10.894  10.631   8.890  0.00  0.00    -0.025 A 
ATOM     30  C   UNL     1       9.513  10.524   8.934  0.00  0.00    +0.009 A 
ATOM     31  C   UNL     1      11.589  11.376   9.828  0.00  0.00    +0.009 A 
ATOM     33  C   UNL     1       8.809  11.180   9.943  0.00  0.00    +0.020 A 
ATOM     34  C   UNL     1      10.885  12.034  10.837  0.00  0.00    +0.020 A 
ATOM     36  C   UNL     1       9.495  11.936  10.895  0.00  0.00    +0.041 A 
ENDBRANCH  28  29
ENDBRANCH  19  24
TORSDOF 5
ENDMDL
MODEL 9
REMARK VINA RESULT:      -6.4      4.746      7.581
REMARK  Name = 7143918
REMARK  6 active torsions:
REMARK  status: ('A' for Active; 'I' for Inactive)
REMARK    1  A    between atoms: S_2  and  N_7
REMARK    2  A    between atoms: S_2  and  C_21
REMARK    3  A    between atoms: N_9  and  C_27
REMARK    4  A    between atoms: C_19  and  C_24
REMARK    5  A    between atoms: C_28  and  C_29
REMARK    6  A    between atoms: C_32  and  C_35
REMARK                            x       y       z     vdW  Elec       q    Type
REMARK                         _______ _______ _______ _____ _____    ______ ____
ROOT
ATOM      5  O   UNL     1      -4.930 -12.573  10.187  0.00  0.00    -0.267 OA
ATOM      7  N   UNL     1      -3.597 -12.117  14.959  0.00  0.00    -0.176 NA
ATOM      8  N   UNL     1      -3.291 -12.273  11.817  0.00  0.00    -0.311 N 
ATOM     10  C   UNL     1      -2.780 -14.044  13.597  0.00  0.00    +0.025 C 
ATOM     11  C   UNL     1      -1.532 -11.929  13.587  0.00  0.00    +0.052 C 
ATOM     12  C   UNL     1      -1.380 -13.448  13.586  0.00  0.00    +0.017 C 
ATOM     13  C   UNL     1      -3.545 -13.604  14.857  0.00  0.00    +0.114 C 
ATOM     14  C   UNL     1      -2.247 -11.485  14.877  0.00  0.00    +0.119 C 
ATOM     15  C   UNL     1      -3.503 -13.643  12.304  0.00  0.00    +0.130 C 
ATOM     16  C   UNL     1      -2.300 -11.457  12.368  0.00  0.00    +0.026 A 
ATOM     17  C   UNL     1      -2.047 -10.252  11.832  0.00  0.00    +0.022 A 
ATOM     18  C   UNL     1      -4.062 -11.870  10.708  0.00  0.00    +0.259 A 
ATOM     19  C   UNL     1      -3.774 -10.503  10.146  0.00  0.00    +0.040 A 
ATOM     20  C   UNL     1      -2.800  -9.774  10.706  0.00  0.00    +0.015 A 
ENDROOT
BRANCH   7   2
ATOM      2  S   UNL     1      -4.632 -11.496  16.172  0.00  0.00    +0.061 S 
ATOM      3  O   UNL     1      -4.001 -10.353  16.795  0.00  0.00    -0.153 OA
ATOM      4  O   UNL     1      -5.136 -12.595  16.969  0.00  0.00    -0.153 OA
BRANCH   2  21
ATOM     21  C   UNL     1      -5.959 -10.900  15.171  0.00  0.00    +0.106 A 
ATOM     22  C   UNL     1      -5.696 -10.478  13.879  0.00  0.00    +0.030 A 
ATOM     23  C   UNL     1      -7.240 -10.864  15.696  0.00  0.00    +0.030 A 
ATOM     25  C   UNL     1      -6.745 -10.007  13.088  0.00  0.00    +0.025 A 
ATOM     26  C   UNL     1      -8.289 -10.393  14.907  0.00  0.00    +0.025 A 
ATOM     27  C   UNL     1      -8.041  -9.965  13.602  0.00  0.00    +0.033 A 
BRANCH  27   9
ATOM      6  O   UNL     1      -9.991 -11.451  11.854  0.00  0.00    -0.276 OA
ATOM      9  N   UNL     1      -9.090  -9.494  12.812  0.00  0.00    -0.286 N 
ATOM     32  C   UNL     1      -9.971 -10.235  12.013  0.00  0.00    +0.214 C 
ATOM     35  C   UNL     1     -10.971  -9.349  11.313  0.00  0.00    +0.109 C 
ATOM     37  H   UNL     1      -9.225  -8.486  12.825  0.00  0.00    +0.155 HD
ENDBRANCH  27   9
ENDBRANCH   2  21
ENDBRANCH   7   2
BRANCH  19  24
ATOM     24  C   UNL     1      -4.533 -10.013   9.023  0.00  0.00    +0.014 C 
ATOM     28  C   UNL     1      -5.720  -9.408   9.156  0.00  0.00    +0.008 C 
BRANCH  28  29
ATOM      1 CL   UNL     1      -9.021  -7.343   4.638  0.00  0.00    -0.084 Cl
ATOM     29  C   UNL     1      -6.535  -8.898   8.040  0.00  0.00    -0.025 A 
ATOM     30  C   UNL     1      -6.354  -9.423   6.771  0.00  0.00    +0.009 A 
ATOM     31  C   UNL     1      -7.468  -7.903   8.281  0.00  0.00    +0.009 A 
ATOM     33  C   UNL     1      -7.125  -8.941   5.714  0.00  0.00    +0.020 A 
ATOM     34  C   UNL     1      -8.240  -7.419   7.224  0.00  0.00    +0.020 A 
ATOM     36  C   UNL     1      -8.069  -7.938   5.941  0.00  0.00    +0.041 A 
ENDBRANCH  28  29
ENDBRANCH  19  24
TORSDOF 5
ENDMDL
MODEL 10
REMARK VINA RESULT:      -6.3      2.844      4.214
REMARK  Name = 7143918
REMARK  6 active torsions:
REMARK  status: ('A' for Active; 'I' for Inactive)
REMARK    1  A    between atoms: S_2  and  N_7
REMARK    2  A    between atoms: S_2  and  C_21
REMARK    3  A    between atoms: N_9  and  C_27
REMARK    4  A    between atoms: C_19  and  C_24
REMARK    5  A    between atoms: C_28  and  C_29
REMARK    6  A    between atoms: C_32  and  C_35
REMARK                            x       y       z     vdW  Elec       q    Type
REMARK                         _______ _______ _______ _____ _____    ______ ____
ROOT
ATOM      5  O   UNL     1      -7.846 -12.390  12.643  0.00  0.00    -0.267 OA
ATOM      7  N   UNL     1      -2.985 -11.336  12.753  0.00  0.00    -0.176 NA
ATOM      8  N   UNL     1      -5.946 -11.469  11.655  0.00  0.00    -0.311 N 
ATOM     10  C   UNL     1      -3.904 -12.881  11.020  0.00  0.00    +0.025 C 
ATOM     11  C   UNL     1      -3.889 -10.460  10.609  0.00  0.00    +0.052 C 
ATOM     12  C   UNL     1      -3.680 -11.821   9.951  0.00  0.00    +0.017 C 
ATOM     13  C   UNL     1      -2.900 -12.707  12.171  0.00  0.00    +0.114 C 
ATOM     14  C   UNL     1      -2.845 -10.263  11.724  0.00  0.00    +0.119 C 
ATOM     15  C   UNL     1      -5.360 -12.808  11.498  0.00  0.00    +0.130 C 
ATOM     16  C   UNL     1      -5.292 -10.334  11.171  0.00  0.00    +0.026 A 
ATOM     17  C   UNL     1      -5.897  -9.137  11.223  0.00  0.00    +0.022 A 
ATOM     18  C   UNL     1      -7.234 -11.406  12.223  0.00  0.00    +0.259 A 
ATOM     19  C   UNL     1      -7.876 -10.045  12.292  0.00  0.00    +0.040 A 
ATOM     20  C   UNL     1      -7.206  -8.997  11.795  0.00  0.00    +0.015 A 
ENDROOT
BRANCH   7   2
ATOM      2  S   UNL     1      -2.105 -11.093  14.201  0.00  0.00    +0.061 S 
ATOM      3  O   UNL     1      -1.406  -9.828  14.124  0.00  0.00    -0.153 OA
ATOM      4  O   UNL     1      -1.403 -12.314  14.537  0.00  0.00    -0.153 OA
BRANCH   2  21
ATOM     21  C   UNL     1      -3.437 -10.903  15.344  0.00  0.00    +0.106 A 
ATOM     22  C   UNL     1      -4.688 -10.538  14.873  0.00  0.00    +0.030 A 
ATOM     23  C   UNL     1      -3.209 -11.121  16.693  0.00  0.00    +0.030 A 
ATOM     25  C   UNL     1      -5.740 -10.388  15.777  0.00  0.00    +0.025 A 
ATOM     26  C   UNL     1      -4.261 -10.971  17.596  0.00  0.00    +0.025 A 
ATOM     27  C   UNL     1      -5.527 -10.605  17.138  0.00  0.00    +0.033 A 
BRANCH  27   9
ATOM      6  O   UNL     1      -7.936 -12.340  17.638  0.00  0.00    -0.276 OA
ATOM      9  N   UNL     1      -6.579 -10.455  18.041  0.00  0.00    -0.286 N 
ATOM     32  C   UNL     1      -7.681 -11.298  18.233  0.00  0.00    +0.214 C 
ATOM     35  C   UNL     1      -8.599 -10.782  19.313  0.00  0.00    +0.109 C 
ATOM     37  H   UNL     1      -6.530  -9.628  18.632  0.00  0.00    +0.155 HD
ENDBRANCH  27   9
ENDBRANCH   2  21
ENDBRANCH   7   2
BRANCH  19  24
ATOM     24  C   UNL     1      -9.186  -9.896  12.875  0.00  0.00    +0.014 C 
ATOM     28  C   UNL     1      -9.382  -9.407  14.105  0.00  0.00    +0.008 C 
BRANCH  28  29
ATOM      1 CL   UNL     1     -14.713  -8.746  16.700  0.00  0.00    -0.084 Cl
ATOM     29  C   UNL     1     -10.699  -9.243  14.747  0.00  0.00    -0.025 A 
ATOM     30  C   UNL     1     -10.790  -9.274  16.129  0.00  0.00    +0.009 A 
ATOM     31  C   UNL     1     -11.821  -9.062  13.955  0.00  0.00    +0.009 A 
ATOM     33  C   UNL     1     -12.036  -9.119  16.736  0.00  0.00    +0.020 A 
ATOM     34  C   UNL     1     -13.068  -8.908  14.562  0.00  0.00    +0.020 A 
ATOM     36  C   UNL     1     -13.176  -8.937  15.952  0.00  0.00    +0.041 A 
ENDBRANCH  28  29
ENDBRANCH  19  24
TORSDOF 5
ENDMDL
