REMARK  Name = 25390420
REMARK  10 active torsions:
REMARK  status: ('A' for Active; 'I' for Inactive)
REMARK    1  A    between atoms: O_2  and  C_9
REMARK    2  A    between atoms: O_3  and  C_10
REMARK    3  A    between atoms: N_6  and  C_15
REMARK    4  A    between atoms: N_7  and  C_21
REMARK    5  A    between atoms: C_8  and  C_15
REMARK    6  A    between atoms: C_11  and  C_18
REMARK    7  A    between atoms: C_12  and  C_19
REMARK    8  A    between atoms: C_18  and  C_20
REMARK    9  A    between atoms: C_21  and  C_22
REMARK   10  A    between atoms: C_21  and  C_23
REMARK                            x       y       z     vdW  Elec       q    Type
REMARK                         _______ _______ _______ _____ _____    ______ ____
ROOT
ATOM      1  O   UNL     1       1.839   0.220  -1.048  0.00  0.00    -0.366 OA
ATOM      8  C   UNL     1       2.702  -0.863  -0.660  0.00  0.00    +0.167 C 
ATOM      9  C   UNL     1       3.124  -0.561   0.768  0.00  0.00    +0.176 C 
ATOM     10  C   UNL     1       3.226   0.950   0.741  0.00  0.00    +0.175 C 
ATOM     11  C   UNL     1       2.047   1.332  -0.147  0.00  0.00    +0.158 C 
ENDROOT
BRANCH   9   2
ATOM      2  O   UNL     1       4.337  -1.197   1.109  0.00  0.00    -0.387 OA
ATOM     25  H   UNL     1       4.609  -0.860   1.979  0.00  0.00    +0.210 HD
ENDBRANCH   9   2
BRANCH  10   3
ATOM      3  O   UNL     1       4.426   1.354   0.083  0.00  0.00    -0.387 OA
ATOM     26  H   UNL     1       4.432   2.326   0.062  0.00  0.00    +0.210 HD
ENDBRANCH  10   3
BRANCH   8  15
ATOM     15  C   UNL     1       1.964  -2.182  -0.804  0.00  0.00    +0.138 C 
BRANCH  15   6
ATOM      4  O   UNL     1      -0.703  -1.339  -1.601  0.00  0.00    -0.276 OA
ATOM      6  N   UNL     1       0.770  -2.196  -0.011  0.00  0.00    -0.313 N 
ATOM     19  C   UNL     1      -0.466  -1.772  -0.479  0.00  0.00    +0.216 C 
ATOM     24  H   UNL     1       0.842  -2.533   0.945  0.00  0.00    +0.149 HD
BRANCH  19  12
ATOM     12  C   UNL     1      -1.577  -1.877   0.522  0.00  0.00    +0.075 C 
ATOM     13  C   UNL     1      -1.780  -3.338   0.939  0.00  0.00    +0.013 C 
ATOM     14  C   UNL     1      -2.901  -1.418  -0.092  0.00  0.00    +0.013 C 
ATOM     16  C   UNL     1      -3.244  -3.653   0.648  0.00  0.00    +0.001 C 
ATOM     17  C   UNL     1      -3.611  -2.707  -0.480  0.00  0.00    +0.001 C 
ENDBRANCH  19  12
ENDBRANCH  15   6
ENDBRANCH   8  15
BRANCH  11  18
ATOM     18  C   UNL     1       0.757   1.547   0.633  0.00  0.00    +0.130 C 
BRANCH  18  20
ATOM      5  O   UNL     1      -0.142   2.603  -1.351  0.00  0.00    -0.276 OA
ATOM      7  N   UNL     1      -1.459   2.476   0.556  0.00  0.00    -0.313 N 
ATOM     20  C   UNL     1      -0.304   2.262  -0.183  0.00  0.00    +0.216 C 
ATOM     27  H   UNL     1      -1.475   2.207   1.536  0.00  0.00    +0.149 HD
BRANCH   7  21
ATOM     21  C   UNL     1      -2.612   3.134   0.011  0.00  0.00    +0.067 C 
ATOM     22  C   UNL     1      -2.505   4.640   0.211  0.00  0.00    +0.027 C 
ATOM     23  C   UNL     1      -3.888   2.584   0.636  0.00  0.00    +0.027 C 
ENDBRANCH   7  21
ENDBRANCH  18  20
ENDBRANCH  11  18
TORSDOF 8
