MODEL 1
REMARK VINA RESULT:      -6.7      0.000      0.000
REMARK  Name = 45783430
REMARK  12 active torsions:
REMARK  status: ('A' for Active; 'I' for Inactive)
REMARK    1  A    between atoms: O_2  and  C_17
REMARK    2  A    between atoms: O_3  and  C_23
REMARK    3  A    between atoms: O_3  and  C_28
REMARK    4  A    between atoms: O_4  and  C_24
REMARK    5  A    between atoms: O_4  and  C_29
REMARK    6  A    between atoms: O_5  and  C_30
REMARK    7  A    between atoms: O_5  and  C_31
REMARK    8  A    between atoms: N_6  and  C_14
REMARK    9  A    between atoms: C_10  and  C_15
REMARK   10  A    between atoms: C_14  and  C_16
REMARK   11  A    between atoms: C_19  and  C_22
REMARK   12  A    between atoms: C_29  and  C_30
REMARK                            x       y       z     vdW  Elec       q    Type
REMARK                         _______ _______ _______ _____ _____    ______ ____
ROOT
ATOM      6  N   UNL     1      12.514   8.610  18.473  0.00  0.00    -0.287 NA
ATOM     10  C   UNL     1      13.446   7.561  18.015  0.00  0.00    +0.146 C 
ATOM     11  C   UNL     1      14.025   8.101  16.694  0.00  0.00    +0.030 C 
ATOM     12  C   UNL     1      13.315   9.427  16.462  0.00  0.00    +0.017 C 
ATOM     13  C   UNL     1      12.040   9.296  17.270  0.00  0.00    +0.085 C 
ENDROOT
BRANCH  10  15
ATOM      1  O   UNL     1      14.094   6.723  20.218  0.00  0.00    -0.336 OA
ATOM      7  N   UNL     1      15.814   7.407  18.958  0.00  0.00    -0.190 NA
ATOM      8  N   UNL     1      15.245   6.520  20.989  0.00  0.00    -0.056 NA
ATOM     15  C   UNL     1      14.517   7.247  19.038  0.00  0.00    +0.245 A 
ATOM     19  C   UNL     1      16.218   6.949  20.178  0.00  0.00    +0.207 A 
BRANCH  19  22
ATOM      9  N   UNL     1      19.469   7.960  21.692  0.00  0.00    -0.221 NA
ATOM     22  C   UNL     1      17.602   6.929  20.555  0.00  0.00    +0.084 A 
ATOM     24  C   UNL     1      18.171   7.938  21.315  0.00  0.00    +0.226 A 
ATOM     25  C   UNL     1      18.416   5.873  20.159  0.00  0.00    +0.018 A 
ATOM     26  C   UNL     1      19.757   5.861  20.528  0.00  0.00    +0.021 A 
ATOM     27  C   UNL     1      20.230   6.918  21.288  0.00  0.00    +0.114 A 
BRANCH  24   4
ATOM      4  O   UNL     1      17.409   9.000  21.728  0.00  0.00    -0.474 OA
BRANCH   4  29
ATOM     29  C   UNL     1      17.654  10.249  21.092  0.00  0.00    +0.258 C 
BRANCH  29  30
ATOM     30  C   UNL     1      17.125  11.365  21.971  0.00  0.00    +0.200 C 
BRANCH  30   5
ATOM      5  O   UNL     1      15.703  11.369  21.911  0.00  0.00    -0.380 OA
ATOM     31  C   UNL     1      15.127  11.198  23.198  0.00  0.00    +0.194 C 
ENDBRANCH  30   5
ENDBRANCH  29  30
ENDBRANCH   4  29
ENDBRANCH  24   4
ENDBRANCH  19  22
ENDBRANCH  10  15
BRANCH   6  14
ATOM     14  C   UNL     1      11.415   8.091  19.276  0.00  0.00    +0.124 C 
BRANCH  14  16
ATOM     16  C   UNL     1      11.268   8.839  20.575  0.00  0.00    +0.008 A 
ATOM     17  C   UNL     1      10.639   8.247  21.671  0.00  0.00    +0.125 A 
ATOM     18  C   UNL     1      11.770  10.136  20.676  0.00  0.00    +0.012 A 
ATOM     20  C   UNL     1      10.512   8.954  22.867  0.00  0.00    +0.091 A 
ATOM     21  C   UNL     1      11.643  10.843  21.871  0.00  0.00    +0.046 A 
ATOM     23  C   UNL     1      11.013  10.251  22.968  0.00  0.00    +0.124 A 
BRANCH  17   2
ATOM      2  O   UNL     1      10.143   6.982  21.590  0.00  0.00    -0.506 OA
ATOM     32  H   UNL     1      10.855   6.348  21.779  0.00  0.00    +0.292 HD
ENDBRANCH  17   2
BRANCH  23   3
ATOM      3  O   UNL     1      10.890  10.941  24.135  0.00  0.00    -0.495 OA
ATOM     28  C   UNL     1      11.927  11.867  24.454  0.00  0.00    +0.277 C 
ENDBRANCH  23   3
ENDBRANCH  14  16
ENDBRANCH   6  14
TORSDOF 10
ENDMDL
MODEL 2
REMARK VINA RESULT:      -6.5      1.661      2.294
REMARK  Name = 45783430
REMARK  12 active torsions:
REMARK  status: ('A' for Active; 'I' for Inactive)
REMARK    1  A    between atoms: O_2  and  C_17
REMARK    2  A    between atoms: O_3  and  C_23
REMARK    3  A    between atoms: O_3  and  C_28
REMARK    4  A    between atoms: O_4  and  C_24
REMARK    5  A    between atoms: O_4  and  C_29
REMARK    6  A    between atoms: O_5  and  C_30
REMARK    7  A    between atoms: O_5  and  C_31
REMARK    8  A    between atoms: N_6  and  C_14
REMARK    9  A    between atoms: C_10  and  C_15
REMARK   10  A    between atoms: C_14  and  C_16
REMARK   11  A    between atoms: C_19  and  C_22
REMARK   12  A    between atoms: C_29  and  C_30
REMARK                            x       y       z     vdW  Elec       q    Type
REMARK                         _______ _______ _______ _____ _____    ______ ____
ROOT
ATOM      6  N   UNL     1      12.646   8.337  20.165  0.00  0.00    -0.287 NA
ATOM     10  C   UNL     1      13.253   7.148  19.534  0.00  0.00    +0.146 C 
ATOM     11  C   UNL     1      12.907   7.277  18.040  0.00  0.00    +0.030 C 
ATOM     12  C   UNL     1      12.054   8.534  17.938  0.00  0.00    +0.017 C 
ATOM     13  C   UNL     1      11.497   8.703  19.336  0.00  0.00    +0.085 C 
ENDROOT
BRANCH  10  15
ATOM      1  O   UNL     1      15.459   6.302  18.906  0.00  0.00    -0.336 OA
ATOM      7  N   UNL     1      15.463   7.597  20.733  0.00  0.00    -0.190 NA
ATOM      8  N   UNL     1      16.790   6.364  19.336  0.00  0.00    -0.056 NA
ATOM     15  C   UNL     1      14.744   7.054  19.783  0.00  0.00    +0.245 A 
ATOM     19  C   UNL     1      16.711   7.145  20.418  0.00  0.00    +0.207 A 
BRANCH  19  22
ATOM      9  N   UNL     1      19.151   9.163  22.383  0.00  0.00    -0.221 NA
ATOM     22  C   UNL     1      17.859   7.495  21.203  0.00  0.00    +0.084 A 
ATOM     24  C   UNL     1      18.083   8.790  21.642  0.00  0.00    +0.226 A 
ATOM     25  C   UNL     1      18.790   6.520  21.548  0.00  0.00    +0.018 A 
ATOM     26  C   UNL     1      19.901   6.866  22.310  0.00  0.00    +0.021 A 
ATOM     27  C   UNL     1      20.034   8.189  22.699  0.00  0.00    +0.114 A 
BRANCH  24   4
ATOM      4  O   UNL     1      17.195   9.785  21.327  0.00  0.00    -0.474 OA
BRANCH   4  29
ATOM     29  C   UNL     1      17.748  11.009  20.857  0.00  0.00    +0.258 C 
BRANCH  29  30
ATOM     30  C   UNL     1      16.852  11.571  19.770  0.00  0.00    +0.200 C 
BRANCH  30   5
ATOM      5  O   UNL     1      15.772  10.672  19.548  0.00  0.00    -0.380 OA
ATOM     31  C   UNL     1      14.813  11.220  18.654  0.00  0.00    +0.194 C 
ENDBRANCH  30   5
ENDBRANCH  29  30
ENDBRANCH   4  29
ENDBRANCH  24   4
ENDBRANCH  19  22
ENDBRANCH  10  15
BRANCH   6  14
ATOM     14  C   UNL     1      12.272   8.121  21.556  0.00  0.00    +0.124 C 
BRANCH  14  16
ATOM     16  C   UNL     1      12.149   9.418  22.312  0.00  0.00    +0.008 A 
ATOM     17  C   UNL     1      13.252  10.257  22.473  0.00  0.00    +0.125 A 
ATOM     18  C   UNL     1      10.914   9.778  22.853  0.00  0.00    +0.012 A 
ATOM     20  C   UNL     1      13.120  11.454  23.175  0.00  0.00    +0.091 A 
ATOM     21  C   UNL     1      10.783  10.975  23.555  0.00  0.00    +0.046 A 
ATOM     23  C   UNL     1      11.886  11.814  23.716  0.00  0.00    +0.124 A 
BRANCH  17   2
ATOM      2  O   UNL     1      14.464   9.920  21.952  0.00  0.00    -0.506 OA
ATOM     32  H   UNL     1      14.789  10.653  21.402  0.00  0.00    +0.292 HD
ENDBRANCH  17   2
BRANCH  23   3
ATOM      3  O   UNL     1      11.757  12.983  24.401  0.00  0.00    -0.495 OA
ATOM     28  C   UNL     1      10.619  13.116  25.251  0.00  0.00    +0.277 C 
ENDBRANCH  23   3
ENDBRANCH  14  16
ENDBRANCH   6  14
TORSDOF 10
ENDMDL
MODEL 3
REMARK VINA RESULT:      -6.3     26.007     29.302
REMARK  Name = 45783430
REMARK  12 active torsions:
REMARK  status: ('A' for Active; 'I' for Inactive)
REMARK    1  A    between atoms: O_2  and  C_17
REMARK    2  A    between atoms: O_3  and  C_23
REMARK    3  A    between atoms: O_3  and  C_28
REMARK    4  A    between atoms: O_4  and  C_24
REMARK    5  A    between atoms: O_4  and  C_29
REMARK    6  A    between atoms: O_5  and  C_30
REMARK    7  A    between atoms: O_5  and  C_31
REMARK    8  A    between atoms: N_6  and  C_14
REMARK    9  A    between atoms: C_10  and  C_15
REMARK   10  A    between atoms: C_14  and  C_16
REMARK   11  A    between atoms: C_19  and  C_22
REMARK   12  A    between atoms: C_29  and  C_30
REMARK                            x       y       z     vdW  Elec       q    Type
REMARK                         _______ _______ _______ _____ _____    ______ ____
ROOT
ATOM      6  N   UNL     1      -2.932 -10.572  14.233  0.00  0.00    -0.287 NA
ATOM     10  C   UNL     1      -3.025 -11.335  15.494  0.00  0.00    +0.146 C 
ATOM     11  C   UNL     1      -1.843 -10.832  16.343  0.00  0.00    +0.030 C 
ATOM     12  C   UNL     1      -1.110  -9.837  15.454  0.00  0.00    +0.017 C 
ATOM     13  C   UNL     1      -1.519 -10.242  14.053  0.00  0.00    +0.085 C 
ENDROOT
BRANCH  10  15
ATOM      1  O   UNL     1      -4.884  -9.902  16.177  0.00  0.00    -0.336 OA
ATOM      7  N   UNL     1      -5.100 -12.042  16.804  0.00  0.00    -0.190 NA
ATOM      8  N   UNL     1      -6.100  -9.985  16.867  0.00  0.00    -0.056 NA
ATOM     15  C   UNL     1      -4.360 -11.156  16.186  0.00  0.00    +0.245 A 
ATOM     19  C   UNL     1      -6.157 -11.277  17.205  0.00  0.00    +0.207 A 
BRANCH  19  22
ATOM      9  N   UNL     1      -9.592 -12.438  18.064  0.00  0.00    -0.221 NA
ATOM     22  C   UNL     1      -7.254 -11.835  17.941  0.00  0.00    +0.084 A 
ATOM     24  C   UNL     1      -8.530 -11.920  17.407  0.00  0.00    +0.226 A 
ATOM     25  C   UNL     1      -7.055 -12.314  19.232  0.00  0.00    +0.018 A 
ATOM     26  C   UNL     1      -8.124 -12.854  19.939  0.00  0.00    +0.021 A 
ATOM     27  C   UNL     1      -9.361 -12.893  19.316  0.00  0.00    +0.114 A 
BRANCH  24   4
ATOM      4  O   UNL     1      -8.775 -11.461  16.139  0.00  0.00    -0.474 OA
BRANCH   4  29
ATOM     29  C   UNL     1      -9.787 -10.470  16.003  0.00  0.00    +0.258 C 
BRANCH  29  30
ATOM     30  C   UNL     1      -9.232  -9.301  15.213  0.00  0.00    +0.200 C 
BRANCH  30   5
ATOM      5  O   UNL     1      -9.674  -8.087  15.810  0.00  0.00    -0.380 OA
ATOM     31  C   UNL     1      -9.600  -8.147  17.227  0.00  0.00    +0.194 C 
ENDBRANCH  30   5
ENDBRANCH  29  30
ENDBRANCH   4  29
ENDBRANCH  24   4
ENDBRANCH  19  22
ENDBRANCH  10  15
BRANCH   6  14
ATOM     14  C   UNL     1      -3.479 -11.289  13.088  0.00  0.00    +0.124 C 
BRANCH  14  16
ATOM     16  C   UNL     1      -4.126 -10.355  12.100  0.00  0.00    +0.008 A 
ATOM     17  C   UNL     1      -5.359  -9.765  12.379  0.00  0.00    +0.125 A 
ATOM     18  C   UNL     1      -3.479 -10.082  10.894  0.00  0.00    +0.012 A 
ATOM     20  C   UNL     1      -5.945  -8.902  11.453  0.00  0.00    +0.091 A 
ATOM     21  C   UNL     1      -4.065  -9.220   9.968  0.00  0.00    +0.046 A 
ATOM     23  C   UNL     1      -5.299  -8.629  10.247  0.00  0.00    +0.124 A 
BRANCH  17   2
ATOM      2  O   UNL     1      -6.004 -10.021  13.551  0.00  0.00    -0.506 OA
ATOM     32  H   UNL     1      -6.963  -9.946  13.409  0.00  0.00    +0.292 HD
ENDBRANCH  17   2
BRANCH  23   3
ATOM      3  O   UNL     1      -5.869  -7.787   9.343  0.00  0.00    -0.495 OA
ATOM     28  C   UNL     1      -7.197  -8.091   8.919  0.00  0.00    +0.277 C 
ENDBRANCH  23   3
ENDBRANCH  14  16
ENDBRANCH   6  14
TORSDOF 10
ENDMDL
MODEL 4
REMARK VINA RESULT:      -6.2     26.131     29.516
REMARK  Name = 45783430
REMARK  12 active torsions:
REMARK  status: ('A' for Active; 'I' for Inactive)
REMARK    1  A    between atoms: O_2  and  C_17
REMARK    2  A    between atoms: O_3  and  C_23
REMARK    3  A    between atoms: O_3  and  C_28
REMARK    4  A    between atoms: O_4  and  C_24
REMARK    5  A    between atoms: O_4  and  C_29
REMARK    6  A    between atoms: O_5  and  C_30
REMARK    7  A    between atoms: O_5  and  C_31
REMARK    8  A    between atoms: N_6  and  C_14
REMARK    9  A    between atoms: C_10  and  C_15
REMARK   10  A    between atoms: C_14  and  C_16
REMARK   11  A    between atoms: C_19  and  C_22
REMARK   12  A    between atoms: C_29  and  C_30
REMARK                            x       y       z     vdW  Elec       q    Type
REMARK                         _______ _______ _______ _____ _____    ______ ____
ROOT
ATOM      6  N   UNL     1      -3.237 -10.579  14.400  0.00  0.00    -0.287 NA
ATOM     10  C   UNL     1      -3.164 -11.271  15.702  0.00  0.00    +0.146 C 
ATOM     11  C   UNL     1      -1.837 -10.798  16.322  0.00  0.00    +0.030 C 
ATOM     12  C   UNL     1      -1.208  -9.892  15.273  0.00  0.00    +0.017 C 
ATOM     13  C   UNL     1      -1.857 -10.342  13.979  0.00  0.00    +0.085 C 
ENDROOT
BRANCH  10  15
ATOM      1  O   UNL     1      -4.136 -10.974  17.925  0.00  0.00    -0.336 OA
ATOM      7  N   UNL     1      -5.599 -10.729  16.247  0.00  0.00    -0.190 NA
ATOM      8  N   UNL     1      -5.370 -10.686  18.523  0.00  0.00    -0.056 NA
ATOM     15  C   UNL     1      -4.359 -10.980  16.585  0.00  0.00    +0.245 A 
ATOM     19  C   UNL     1      -6.181 -10.556  17.469  0.00  0.00    +0.207 A 
BRANCH  19  22
ATOM      9  N   UNL     1      -9.807 -10.925  18.248  0.00  0.00    -0.221 NA
ATOM     22  C   UNL     1      -7.577 -10.252  17.602  0.00  0.00    +0.084 A 
ATOM     24  C   UNL     1      -8.485 -11.169  18.105  0.00  0.00    +0.226 A 
ATOM     25  C   UNL     1      -8.055  -9.002  17.223  0.00  0.00    +0.018 A 
ATOM     26  C   UNL     1      -9.410  -8.714  17.355  0.00  0.00    +0.021 A 
ATOM     27  C   UNL     1     -10.236  -9.700  17.868  0.00  0.00    +0.114 A 
BRANCH  24   4
ATOM      4  O   UNL     1      -8.060 -12.414  18.492  0.00  0.00    -0.474 OA
BRANCH   4  29
ATOM     29  C   UNL     1      -8.040 -12.676  19.890  0.00  0.00    +0.258 C 
BRANCH  29  30
ATOM     30  C   UNL     1      -8.975 -13.832  20.191  0.00  0.00    +0.200 C 
BRANCH  30   5
ATOM      5  O   UNL     1     -10.153 -13.326  20.809  0.00  0.00    -0.380 OA
ATOM     31  C   UNL     1     -11.319 -13.688  20.082  0.00  0.00    +0.194 C 
ENDBRANCH  30   5
ENDBRANCH  29  30
ENDBRANCH   4  29
ENDBRANCH  24   4
ENDBRANCH  19  22
ENDBRANCH  10  15
BRANCH   6  14
ATOM     14  C   UNL     1      -3.996 -11.317  13.399  0.00  0.00    +0.124 C 
BRANCH  14  16
ATOM     16  C   UNL     1      -4.525 -10.414  12.317  0.00  0.00    +0.008 A 
ATOM     17  C   UNL     1      -5.593  -9.551  12.567  0.00  0.00    +0.125 A 
ATOM     18  C   UNL     1      -3.935 -10.445  11.053  0.00  0.00    +0.012 A 
ATOM     20  C   UNL     1      -6.070  -8.721  11.553  0.00  0.00    +0.091 A 
ATOM     21  C   UNL     1      -4.412  -9.615  10.040  0.00  0.00    +0.046 A 
ATOM     23  C   UNL     1      -5.480  -8.751  10.289  0.00  0.00    +0.124 A 
BRANCH  17   2
ATOM      2  O   UNL     1      -6.181  -9.508  13.794  0.00  0.00    -0.506 OA
ATOM     32  H   UNL     1      -5.545  -9.816  14.463  0.00  0.00    +0.292 HD
ENDBRANCH  17   2
BRANCH  23   3
ATOM      3  O   UNL     1      -5.944  -7.941   9.300  0.00  0.00    -0.495 OA
ATOM     28  C   UNL     1      -7.130  -8.355   8.623  0.00  0.00    +0.277 C 
ENDBRANCH  23   3
ENDBRANCH  14  16
ENDBRANCH   6  14
TORSDOF 10
ENDMDL
MODEL 5
REMARK VINA RESULT:      -6.2     25.628     28.915
REMARK  Name = 45783430
REMARK  12 active torsions:
REMARK  status: ('A' for Active; 'I' for Inactive)
REMARK    1  A    between atoms: O_2  and  C_17
REMARK    2  A    between atoms: O_3  and  C_23
REMARK    3  A    between atoms: O_3  and  C_28
REMARK    4  A    between atoms: O_4  and  C_24
REMARK    5  A    between atoms: O_4  and  C_29
REMARK    6  A    between atoms: O_5  and  C_30
REMARK    7  A    between atoms: O_5  and  C_31
REMARK    8  A    between atoms: N_6  and  C_14
REMARK    9  A    between atoms: C_10  and  C_15
REMARK   10  A    between atoms: C_14  and  C_16
REMARK   11  A    between atoms: C_19  and  C_22
REMARK   12  A    between atoms: C_29  and  C_30
REMARK                            x       y       z     vdW  Elec       q    Type
REMARK                         _______ _______ _______ _____ _____    ______ ____
ROOT
ATOM      6  N   UNL     1      -2.664 -10.529  13.784  0.00  0.00    -0.287 NA
ATOM     10  C   UNL     1      -3.047 -11.351  14.949  0.00  0.00    +0.146 C 
ATOM     11  C   UNL     1      -2.145 -10.852  16.093  0.00  0.00    +0.030 C 
ATOM     12  C   UNL     1      -1.250  -9.796  15.461  0.00  0.00    +0.017 C 
ATOM     13  C   UNL     1      -1.267 -10.148  13.988  0.00  0.00    +0.085 C 
ENDROOT
BRANCH  10  15
ATOM      1  O   UNL     1      -5.180 -12.413  15.492  0.00  0.00    -0.336 OA
ATOM      7  N   UNL     1      -5.272 -10.178  15.390  0.00  0.00    -0.190 NA
ATOM      8  N   UNL     1      -6.507 -12.065  15.774  0.00  0.00    -0.056 NA
ATOM     15  C   UNL     1      -4.521 -11.245  15.278  0.00  0.00    +0.245 A 
ATOM     19  C   UNL     1      -6.482 -10.731  15.694  0.00  0.00    +0.207 A 
BRANCH  19  22
ATOM      9  N   UNL     1      -9.072  -8.685  17.424  0.00  0.00    -0.221 NA
ATOM     22  C   UNL     1      -7.646  -9.922  15.914  0.00  0.00    +0.084 A 
ATOM     24  C   UNL     1      -7.985  -9.450  17.171  0.00  0.00    +0.226 A 
ATOM     25  C   UNL     1      -8.473  -9.588  14.847  0.00  0.00    +0.018 A 
ATOM     26  C   UNL     1      -9.600  -8.804  15.068  0.00  0.00    +0.021 A 
ATOM     27  C   UNL     1      -9.853  -8.381  16.363  0.00  0.00    +0.114 A 
BRANCH  24   4
ATOM      4  O   UNL     1      -7.201  -9.753  18.254  0.00  0.00    -0.474 OA
BRANCH   4  29
ATOM     29  C   UNL     1      -7.648 -10.814  19.089  0.00  0.00    +0.258 C 
BRANCH  29  30
ATOM     30  C   UNL     1      -6.481 -11.737  19.384  0.00  0.00    +0.200 C 
BRANCH  30   5
ATOM      5  O   UNL     1      -5.269 -11.077  19.038  0.00  0.00    -0.380 OA
ATOM     31  C   UNL     1      -4.169 -11.976  19.037  0.00  0.00    +0.194 C 
ENDBRANCH  30   5
ENDBRANCH  29  30
ENDBRANCH   4  29
ENDBRANCH  24   4
ENDBRANCH  19  22
ENDBRANCH  10  15
BRANCH   6  14
ATOM     14  C   UNL     1      -2.867 -11.208  12.511  0.00  0.00    +0.124 C 
BRANCH  14  16
ATOM     16  C   UNL     1      -3.795 -10.439  11.607  0.00  0.00    +0.008 A 
ATOM     17  C   UNL     1      -3.297  -9.483  10.721  0.00  0.00    +0.125 A 
ATOM     18  C   UNL     1      -5.165 -10.693  11.661  0.00  0.00    +0.012 A 
ATOM     20  C   UNL     1      -4.169  -8.780   9.891  0.00  0.00    +0.091 A 
ATOM     21  C   UNL     1      -6.038  -9.990  10.830  0.00  0.00    +0.046 A 
ATOM     23  C   UNL     1      -5.540  -9.033   9.944  0.00  0.00    +0.124 A 
BRANCH  17   2
ATOM      2  O   UNL     1      -1.961  -9.223  10.657  0.00  0.00    -0.506 OA
ATOM     32  H   UNL     1      -1.552  -9.821  10.009  0.00  0.00    +0.292 HD
ENDBRANCH  17   2
BRANCH  23   3
ATOM      3  O   UNL     1      -6.392  -8.349   9.134  0.00  0.00    -0.495 OA
ATOM     28  C   UNL     1      -6.937  -9.054   8.020  0.00  0.00    +0.277 C 
ENDBRANCH  23   3
ENDBRANCH  14  16
ENDBRANCH   6  14
TORSDOF 10
ENDMDL
MODEL 6
REMARK VINA RESULT:      -6.0     15.838     19.116
REMARK  Name = 45783430
REMARK  12 active torsions:
REMARK  status: ('A' for Active; 'I' for Inactive)
REMARK    1  A    between atoms: O_2  and  C_17
REMARK    2  A    between atoms: O_3  and  C_23
REMARK    3  A    between atoms: O_3  and  C_28
REMARK    4  A    between atoms: O_4  and  C_24
REMARK    5  A    between atoms: O_4  and  C_29
REMARK    6  A    between atoms: O_5  and  C_30
REMARK    7  A    between atoms: O_5  and  C_31
REMARK    8  A    between atoms: N_6  and  C_14
REMARK    9  A    between atoms: C_10  and  C_15
REMARK   10  A    between atoms: C_14  and  C_16
REMARK   11  A    between atoms: C_19  and  C_22
REMARK   12  A    between atoms: C_29  and  C_30
REMARK                            x       y       z     vdW  Elec       q    Type
REMARK                         _______ _______ _______ _____ _____    ______ ____
ROOT
ATOM      6  N   UNL     1       9.388   7.869   3.703  0.00  0.00    -0.287 NA
ATOM     10  C   UNL     1       9.452   7.657   2.244  0.00  0.00    +0.146 C 
ATOM     11  C   UNL     1       9.955   8.996   1.676  0.00  0.00    +0.030 C 
ATOM     12  C   UNL     1      10.086   9.915   2.882  0.00  0.00    +0.017 C 
ATOM     13  C   UNL     1       9.152   9.299   3.904  0.00  0.00    +0.085 C 
ENDROOT
BRANCH  10  15
ATOM      1  O   UNL     1       9.777   5.254   1.930  0.00  0.00    -0.336 OA
ATOM      7  N   UNL     1      11.589   6.490   1.473  0.00  0.00    -0.190 NA
ATOM      8  N   UNL     1      10.775   4.352   1.539  0.00  0.00    -0.056 NA
ATOM     15  C   UNL     1      10.339   6.490   1.863  0.00  0.00    +0.245 A 
ATOM     19  C   UNL     1      11.812   5.156   1.287  0.00  0.00    +0.207 A 
BRANCH  19  22
ATOM      9  N   UNL     1      14.572   4.048  -0.959  0.00  0.00    -0.221 NA
ATOM     22  C   UNL     1      13.084   4.661   0.845  0.00  0.00    +0.084 A 
ATOM     24  C   UNL     1      13.388   4.511  -0.499  0.00  0.00    +0.226 A 
ATOM     25  C   UNL     1      14.057   4.314   1.776  0.00  0.00    +0.018 A 
ATOM     26  C   UNL     1      15.288   3.834   1.340  0.00  0.00    +0.021 A 
ATOM     27  C   UNL     1      15.493   3.721  -0.025  0.00  0.00    +0.114 A 
BRANCH  24   4
ATOM      4  O   UNL     1      12.461   4.839  -1.453  0.00  0.00    -0.474 OA
BRANCH   4  29
ATOM     29  C   UNL     1      12.117   3.821  -2.387  0.00  0.00    +0.258 C 
BRANCH  29  30
ATOM     30  C   UNL     1      10.612   3.807  -2.572  0.00  0.00    +0.200 C 
BRANCH  30   5
ATOM      5  O   UNL     1      10.023   4.719  -1.653  0.00  0.00    -0.380 OA
ATOM     31  C   UNL     1       8.953   5.440  -2.248  0.00  0.00    +0.194 C 
ENDBRANCH  30   5
ENDBRANCH  29  30
ENDBRANCH   4  29
ENDBRANCH  24   4
ENDBRANCH  19  22
ENDBRANCH  10  15
BRANCH   6  14
ATOM     14  C   UNL     1       8.375   7.050   4.358  0.00  0.00    +0.124 C 
BRANCH  14  16
ATOM     16  C   UNL     1       8.846   6.539   5.694  0.00  0.00    +0.008 A 
ATOM     17  C   UNL     1       9.621   5.382   5.782  0.00  0.00    +0.125 A 
ATOM     18  C   UNL     1       8.499   7.235   6.852  0.00  0.00    +0.012 A 
ATOM     20  C   UNL     1      10.049   4.923   7.027  0.00  0.00    +0.091 A 
ATOM     21  C   UNL     1       8.927   6.776   8.097  0.00  0.00    +0.046 A 
ATOM     23  C   UNL     1       9.703   5.619   8.185  0.00  0.00    +0.124 A 
BRANCH  17   2
ATOM      2  O   UNL     1       9.968   4.690   4.662  0.00  0.00    -0.506 OA
ATOM     32  H   UNL     1       9.178   4.562   4.109  0.00  0.00    +0.292 HD
ENDBRANCH  17   2
BRANCH  23   3
ATOM      3  O   UNL     1      10.120   5.171   9.401  0.00  0.00    -0.495 OA
ATOM     28  C   UNL     1       9.133   4.601  10.258  0.00  0.00    +0.277 C 
ENDBRANCH  23   3
ENDBRANCH  14  16
ENDBRANCH   6  14
TORSDOF 10
ENDMDL
MODEL 7
REMARK VINA RESULT:      -6.0     27.381     29.420
REMARK  Name = 45783430
REMARK  12 active torsions:
REMARK  status: ('A' for Active; 'I' for Inactive)
REMARK    1  A    between atoms: O_2  and  C_17
REMARK    2  A    between atoms: O_3  and  C_23
REMARK    3  A    between atoms: O_3  and  C_28
REMARK    4  A    between atoms: O_4  and  C_24
REMARK    5  A    between atoms: O_4  and  C_29
REMARK    6  A    between atoms: O_5  and  C_30
REMARK    7  A    between atoms: O_5  and  C_31
REMARK    8  A    between atoms: N_6  and  C_14
REMARK    9  A    between atoms: C_10  and  C_15
REMARK   10  A    between atoms: C_14  and  C_16
REMARK   11  A    between atoms: C_19  and  C_22
REMARK   12  A    between atoms: C_29  and  C_30
REMARK                            x       y       z     vdW  Elec       q    Type
REMARK                         _______ _______ _______ _____ _____    ______ ____
ROOT
ATOM      6  N   UNL     1      -7.213 -10.642  17.729  0.00  0.00    -0.287 NA
ATOM     10  C   UNL     1      -5.791 -11.019  17.849  0.00  0.00    +0.146 C 
ATOM     11  C   UNL     1      -5.790 -12.253  18.769  0.00  0.00    +0.030 C 
ATOM     12  C   UNL     1      -7.246 -12.456  19.163  0.00  0.00    +0.017 C 
ATOM     13  C   UNL     1      -7.865 -11.089  18.960  0.00  0.00    +0.085 C 
ENDROOT
BRANCH  10  15
ATOM      1  O   UNL     1      -4.911 -12.592  16.198  0.00  0.00    -0.336 OA
ATOM      7  N   UNL     1      -4.768 -10.444  15.581  0.00  0.00    -0.190 NA
ATOM      8  N   UNL     1      -4.317 -12.590  14.929  0.00  0.00    -0.056 NA
ATOM     15  C   UNL     1      -5.144 -11.290  16.507  0.00  0.00    +0.245 A 
ATOM     19  C   UNL     1      -4.266 -11.288  14.633  0.00  0.00    +0.207 A 
BRANCH  19  22
ATOM      9  N   UNL     1      -4.042  -9.698  11.270  0.00  0.00    -0.221 NA
ATOM     22  C   UNL     1      -3.723 -10.797  13.399  0.00  0.00    +0.084 A 
ATOM     24  C   UNL     1      -4.511 -10.175  12.445  0.00  0.00    +0.226 A 
ATOM     25  C   UNL     1      -2.365 -10.938  13.132  0.00  0.00    +0.018 A 
ATOM     26  C   UNL     1      -1.846 -10.460  11.934  0.00  0.00    +0.021 A 
ATOM     27  C   UNL     1      -2.718  -9.854  11.045  0.00  0.00    +0.114 A 
BRANCH  24   4
ATOM      4  O   UNL     1      -5.855 -10.014  12.663  0.00  0.00    -0.474 OA
BRANCH   4  29
ATOM     29  C   UNL     1      -6.511  -9.010  11.896  0.00  0.00    +0.258 C 
BRANCH  29  30
ATOM     30  C   UNL     1      -7.811  -9.571  11.354  0.00  0.00    +0.200 C 
BRANCH  30   5
ATOM      5  O   UNL     1      -7.996 -10.887  11.864  0.00  0.00    -0.380 OA
ATOM     31  C   UNL     1      -9.329 -11.338  11.666  0.00  0.00    +0.194 C 
ENDBRANCH  30   5
ENDBRANCH  29  30
ENDBRANCH   4  29
ENDBRANCH  24   4
ENDBRANCH  19  22
ENDBRANCH  10  15
BRANCH   6  14
ATOM     14  C   UNL     1      -7.412  -9.219  17.489  0.00  0.00    +0.124 C 
BRANCH  14  16
ATOM     16  C   UNL     1      -8.660  -8.953  16.690  0.00  0.00    +0.008 A 
ATOM     17  C   UNL     1      -8.812  -9.483  15.408  0.00  0.00    +0.125 A 
ATOM     18  C   UNL     1      -9.671  -8.169  17.245  0.00  0.00    +0.012 A 
ATOM     20  C   UNL     1      -9.975  -9.227  14.682  0.00  0.00    +0.091 A 
ATOM     21  C   UNL     1     -10.834  -7.913  16.518  0.00  0.00    +0.046 A 
ATOM     23  C   UNL     1     -10.986  -8.443  15.236  0.00  0.00    +0.124 A 
BRANCH  17   2
ATOM      2  O   UNL     1      -7.834 -10.250  14.851  0.00  0.00    -0.506 OA
ATOM     32  H   UNL     1      -7.946 -11.170  15.145  0.00  0.00    +0.292 HD
ENDBRANCH  17   2
BRANCH  23   3
ATOM      3  O   UNL     1     -12.122  -8.194  14.528  0.00  0.00    -0.495 OA
ATOM     28  C   UNL     1     -12.243  -6.906  13.926  0.00  0.00    +0.277 C 
ENDBRANCH  23   3
ENDBRANCH  14  16
ENDBRANCH   6  14
TORSDOF 10
ENDMDL
MODEL 8
REMARK VINA RESULT:      -5.9     16.925     20.662
REMARK  Name = 45783430
REMARK  12 active torsions:
REMARK  status: ('A' for Active; 'I' for Inactive)
REMARK    1  A    between atoms: O_2  and  C_17
REMARK    2  A    between atoms: O_3  and  C_23
REMARK    3  A    between atoms: O_3  and  C_28
REMARK    4  A    between atoms: O_4  and  C_24
REMARK    5  A    between atoms: O_4  and  C_29
REMARK    6  A    between atoms: O_5  and  C_30
REMARK    7  A    between atoms: O_5  and  C_31
REMARK    8  A    between atoms: N_6  and  C_14
REMARK    9  A    between atoms: C_10  and  C_15
REMARK   10  A    between atoms: C_14  and  C_16
REMARK   11  A    between atoms: C_19  and  C_22
REMARK   12  A    between atoms: C_29  and  C_30
REMARK                            x       y       z     vdW  Elec       q    Type
REMARK                         _______ _______ _______ _____ _____    ______ ____
ROOT
ATOM      6  N   UNL     1      13.528   3.996  -0.437  0.00  0.00    -0.287 NA
ATOM     10  C   UNL     1      13.531   3.450   0.935  0.00  0.00    +0.146 C 
ATOM     11  C   UNL     1      14.920   3.807   1.495  0.00  0.00    +0.030 C 
ATOM     12  C   UNL     1      15.645   4.496   0.349  0.00  0.00    +0.017 C 
ATOM     13  C   UNL     1      14.921   3.996  -0.884  0.00  0.00    +0.085 C 
ENDROOT
BRANCH  10  15
ATOM      1  O   UNL     1      11.706   3.094   2.521  0.00  0.00    -0.336 OA
ATOM      7  N   UNL     1      11.982   5.231   1.910  0.00  0.00    -0.190 NA
ATOM      8  N   UNL     1      10.727   3.824   3.207  0.00  0.00    -0.056 NA
ATOM     15  C   UNL     1      12.400   3.997   1.781  0.00  0.00    +0.245 A 
ATOM     19  C   UNL     1      10.954   5.075   2.794  0.00  0.00    +0.207 A 
BRANCH  19  22
ATOM      9  N   UNL     1       9.288   7.517   5.064  0.00  0.00    -0.221 NA
ATOM     22  C   UNL     1      10.174   6.191   3.247  0.00  0.00    +0.084 A 
ATOM     24  C   UNL     1      10.013   6.477   4.593  0.00  0.00    +0.226 A 
ATOM     25  C   UNL     1       9.552   7.025   2.324  0.00  0.00    +0.018 A 
ATOM     26  C   UNL     1       8.798   8.105   2.771  0.00  0.00    +0.021 A 
ATOM     27  C   UNL     1       8.698   8.306   4.138  0.00  0.00    +0.114 A 
BRANCH  24   4
ATOM      4  O   UNL     1      10.606   5.683   5.540  0.00  0.00    -0.474 OA
BRANCH   4  29
ATOM     29  C   UNL     1       9.818   5.345   6.675  0.00  0.00    +0.258 C 
BRANCH  29  30
ATOM     30  C   UNL     1      10.588   5.694   7.934  0.00  0.00    +0.200 C 
BRANCH  30   5
ATOM      5  O   UNL     1      10.528   4.593   8.834  0.00  0.00    -0.380 OA
ATOM     31  C   UNL     1       9.305   4.578   9.557  0.00  0.00    +0.194 C 
ENDBRANCH  30   5
ENDBRANCH  29  30
ENDBRANCH   4  29
ENDBRANCH  24   4
ENDBRANCH  19  22
ENDBRANCH  10  15
BRANCH   6  14
ATOM     14  C   UNL     1      12.661   3.258  -1.346  0.00  0.00    +0.124 C 
BRANCH  14  16
ATOM     16  C   UNL     1      11.564   4.127  -1.904  0.00  0.00    +0.008 A 
ATOM     17  C   UNL     1      10.484   3.564  -2.583  0.00  0.00    +0.125 A 
ATOM     18  C   UNL     1      11.637   5.510  -1.734  0.00  0.00    +0.012 A 
ATOM     20  C   UNL     1       9.477   4.383  -3.092  0.00  0.00    +0.091 A 
ATOM     21  C   UNL     1      10.630   6.329  -2.243  0.00  0.00    +0.046 A 
ATOM     23  C   UNL     1       9.549   5.766  -2.923  0.00  0.00    +0.124 A 
BRANCH  17   2
ATOM      2  O   UNL     1      10.398   2.216  -2.758  0.00  0.00    -0.506 OA
ATOM     32  H   UNL     1      11.274   1.820  -2.613  0.00  0.00    +0.292 HD
ENDBRANCH  17   2
BRANCH  23   3
ATOM      3  O   UNL     1       8.566   6.566  -3.419  0.00  0.00    -0.495 OA
ATOM     28  C   UNL     1       7.973   7.500  -2.519  0.00  0.00    +0.277 C 
ENDBRANCH  23   3
ENDBRANCH  14  16
ENDBRANCH   6  14
TORSDOF 10
ENDMDL
MODEL 9
REMARK VINA RESULT:      -5.8     27.278     29.333
REMARK  Name = 45783430
REMARK  12 active torsions:
REMARK  status: ('A' for Active; 'I' for Inactive)
REMARK    1  A    between atoms: O_2  and  C_17
REMARK    2  A    between atoms: O_3  and  C_23
REMARK    3  A    between atoms: O_3  and  C_28
REMARK    4  A    between atoms: O_4  and  C_24
REMARK    5  A    between atoms: O_4  and  C_29
REMARK    6  A    between atoms: O_5  and  C_30
REMARK    7  A    between atoms: O_5  and  C_31
REMARK    8  A    between atoms: N_6  and  C_14
REMARK    9  A    between atoms: C_10  and  C_15
REMARK   10  A    between atoms: C_14  and  C_16
REMARK   11  A    between atoms: C_19  and  C_22
REMARK   12  A    between atoms: C_29  and  C_30
REMARK                            x       y       z     vdW  Elec       q    Type
REMARK                         _______ _______ _______ _____ _____    ______ ____
ROOT
ATOM      6  N   UNL     1      -3.697 -11.919  13.221  0.00  0.00    -0.287 NA
ATOM     10  C   UNL     1      -2.906 -12.041  11.980  0.00  0.00    +0.146 C 
ATOM     11  C   UNL     1      -2.976 -13.535  11.617  0.00  0.00    +0.030 C 
ATOM     12  C   UNL     1      -3.773 -14.180  12.742  0.00  0.00    +0.017 C 
ATOM     13  C   UNL     1      -3.608 -13.214  13.897  0.00  0.00    +0.085 C 
ENDROOT
BRANCH  10  15
ATOM      1  O   UNL     1      -2.811  -9.938  10.738  0.00  0.00    -0.336 OA
ATOM      7  N   UNL     1      -4.380 -11.360  10.009  0.00  0.00    -0.190 NA
ATOM      8  N   UNL     1      -3.448  -9.299   9.666  0.00  0.00    -0.056 NA
ATOM     15  C   UNL     1      -3.420 -11.145  10.873  0.00  0.00    +0.245 A 
ATOM     19  C   UNL     1      -4.361 -10.200   9.290  0.00  0.00    +0.207 A 
BRANCH  19  22
ATOM      9  N   UNL     1      -7.210  -8.853   7.301  0.00  0.00    -0.221 NA
ATOM     22  C   UNL     1      -5.265  -9.974   8.201  0.00  0.00    +0.084 A 
ATOM     24  C   UNL     1      -6.333  -9.097   8.302  0.00  0.00    +0.226 A 
ATOM     25  C   UNL     1      -5.084 -10.644   6.995  0.00  0.00    +0.018 A 
ATOM     26  C   UNL     1      -5.965 -10.419   5.943  0.00  0.00    +0.021 A 
ATOM     27  C   UNL     1      -7.002  -9.523   6.144  0.00  0.00    +0.114 A 
BRANCH  24   4
ATOM      4  O   UNL     1      -6.553  -8.414   9.470  0.00  0.00    -0.474 OA
BRANCH   4  29
ATOM     29  C   UNL     1      -7.575  -8.919  10.322  0.00  0.00    +0.258 C 
BRANCH  29  30
ATOM     30  C   UNL     1      -6.971  -9.259  11.671  0.00  0.00    +0.200 C 
BRANCH  30   5
ATOM      5  O   UNL     1      -7.356 -10.580  12.032  0.00  0.00    -0.380 OA
ATOM     31  C   UNL     1      -7.916 -11.279  10.928  0.00  0.00    +0.194 C 
ENDBRANCH  30   5
ENDBRANCH  29  30
ENDBRANCH   4  29
ENDBRANCH  24   4
ENDBRANCH  19  22
ENDBRANCH  10  15
BRANCH   6  14
ATOM     14  C   UNL     1      -3.258 -10.824  14.077  0.00  0.00    +0.124 C 
BRANCH  14  16
ATOM     16  C   UNL     1      -4.191 -10.612  15.240  0.00  0.00    +0.008 A 
ATOM     17  C   UNL     1      -3.767 -10.851  16.547  0.00  0.00    +0.125 A 
ATOM     18  C   UNL     1      -5.492 -10.170  14.999  0.00  0.00    +0.012 A 
ATOM     20  C   UNL     1      -4.643 -10.650  17.612  0.00  0.00    +0.091 A 
ATOM     21  C   UNL     1      -6.369  -9.968  16.064  0.00  0.00    +0.046 A 
ATOM     23  C   UNL     1      -5.944 -10.208  17.372  0.00  0.00    +0.124 A 
BRANCH  17   2
ATOM      2  O   UNL     1      -2.500 -11.284  16.800  0.00  0.00    -0.506 OA
ATOM     32  H   UNL     1      -2.066 -11.505  15.958  0.00  0.00    +0.292 HD
ENDBRANCH  17   2
BRANCH  23   3
ATOM      3  O   UNL     1      -6.801 -10.010  18.411  0.00  0.00    -0.495 OA
ATOM     28  C   UNL     1      -6.425 -10.555  19.675  0.00  0.00    +0.277 C 
ENDBRANCH  23   3
ENDBRANCH  14  16
ENDBRANCH   6  14
TORSDOF 10
ENDMDL
MODEL 10
REMARK VINA RESULT:      -5.8     14.820     17.983
REMARK  Name = 45783430
REMARK  12 active torsions:
REMARK  status: ('A' for Active; 'I' for Inactive)
REMARK    1  A    between atoms: O_2  and  C_17
REMARK    2  A    between atoms: O_3  and  C_23
REMARK    3  A    between atoms: O_3  and  C_28
REMARK    4  A    between atoms: O_4  and  C_24
REMARK    5  A    between atoms: O_4  and  C_29
REMARK    6  A    between atoms: O_5  and  C_30
REMARK    7  A    between atoms: O_5  and  C_31
REMARK    8  A    between atoms: N_6  and  C_14
REMARK    9  A    between atoms: C_10  and  C_15
REMARK   10  A    between atoms: C_14  and  C_16
REMARK   11  A    between atoms: C_19  and  C_22
REMARK   12  A    between atoms: C_29  and  C_30
REMARK                            x       y       z     vdW  Elec       q    Type
REMARK                         _______ _______ _______ _____ _____    ______ ____
ROOT
ATOM      6  N   UNL     1       9.334   8.009   3.699  0.00  0.00    -0.287 NA
ATOM     10  C   UNL     1       9.365   7.875   2.229  0.00  0.00    +0.146 C 
ATOM     11  C   UNL     1       9.830   9.252   1.720  0.00  0.00    +0.030 C 
ATOM     12  C   UNL     1       9.975  10.109   2.970  0.00  0.00    +0.017 C 
ATOM     13  C   UNL     1       9.079   9.422   3.980  0.00  0.00    +0.085 C 
ENDROOT
BRANCH  10  15
ATOM      1  O   UNL     1       9.785   5.486   1.928  0.00  0.00    -0.336 OA
ATOM      7  N   UNL     1      11.453   6.803   1.223  0.00  0.00    -0.190 NA
ATOM      8  N   UNL     1      10.776   4.628   1.435  0.00  0.00    -0.056 NA
ATOM     15  C   UNL     1      10.263   6.747   1.766  0.00  0.00    +0.245 A 
ATOM     19  C   UNL     1      11.727   5.479   1.038  0.00  0.00    +0.207 A 
BRANCH  19  22
ATOM      9  N   UNL     1      15.352   4.724   0.614  0.00  0.00    -0.221 NA
ATOM     22  C   UNL     1      12.961   5.040   0.452  0.00  0.00    +0.084 A 
ATOM     24  C   UNL     1      14.167   5.125   1.127  0.00  0.00    +0.226 A 
ATOM     25  C   UNL     1      12.969   4.506  -0.833  0.00  0.00    +0.018 A 
ATOM     26  C   UNL     1      14.169   4.082  -1.395  0.00  0.00    +0.021 A 
ATOM     27  C   UNL     1      15.321   4.211  -0.637  0.00  0.00    +0.114 A 
BRANCH  24   4
ATOM      4  O   UNL     1      14.209   5.644   2.395  0.00  0.00    -0.474 OA
BRANCH   4  29
ATOM     29  C   UNL     1      14.930   6.859   2.565  0.00  0.00    +0.258 C 
BRANCH  29  30
ATOM     30  C   UNL     1      14.190   7.741   3.552  0.00  0.00    +0.200 C 
BRANCH  30   5
ATOM      5  O   UNL     1      13.071   7.025   4.064  0.00  0.00    -0.380 OA
ATOM     31  C   UNL     1      12.856   7.310   5.439  0.00  0.00    +0.194 C 
ENDBRANCH  30   5
ENDBRANCH  29  30
ENDBRANCH   4  29
ENDBRANCH  24   4
ENDBRANCH  19  22
ENDBRANCH  10  15
BRANCH   6  14
ATOM     14  C   UNL     1       8.354   7.138   4.334  0.00  0.00    +0.124 C 
BRANCH  14  16
ATOM     16  C   UNL     1       8.846   6.610   5.656  0.00  0.00    +0.008 A 
ATOM     17  C   UNL     1       9.653   5.474   5.714  0.00  0.00    +0.125 A 
ATOM     18  C   UNL     1       8.487   7.272   6.830  0.00  0.00    +0.012 A 
ATOM     20  C   UNL     1      10.100   4.999   6.947  0.00  0.00    +0.091 A 
ATOM     21  C   UNL     1       8.934   6.797   8.063  0.00  0.00    +0.046 A 
ATOM     23  C   UNL     1       9.741   5.660   8.122  0.00  0.00    +0.124 A 
BRANCH  17   2
ATOM      2  O   UNL     1      10.012   4.816   4.577  0.00  0.00    -0.506 OA
ATOM     32  H   UNL     1       9.222   4.679   4.026  0.00  0.00    +0.292 HD
ENDBRANCH  17   2
BRANCH  23   3
ATOM      3  O   UNL     1      10.178   5.198   9.325  0.00  0.00    -0.495 OA
ATOM     28  C   UNL     1       9.202   4.625  10.194  0.00  0.00    +0.277 C 
ENDBRANCH  23   3
ENDBRANCH  14  16
ENDBRANCH   6  14
TORSDOF 10
ENDMDL
