MODEL 1
REMARK VINA RESULT:      -7.2      0.000      0.000
REMARK  Name = 40776867
REMARK  8 active torsions:
REMARK  status: ('A' for Active; 'I' for Inactive)
REMARK    1  A    between atoms: N_3  and  C_13
REMARK    2  A    between atoms: N_4  and  C_14
REMARK    3  A    between atoms: N_5  and  C_29
REMARK    4  A    between atoms: N_5  and  C_30
REMARK    5  A    between atoms: N_5  and  C_31
REMARK    6  A    between atoms: C_7  and  C_13
REMARK    7  A    between atoms: C_8  and  C_14
REMARK    8  A    between atoms: C_20  and  C_24
REMARK                            x       y       z     vdW  Elec       q    Type
REMARK                         _______ _______ _______ _____ _____    ______ ____
ROOT
ATOM      2  N   UNL     1      10.955   8.486  21.326  0.00  0.00    -0.298 NA
ATOM      6  C   UNL     1      12.819  10.228  21.831  0.00  0.00    -0.002 C 
ATOM      7  C   UNL     1      12.294  10.385  20.386  0.00  0.00    +0.023 C 
ATOM      8  C   UNL     1      12.160   7.800  21.866  0.00  0.00    +0.074 C 
ATOM      9  C   UNL     1      13.333   8.791  22.033  0.00  0.00    +0.024 C 
ATOM     10  C   UNL     1      11.298   9.238  20.096  0.00  0.00    +0.090 C 
ATOM     11  C   UNL     1      11.611  10.417  22.769  0.00  0.00    +0.019 C 
ATOM     12  C   UNL     1      10.486   9.455  22.346  0.00  0.00    +0.085 C 
ENDROOT
BRANCH   7  13
ATOM     13  C   UNL     1      13.408  10.440  19.342  0.00  0.00    +0.110 C 
BRANCH  13   3
ATOM      3  N   UNL     1      14.235  11.597  19.572  0.00  0.00    -0.329 N 
ATOM     15  C   UNL     1      14.020  12.865  18.878  0.00  0.00    +0.110 C 
ATOM     16  C   UNL     1      15.579  11.539  19.906  0.00  0.00    +0.033 A 
ATOM     17  C   UNL     1      15.200  13.782  19.261  0.00  0.00    +0.056 C 
ATOM     18  C   UNL     1      16.204  12.781  19.734  0.00  0.00    -0.025 A 
ATOM     19  C   UNL     1      16.314  10.459  20.372  0.00  0.00    +0.023 A 
ATOM     21  C   UNL     1      17.545  12.977  20.020  0.00  0.00    +0.005 A 
ATOM     22  C   UNL     1      17.671  10.638  20.658  0.00  0.00    +0.002 A 
ATOM     23  C   UNL     1      18.282  11.888  20.484  0.00  0.00    +0.000 A 
ENDBRANCH  13   3
ENDBRANCH   7  13
BRANCH   8  14
ATOM     14  C   UNL     1      12.561   6.581  21.032  0.00  0.00    +0.123 C 
BRANCH  14   4
ATOM      1  O   UNL     1      14.337   7.083  18.832  0.00  0.00    -0.270 OA
ATOM      4  N   UNL     1      13.991   6.443  21.035  0.00  0.00    -0.310 N 
ATOM     20  C   UNL     1      14.774   6.710  19.918  0.00  0.00    +0.244 C 
ATOM     32  H   UNL     1      14.412   6.078  21.883  0.00  0.00    +0.149 HD
BRANCH  20  24
ATOM     24  C   UNL     1      16.235   6.493  20.076  0.00  0.00    +0.037 A 
ATOM     25  C   UNL     1      16.892   6.966  21.211  0.00  0.00    +0.015 A 
ATOM     26  C   UNL     1      16.950   5.816  19.087  0.00  0.00    +0.015 A 
ATOM     27  C   UNL     1      18.265   6.762  21.358  0.00  0.00    +0.024 A 
ATOM     28  C   UNL     1      18.322   5.614  19.233  0.00  0.00    +0.024 A 
ATOM     29  C   UNL     1      18.980   6.086  20.369  0.00  0.00    +0.029 A 
BRANCH  29   5
ATOM      5  N   UNL     1      20.367   5.880  20.517  0.00  0.00    -0.336 N 
ATOM     30  C   UNL     1      21.262   7.007  20.689  0.00  0.00    +0.129 C 
ATOM     31  C   UNL     1      20.914   4.538  20.505  0.00  0.00    +0.129 C 
ENDBRANCH  29   5
ENDBRANCH  20  24
ENDBRANCH  14   4
ENDBRANCH   8  14
TORSDOF 6
ENDMDL
MODEL 2
REMARK VINA RESULT:      -6.9      1.473      2.334
REMARK  Name = 40776867
REMARK  8 active torsions:
REMARK  status: ('A' for Active; 'I' for Inactive)
REMARK    1  A    between atoms: N_3  and  C_13
REMARK    2  A    between atoms: N_4  and  C_14
REMARK    3  A    between atoms: N_5  and  C_29
REMARK    4  A    between atoms: N_5  and  C_30
REMARK    5  A    between atoms: N_5  and  C_31
REMARK    6  A    between atoms: C_7  and  C_13
REMARK    7  A    between atoms: C_8  and  C_14
REMARK    8  A    between atoms: C_20  and  C_24
REMARK                            x       y       z     vdW  Elec       q    Type
REMARK                         _______ _______ _______ _____ _____    ______ ____
ROOT
ATOM      2  N   UNL     1      11.295   8.720  20.721  0.00  0.00    -0.298 NA
ATOM      6  C   UNL     1      13.115  10.021  22.048  0.00  0.00    -0.002 C 
ATOM      7  C   UNL     1      13.134  10.415  20.553  0.00  0.00    +0.023 C 
ATOM      8  C   UNL     1      12.135   7.769  21.499  0.00  0.00    +0.074 C 
ATOM      9  C   UNL     1      13.316   8.500  22.176  0.00  0.00    +0.024 C 
ATOM     10  C   UNL     1      12.137   9.511  19.793  0.00  0.00    +0.090 C 
ATOM     11  C   UNL     1      11.704  10.341  22.577  0.00  0.00    +0.019 C 
ATOM     12  C   UNL     1      10.658   9.655  21.680  0.00  0.00    +0.085 C 
ENDROOT
BRANCH   7  13
ATOM     13  C   UNL     1      14.529  10.361  19.933  0.00  0.00    +0.110 C 
BRANCH  13   3
ATOM      3  N   UNL     1      14.695  11.455  19.010  0.00  0.00    -0.329 N 
ATOM     15  C   UNL     1      14.381  12.836  19.366  0.00  0.00    +0.110 C 
ATOM     16  C   UNL     1      14.540  11.343  17.636  0.00  0.00    +0.033 A 
ATOM     17  C   UNL     1      14.521  13.667  18.073  0.00  0.00    +0.056 C 
ATOM     18  C   UNL     1      14.420  12.601  17.030  0.00  0.00    -0.025 A 
ATOM     19  C   UNL     1      14.508  10.199  16.854  0.00  0.00    +0.023 A 
ATOM     21  C   UNL     1      14.275  12.748  15.661  0.00  0.00    +0.005 A 
ATOM     22  C   UNL     1      14.353  10.328  15.470  0.00  0.00    +0.002 A 
ATOM     23  C   UNL     1      14.237  11.595  14.878  0.00  0.00    +0.000 A 
ENDBRANCH  13   3
ENDBRANCH   7  13
BRANCH   8  14
ATOM     14  C   UNL     1      12.610   6.584  20.654  0.00  0.00    +0.123 C 
BRANCH  14   4
ATOM      1  O   UNL     1      14.528   7.121  18.585  0.00  0.00    -0.270 OA
ATOM      4  N   UNL     1      14.039   6.461  20.754  0.00  0.00    -0.310 N 
ATOM     20  C   UNL     1      14.893   6.744  19.696  0.00  0.00    +0.244 C 
ATOM     32  H   UNL     1      14.404   6.095  21.627  0.00  0.00    +0.149 HD
BRANCH  20  24
ATOM     24  C   UNL     1      16.342   6.542  19.952  0.00  0.00    +0.037 A 
ATOM     25  C   UNL     1      16.952   7.163  21.041  0.00  0.00    +0.015 A 
ATOM     26  C   UNL     1      17.093   5.730  19.102  0.00  0.00    +0.015 A 
ATOM     27  C   UNL     1      18.313   6.973  21.281  0.00  0.00    +0.024 A 
ATOM     28  C   UNL     1      18.454   5.541  19.340  0.00  0.00    +0.024 A 
ATOM     29  C   UNL     1      19.065   6.162  20.430  0.00  0.00    +0.029 A 
BRANCH  29   5
ATOM      5  N   UNL     1      20.441   5.969  20.672  0.00  0.00    -0.336 N 
ATOM     30  C   UNL     1      21.036   4.657  20.509  0.00  0.00    +0.129 C 
ATOM     31  C   UNL     1      21.277   7.079  21.079  0.00  0.00    +0.129 C 
ENDBRANCH  29   5
ENDBRANCH  20  24
ENDBRANCH  14   4
ENDBRANCH   8  14
TORSDOF 6
ENDMDL
MODEL 3
REMARK VINA RESULT:      -6.5      1.752      2.290
REMARK  Name = 40776867
REMARK  8 active torsions:
REMARK  status: ('A' for Active; 'I' for Inactive)
REMARK    1  A    between atoms: N_3  and  C_13
REMARK    2  A    between atoms: N_4  and  C_14
REMARK    3  A    between atoms: N_5  and  C_29
REMARK    4  A    between atoms: N_5  and  C_30
REMARK    5  A    between atoms: N_5  and  C_31
REMARK    6  A    between atoms: C_7  and  C_13
REMARK    7  A    between atoms: C_8  and  C_14
REMARK    8  A    between atoms: C_20  and  C_24
REMARK                            x       y       z     vdW  Elec       q    Type
REMARK                         _______ _______ _______ _____ _____    ______ ____
ROOT
ATOM      2  N   UNL     1      11.866   7.472  19.963  0.00  0.00    -0.298 NA
ATOM      6  C   UNL     1      12.491   8.994  21.978  0.00  0.00    -0.002 C 
ATOM      7  C   UNL     1      12.082   9.842  20.753  0.00  0.00    +0.023 C 
ATOM      8  C   UNL     1      13.203   7.091  20.494  0.00  0.00    +0.074 C 
ATOM      9  C   UNL     1      13.664   8.073  21.593  0.00  0.00    +0.024 C 
ATOM     10  C   UNL     1      11.864   8.896  19.549  0.00  0.00    +0.090 C 
ATOM     11  C   UNL     1      11.292   8.087  22.315  0.00  0.00    +0.019 C 
ATOM     12  C   UNL     1      10.877   7.306  21.055  0.00  0.00    +0.085 C 
ENDROOT
BRANCH   7  13
ATOM     13  C   UNL     1      13.084  10.948  20.424  0.00  0.00    +0.110 C 
BRANCH  13   3
ATOM      3  N   UNL     1      13.806  11.320  21.614  0.00  0.00    -0.329 N 
ATOM     15  C   UNL     1      13.297  12.305  22.565  0.00  0.00    +0.110 C 
ATOM     16  C   UNL     1      15.190  11.339  21.710  0.00  0.00    +0.033 A 
ATOM     17  C   UNL     1      14.424  12.551  23.591  0.00  0.00    +0.056 C 
ATOM     18  C   UNL     1      15.615  12.054  22.838  0.00  0.00    -0.025 A 
ATOM     19  C   UNL     1      16.128  10.754  20.874  0.00  0.00    +0.023 A 
ATOM     21  C   UNL     1      16.955  12.196  23.157  0.00  0.00    +0.005 A 
ATOM     22  C   UNL     1      17.486  10.895  21.176  0.00  0.00    +0.002 A 
ATOM     23  C   UNL     1      17.897  11.611  22.310  0.00  0.00    +0.000 A 
ENDBRANCH  13   3
ENDBRANCH   7  13
BRANCH   8  14
ATOM     14  C   UNL     1      14.251   6.945  19.387  0.00  0.00    +0.123 C 
BRANCH  14   4
ATOM      1  O   UNL     1      16.536   5.460  18.482  0.00  0.00    -0.270 OA
ATOM      4  N   UNL     1      15.567   6.959  19.963  0.00  0.00    -0.310 N 
ATOM     20  C   UNL     1      16.617   6.205  19.455  0.00  0.00    +0.244 C 
ATOM     32  H   UNL     1      15.689   7.507  20.809  0.00  0.00    +0.149 HD
BRANCH  20  24
ATOM     24  C   UNL     1      17.910   6.309  20.181  0.00  0.00    +0.037 A 
ATOM     25  C   UNL     1      18.068   7.259  21.190  0.00  0.00    +0.015 A 
ATOM     26  C   UNL     1      18.965   5.458  19.852  0.00  0.00    +0.015 A 
ATOM     27  C   UNL     1      19.282   7.357  21.871  0.00  0.00    +0.024 A 
ATOM     28  C   UNL     1      20.179   5.557  20.532  0.00  0.00    +0.024 A 
ATOM     29  C   UNL     1      20.338   6.507  21.541  0.00  0.00    +0.029 A 
BRANCH  29   5
ATOM      5  N   UNL     1      21.565   6.605  22.229  0.00  0.00    -0.336 N 
ATOM     30  C   UNL     1      22.067   5.483  22.997  0.00  0.00    +0.129 C 
ATOM     31  C   UNL     1      22.343   7.826  22.171  0.00  0.00    +0.129 C 
ENDBRANCH  29   5
ENDBRANCH  20  24
ENDBRANCH  14   4
ENDBRANCH   8  14
TORSDOF 6
ENDMDL
MODEL 4
REMARK VINA RESULT:      -6.5     17.027     18.456
REMARK  Name = 40776867
REMARK  8 active torsions:
REMARK  status: ('A' for Active; 'I' for Inactive)
REMARK    1  A    between atoms: N_3  and  C_13
REMARK    2  A    between atoms: N_4  and  C_14
REMARK    3  A    between atoms: N_5  and  C_29
REMARK    4  A    between atoms: N_5  and  C_30
REMARK    5  A    between atoms: N_5  and  C_31
REMARK    6  A    between atoms: C_7  and  C_13
REMARK    7  A    between atoms: C_8  and  C_14
REMARK    8  A    between atoms: C_20  and  C_24
REMARK                            x       y       z     vdW  Elec       q    Type
REMARK                         _______ _______ _______ _____ _____    ______ ____
ROOT
ATOM      2  N   UNL     1       9.825   8.059   7.887  0.00  0.00    -0.298 NA
ATOM      6  C   UNL     1       9.662   9.517   5.739  0.00  0.00    -0.002 C 
ATOM      7  C   UNL     1       8.393   8.651   5.916  0.00  0.00    +0.023 C 
ATOM      8  C   UNL     1      11.038   7.867   7.048  0.00  0.00    +0.074 C 
ATOM      9  C   UNL     1      10.901   8.604   5.697  0.00  0.00    +0.024 C 
ATOM     10  C   UNL     1       8.607   7.705   7.120  0.00  0.00    +0.090 C 
ATOM     11  C   UNL     1       9.784  10.394   7.000  0.00  0.00    +0.019 C 
ATOM     12  C   UNL     1       9.743   9.495   8.249  0.00  0.00    +0.085 C 
ENDROOT
BRANCH   7  13
ATOM     13  C   UNL     1       8.010   7.879   4.655  0.00  0.00    +0.110 C 
BRANCH  13   3
ATOM      3  N   UNL     1       7.800   8.799   3.565  0.00  0.00    -0.329 N 
ATOM     15  C   UNL     1       6.586   9.601   3.439  0.00  0.00    +0.110 C 
ATOM     16  C   UNL     1       8.302   8.617   2.286  0.00  0.00    +0.033 A 
ATOM     17  C   UNL     1       6.667  10.311   2.072  0.00  0.00    +0.056 C 
ATOM     18  C   UNL     1       7.672   9.462   1.363  0.00  0.00    -0.025 A 
ATOM     19  C   UNL     1       9.301   7.756   1.858  0.00  0.00    +0.023 A 
ATOM     21  C   UNL     1       8.017   9.476   0.022  0.00  0.00    +0.005 A 
ATOM     22  C   UNL     1       9.656   7.750   0.504  0.00  0.00    +0.002 A 
ATOM     23  C   UNL     1       9.018   8.605  -0.407  0.00  0.00    +0.000 A 
ENDBRANCH  13   3
ENDBRANCH   7  13
BRANCH   8  14
ATOM     14  C   UNL     1      11.387   6.389   6.855  0.00  0.00    +0.123 C 
BRANCH  14   4
ATOM      1  O   UNL     1       9.787   4.789   5.086  0.00  0.00    -0.270 OA
ATOM      4  N   UNL     1      11.642   6.130   5.465  0.00  0.00    -0.310 N 
ATOM     20  C   UNL     1      10.808   5.340   4.683  0.00  0.00    +0.244 C 
ATOM     32  H   UNL     1      12.504   6.505   5.082  0.00  0.00    +0.149 HD
BRANCH  20  24
ATOM     24  C   UNL     1      11.225   5.147   3.270  0.00  0.00    +0.037 A 
ATOM     25  C   UNL     1      10.493   4.303   2.435  0.00  0.00    +0.015 A 
ATOM     26  C   UNL     1      12.349   5.811   2.778  0.00  0.00    +0.015 A 
ATOM     27  C   UNL     1      10.886   4.122   1.109  0.00  0.00    +0.024 A 
ATOM     28  C   UNL     1      12.742   5.629   1.452  0.00  0.00    +0.024 A 
ATOM     29  C   UNL     1      12.010   4.784   0.617  0.00  0.00    +0.029 A 
BRANCH  29   5
ATOM      5  N   UNL     1      12.408   4.602  -0.724  0.00  0.00    -0.336 N 
ATOM     30  C   UNL     1      11.542   5.021  -1.808  0.00  0.00    +0.129 C 
ATOM     31  C   UNL     1      13.688   4.000  -1.034  0.00  0.00    +0.129 C 
ENDBRANCH  29   5
ENDBRANCH  20  24
ENDBRANCH  14   4
ENDBRANCH   8  14
TORSDOF 6
ENDMDL
MODEL 5
REMARK VINA RESULT:      -6.5      3.250     10.081
REMARK  Name = 40776867
REMARK  8 active torsions:
REMARK  status: ('A' for Active; 'I' for Inactive)
REMARK    1  A    between atoms: N_3  and  C_13
REMARK    2  A    between atoms: N_4  and  C_14
REMARK    3  A    between atoms: N_5  and  C_29
REMARK    4  A    between atoms: N_5  and  C_30
REMARK    5  A    between atoms: N_5  and  C_31
REMARK    6  A    between atoms: C_7  and  C_13
REMARK    7  A    between atoms: C_8  and  C_14
REMARK    8  A    between atoms: C_20  and  C_24
REMARK                            x       y       z     vdW  Elec       q    Type
REMARK                         _______ _______ _______ _____ _____    ______ ____
ROOT
ATOM      2  N   UNL     1      21.317   6.994  20.455  0.00  0.00    -0.298 NA
ATOM      6  C   UNL     1      21.498   6.033  22.865  0.00  0.00    -0.002 C 
ATOM      7  C   UNL     1      22.237   5.128  21.853  0.00  0.00    +0.023 C 
ATOM      8  C   UNL     1      19.963   6.888  21.064  0.00  0.00    +0.074 C 
ATOM      9  C   UNL     1      20.027   6.181  22.436  0.00  0.00    +0.024 C 
ATOM     10  C   UNL     1      21.975   5.666  20.428  0.00  0.00    +0.090 C 
ATOM     11  C   UNL     1      22.143   7.428  22.772  0.00  0.00    +0.019 C 
ATOM     12  C   UNL     1      22.130   7.897  21.305  0.00  0.00    +0.085 C 
ENDROOT
BRANCH   7  13
ATOM     13  C   UNL     1      21.860   3.653  21.976  0.00  0.00    +0.110 C 
BRANCH  13   3
ATOM      3  N   UNL     1      23.054   2.847  22.029  0.00  0.00    -0.329 N 
ATOM     15  C   UNL     1      23.646   2.243  20.838  0.00  0.00    +0.110 C 
ATOM     16  C   UNL     1      23.408   2.051  23.108  0.00  0.00    +0.033 A 
ATOM     17  C   UNL     1      24.788   1.329  21.329  0.00  0.00    +0.056 C 
ATOM     18  C   UNL     1      24.409   1.134  22.761  0.00  0.00    -0.025 A 
ATOM     19  C   UNL     1      22.919   2.076  24.405  0.00  0.00    +0.023 A 
ATOM     21  C   UNL     1      24.940   0.242  23.678  0.00  0.00    +0.005 A 
ATOM     22  C   UNL     1      23.438   1.176  25.341  0.00  0.00    +0.002 A 
ATOM     23  C   UNL     1      24.442   0.266  24.980  0.00  0.00    +0.000 A 
ENDBRANCH  13   3
ENDBRANCH   7  13
BRANCH   8  14
ATOM     14  C   UNL     1      18.953   6.221  20.128  0.00  0.00    +0.123 C 
BRANCH  14   4
ATOM      1  O   UNL     1      16.562   5.802  18.593  0.00  0.00    -0.270 OA
ATOM      4  N   UNL     1      17.622   6.629  20.484  0.00  0.00    -0.310 N 
ATOM     20  C   UNL     1      16.519   6.382  19.675  0.00  0.00    +0.244 C 
ATOM     32  H   UNL     1      17.523   7.169  21.337  0.00  0.00    +0.149 HD
BRANCH  20  24
ATOM     24  C   UNL     1      15.215   6.892  20.173  0.00  0.00    +0.037 A 
ATOM     25  C   UNL     1      15.089   7.309  21.497  0.00  0.00    +0.015 A 
ATOM     26  C   UNL     1      14.117   6.953  19.315  0.00  0.00    +0.015 A 
ATOM     27  C   UNL     1      13.864   7.788  21.964  0.00  0.00    +0.024 A 
ATOM     28  C   UNL     1      12.892   7.430  19.781  0.00  0.00    +0.024 A 
ATOM     29  C   UNL     1      12.766   7.848  21.106  0.00  0.00    +0.029 A 
BRANCH  29   5
ATOM      5  N   UNL     1      11.527   8.332  21.577  0.00  0.00    -0.336 N 
ATOM     30  C   UNL     1      10.479   7.409  21.963  0.00  0.00    +0.129 C 
ATOM     31  C   UNL     1      11.290   9.757  21.686  0.00  0.00    +0.129 C 
ENDBRANCH  29   5
ENDBRANCH  20  24
ENDBRANCH  14   4
ENDBRANCH   8  14
TORSDOF 6
ENDMDL
MODEL 6
REMARK VINA RESULT:      -6.5     27.826     31.052
REMARK  Name = 40776867
REMARK  8 active torsions:
REMARK  status: ('A' for Active; 'I' for Inactive)
REMARK    1  A    between atoms: N_3  and  C_13
REMARK    2  A    between atoms: N_4  and  C_14
REMARK    3  A    between atoms: N_5  and  C_29
REMARK    4  A    between atoms: N_5  and  C_30
REMARK    5  A    between atoms: N_5  and  C_31
REMARK    6  A    between atoms: C_7  and  C_13
REMARK    7  A    between atoms: C_8  and  C_14
REMARK    8  A    between atoms: C_20  and  C_24
REMARK                            x       y       z     vdW  Elec       q    Type
REMARK                         _______ _______ _______ _____ _____    ______ ____
ROOT
ATOM      2  N   UNL     1     -12.446   9.864  34.058  0.00  0.00    -0.298 NA
ATOM      6  C   UNL     1     -11.479   9.162  31.748  0.00  0.00    -0.002 C 
ATOM      7  C   UNL     1     -12.463  10.343  31.597  0.00  0.00    +0.023 C 
ATOM      8  C   UNL     1     -12.627   8.401  33.854  0.00  0.00    +0.074 C 
ATOM      9  C   UNL     1     -12.198   7.983  32.430  0.00  0.00    +0.024 C 
ATOM     10  C   UNL     1     -13.114  10.621  32.972  0.00  0.00    +0.090 C 
ATOM     11  C   UNL     1     -10.362   9.628  32.701  0.00  0.00    +0.019 C 
ATOM     12  C   UNL     1     -10.993  10.157  34.002  0.00  0.00    +0.085 C 
ENDROOT
BRANCH   7  13
ATOM     13  C   UNL     1     -13.515  10.117  30.513  0.00  0.00    +0.110 C 
BRANCH  13   3
ATOM      3  N   UNL     1     -13.303  11.040  29.427  0.00  0.00    -0.329 N 
ATOM     15  C   UNL     1     -14.352  11.931  28.938  0.00  0.00    +0.110 C 
ATOM     16  C   UNL     1     -12.439  10.809  28.367  0.00  0.00    +0.033 A 
ATOM     17  C   UNL     1     -13.793  12.621  27.677  0.00  0.00    +0.056 C 
ATOM     18  C   UNL     1     -12.682  11.692  27.307  0.00  0.00    -0.025 A 
ATOM     19  C   UNL     1     -11.424   9.871  28.262  0.00  0.00    +0.023 A 
ATOM     21  C   UNL     1     -11.933  11.667  26.142  0.00  0.00    +0.005 A 
ATOM     22  C   UNL     1     -10.663   9.827  27.088  0.00  0.00    +0.002 A 
ATOM     23  C   UNL     1     -10.916  10.719  26.036  0.00  0.00    +0.000 A 
ENDBRANCH  13   3
ENDBRANCH   7  13
BRANCH   8  14
ATOM     14  C   UNL     1     -14.049   7.938  34.178  0.00  0.00    +0.123 C 
BRANCH  14   4
ATOM      1  O   UNL     1     -13.854   5.277  35.240  0.00  0.00    -0.270 OA
ATOM      4  N   UNL     1     -14.328   6.713  33.480  0.00  0.00    -0.310 N 
ATOM     20  C   UNL     1     -14.207   5.464  34.078  0.00  0.00    +0.244 C 
ATOM     32  H   UNL     1     -14.565   6.792  32.497  0.00  0.00    +0.149 HD
BRANCH  20  24
ATOM     24  C   UNL     1     -14.506   4.293  33.213  0.00  0.00    +0.037 A 
ATOM     25  C   UNL     1     -14.702   3.036  33.785  0.00  0.00    +0.015 A 
ATOM     26  C   UNL     1     -14.591   4.451  31.830  0.00  0.00    +0.015 A 
ATOM     27  C   UNL     1     -14.982   1.937  32.973  0.00  0.00    +0.024 A 
ATOM     28  C   UNL     1     -14.870   3.352  31.018  0.00  0.00    +0.024 A 
ATOM     29  C   UNL     1     -15.066   2.094  31.590  0.00  0.00    +0.029 A 
BRANCH  29   5
ATOM      5  N   UNL     1     -15.350   0.984  30.768  0.00  0.00    -0.336 N 
ATOM     30  C   UNL     1     -16.050   1.162  29.512  0.00  0.00    +0.129 C 
ATOM     31  C   UNL     1     -14.939  -0.347  31.166  0.00  0.00    +0.129 C 
ENDBRANCH  29   5
ENDBRANCH  20  24
ENDBRANCH  14   4
ENDBRANCH   8  14
TORSDOF 6
ENDMDL
MODEL 7
REMARK VINA RESULT:      -6.4      2.293      3.920
REMARK  Name = 40776867
REMARK  8 active torsions:
REMARK  status: ('A' for Active; 'I' for Inactive)
REMARK    1  A    between atoms: N_3  and  C_13
REMARK    2  A    between atoms: N_4  and  C_14
REMARK    3  A    between atoms: N_5  and  C_29
REMARK    4  A    between atoms: N_5  and  C_30
REMARK    5  A    between atoms: N_5  and  C_31
REMARK    6  A    between atoms: C_7  and  C_13
REMARK    7  A    between atoms: C_8  and  C_14
REMARK    8  A    between atoms: C_20  and  C_24
REMARK                            x       y       z     vdW  Elec       q    Type
REMARK                         _______ _______ _______ _____ _____    ______ ____
ROOT
ATOM      2  N   UNL     1      11.609   7.987  19.938  0.00  0.00    -0.298 NA
ATOM      6  C   UNL     1      12.262   8.904  22.283  0.00  0.00    -0.002 C 
ATOM      7  C   UNL     1      12.019  10.061  21.287  0.00  0.00    +0.023 C 
ATOM      8  C   UNL     1      12.864   7.339  20.407  0.00  0.00    +0.074 C 
ATOM      9  C   UNL     1      13.355   7.973  21.727  0.00  0.00    +0.024 C 
ATOM     10  C   UNL     1      11.779   9.459  19.883  0.00  0.00    +0.090 C 
ATOM     11  C   UNL     1      10.957   8.087  22.347  0.00  0.00    +0.019 C 
ATOM     12  C   UNL     1      10.543   7.681  20.921  0.00  0.00    +0.085 C 
ENDROOT
BRANCH   7  13
ATOM     13  C   UNL     1      13.148  11.090  21.272  0.00  0.00    +0.110 C 
BRANCH  13   3
ATOM      3  N   UNL     1      13.202  11.772  22.540  0.00  0.00    -0.329 N 
ATOM     15  C   UNL     1      14.002  11.283  23.660  0.00  0.00    +0.110 C 
ATOM     16  C   UNL     1      12.150  12.499  23.078  0.00  0.00    +0.033 A 
ATOM     17  C   UNL     1      13.659  12.177  24.870  0.00  0.00    +0.056 C 
ATOM     18  C   UNL     1      12.350  12.758  24.440  0.00  0.00    -0.025 A 
ATOM     19  C   UNL     1      11.010  12.975  22.448  0.00  0.00    +0.023 A 
ATOM     21  C   UNL     1      11.443  13.485  25.192  0.00  0.00    +0.005 A 
ATOM     22  C   UNL     1      10.079  13.703  23.196  0.00  0.00    +0.002 A 
ATOM     23  C   UNL     1      10.294  13.957  24.558  0.00  0.00    +0.000 A 
ENDBRANCH  13   3
ENDBRANCH   7  13
BRANCH   8  14
ATOM     14  C   UNL     1      13.957   7.341  19.335  0.00  0.00    +0.123 C 
BRANCH  14   4
ATOM      1  O   UNL     1      16.276   5.829  18.571  0.00  0.00    -0.270 OA
ATOM      4  N   UNL     1      15.249   7.374  19.963  0.00  0.00    -0.310 N 
ATOM     20  C   UNL     1      16.319   6.604  19.523  0.00  0.00    +0.244 C 
ATOM     32  H   UNL     1      15.337   7.949  20.795  0.00  0.00    +0.149 HD
BRANCH  20  24
ATOM     24  C   UNL     1      17.581   6.733  20.297  0.00  0.00    +0.037 A 
ATOM     25  C   UNL     1      17.725   7.759  21.230  0.00  0.00    +0.015 A 
ATOM     26  C   UNL     1      18.622   5.828  20.088  0.00  0.00    +0.015 A 
ATOM     27  C   UNL     1      18.910   7.880  21.956  0.00  0.00    +0.024 A 
ATOM     28  C   UNL     1      19.807   5.950  20.813  0.00  0.00    +0.024 A 
ATOM     29  C   UNL     1      19.952   6.975  21.747  0.00  0.00    +0.029 A 
BRANCH  29   5
ATOM      5  N   UNL     1      21.150   7.096  22.481  0.00  0.00    -0.336 N 
ATOM     30  C   UNL     1      21.180   7.852  23.718  0.00  0.00    +0.129 C 
ATOM     31  C   UNL     1      22.365   6.462  22.011  0.00  0.00    +0.129 C 
ENDBRANCH  29   5
ENDBRANCH  20  24
ENDBRANCH  14   4
ENDBRANCH   8  14
TORSDOF 6
ENDMDL
MODEL 8
REMARK VINA RESULT:      -6.2     28.937     32.285
REMARK  Name = 40776867
REMARK  8 active torsions:
REMARK  status: ('A' for Active; 'I' for Inactive)
REMARK    1  A    between atoms: N_3  and  C_13
REMARK    2  A    between atoms: N_4  and  C_14
REMARK    3  A    between atoms: N_5  and  C_29
REMARK    4  A    between atoms: N_5  and  C_30
REMARK    5  A    between atoms: N_5  and  C_31
REMARK    6  A    between atoms: C_7  and  C_13
REMARK    7  A    between atoms: C_8  and  C_14
REMARK    8  A    between atoms: C_20  and  C_24
REMARK                            x       y       z     vdW  Elec       q    Type
REMARK                         _______ _______ _______ _____ _____    ______ ____
ROOT
ATOM      2  N   UNL     1      -4.992 -11.705  17.609  0.00  0.00    -0.298 NA
ATOM      6  C   UNL     1      -6.804 -11.217  19.410  0.00  0.00    -0.002 C 
ATOM      7  C   UNL     1      -7.152 -12.492  18.610  0.00  0.00    +0.023 C 
ATOM      8  C   UNL     1      -5.472 -10.302  17.481  0.00  0.00    +0.074 C 
ATOM      9  C   UNL     1      -6.653 -10.031  18.439  0.00  0.00    +0.024 C 
ATOM     10  C   UNL     1      -6.124 -12.651  17.466  0.00  0.00    +0.090 C 
ATOM     11  C   UNL     1      -5.426 -11.455  20.056  0.00  0.00    +0.019 C 
ATOM     12  C   UNL     1      -4.420 -11.869  18.968  0.00  0.00    +0.085 C 
ENDROOT
BRANCH   7  13
ATOM     13  C   UNL     1      -8.586 -12.502  18.083  0.00  0.00    +0.110 C 
BRANCH  13   3
ATOM      3  N   UNL     1      -9.510 -12.408  19.185  0.00  0.00    -0.329 N 
ATOM     15  C   UNL     1      -9.914 -13.571  19.971  0.00  0.00    +0.110 C 
ATOM     16  C   UNL     1     -10.547 -11.489  19.255  0.00  0.00    +0.033 A 
ATOM     17  C   UNL     1     -11.029 -13.092  20.924  0.00  0.00    +0.056 C 
ATOM     18  C   UNL     1     -11.475 -11.839  20.243  0.00  0.00    -0.025 A 
ATOM     19  C   UNL     1     -10.738 -10.336  18.509  0.00  0.00    +0.023 A 
ATOM     21  C   UNL     1     -12.591 -11.064  20.513  0.00  0.00    +0.005 A 
ATOM     22  C   UNL     1     -11.864  -9.546  18.763  0.00  0.00    +0.002 A 
ATOM     23  C   UNL     1     -12.784  -9.907  19.759  0.00  0.00    +0.000 A 
ENDBRANCH  13   3
ENDBRANCH   7  13
BRANCH   8  14
ATOM     14  C   UNL     1      -5.816  -9.932  16.036  0.00  0.00    +0.123 C 
BRANCH  14   4
ATOM      1  O   UNL     1      -8.153 -11.002  14.756  0.00  0.00    -0.270 OA
ATOM      4  N   UNL     1      -7.120  -9.331  15.989  0.00  0.00    -0.310 N 
ATOM     20  C   UNL     1      -8.198  -9.924  15.344  0.00  0.00    +0.244 C 
ATOM     32  H   UNL     1      -7.212  -8.408  16.403  0.00  0.00    +0.149 HD
BRANCH  20  24
ATOM     24  C   UNL     1      -9.473  -9.161  15.363  0.00  0.00    +0.037 A 
ATOM     25  C   UNL     1      -9.549  -7.946  16.041  0.00  0.00    +0.015 A 
ATOM     26  C   UNL     1     -10.595  -9.662  14.702  0.00  0.00    +0.015 A 
ATOM     27  C   UNL     1     -10.746  -7.230  16.059  0.00  0.00    +0.024 A 
ATOM     28  C   UNL     1     -11.792  -8.948  14.721  0.00  0.00    +0.024 A 
ATOM     29  C   UNL     1     -11.869  -7.732  15.399  0.00  0.00    +0.029 A 
BRANCH  29   5
ATOM      5  N   UNL     1     -13.080  -7.009  15.416  0.00  0.00    -0.336 N 
ATOM     30  C   UNL     1     -14.192  -7.462  16.228  0.00  0.00    +0.129 C 
ATOM     31  C   UNL     1     -13.225  -5.802  14.628  0.00  0.00    +0.129 C 
ENDBRANCH  29   5
ENDBRANCH  20  24
ENDBRANCH  14   4
ENDBRANCH   8  14
TORSDOF 6
ENDMDL
MODEL 9
REMARK VINA RESULT:      -6.2     17.761     20.067
REMARK  Name = 40776867
REMARK  8 active torsions:
REMARK  status: ('A' for Active; 'I' for Inactive)
REMARK    1  A    between atoms: N_3  and  C_13
REMARK    2  A    between atoms: N_4  and  C_14
REMARK    3  A    between atoms: N_5  and  C_29
REMARK    4  A    between atoms: N_5  and  C_30
REMARK    5  A    between atoms: N_5  and  C_31
REMARK    6  A    between atoms: C_7  and  C_13
REMARK    7  A    between atoms: C_8  and  C_14
REMARK    8  A    between atoms: C_20  and  C_24
REMARK                            x       y       z     vdW  Elec       q    Type
REMARK                         _______ _______ _______ _____ _____    ______ ____
ROOT
ATOM      2  N   UNL     1      10.038   6.818   7.321  0.00  0.00    -0.298 NA
ATOM      6  C   UNL     1       9.665   5.232   5.293  0.00  0.00    -0.002 C 
ATOM      7  C   UNL     1      10.976   6.035   5.131  0.00  0.00    +0.023 C 
ATOM      8  C   UNL     1       8.679   7.028   6.753  0.00  0.00    +0.074 C 
ATOM      9  C   UNL     1       8.486   6.209   5.458  0.00  0.00    +0.024 C 
ATOM     10  C   UNL     1      11.072   7.059   6.286  0.00  0.00    +0.090 C 
ATOM     11  C   UNL     1       9.786   4.437   6.607  0.00  0.00    +0.019 C 
ATOM     12  C   UNL     1      10.138   5.403   7.754  0.00  0.00    +0.085 C 
ENDROOT
BRANCH   7  13
ATOM     13  C   UNL     1      11.105   6.711   3.768  0.00  0.00    +0.110 C 
BRANCH  13   3
ATOM      3  N   UNL     1      10.765   5.774   2.726  0.00  0.00    -0.329 N 
ATOM     15  C   UNL     1      11.405   4.467   2.607  0.00  0.00    +0.110 C 
ATOM     16  C   UNL     1      10.351   6.142   1.454  0.00  0.00    +0.033 A 
ATOM     17  C   UNL     1      10.903   3.849   1.285  0.00  0.00    +0.056 C 
ATOM     18  C   UNL     1      10.420   5.064   0.562  0.00  0.00    -0.025 A 
ATOM     19  C   UNL     1       9.895   7.374   1.011  0.00  0.00    +0.023 A 
ATOM     21  C   UNL     1      10.040   5.182  -0.765  0.00  0.00    +0.005 A 
ATOM     22  C   UNL     1       9.516   7.512  -0.329  0.00  0.00    +0.002 A 
ATOM     23  C   UNL     1       9.587   6.424  -1.210  0.00  0.00    +0.000 A 
ENDBRANCH  13   3
ENDBRANCH   7  13
BRANCH   8  14
ATOM     14  C   UNL     1       8.359   8.510   6.540  0.00  0.00    +0.123 C 
BRANCH  14   4
ATOM      1  O   UNL     1       7.874  10.971   5.141  0.00  0.00    -0.270 OA
ATOM      4  N   UNL     1       7.613   8.673   5.322  0.00  0.00    -0.310 N 
ATOM     20  C   UNL     1       7.430   9.908   4.713  0.00  0.00    +0.244 C 
ATOM     32  H   UNL     1       7.166   7.843   4.947  0.00  0.00    +0.149 HD
BRANCH  20  24
ATOM     24  C   UNL     1       6.611   9.912   3.473  0.00  0.00    +0.037 A 
ATOM     25  C   UNL     1       5.282  10.329   3.516  0.00  0.00    +0.015 A 
ATOM     26  C   UNL     1       7.173   9.496   2.266  0.00  0.00    +0.015 A 
ATOM     27  C   UNL     1       4.514  10.332   2.351  0.00  0.00    +0.024 A 
ATOM     28  C   UNL     1       6.406   9.498   1.102  0.00  0.00    +0.024 A 
ATOM     29  C   UNL     1       5.075   9.916   1.144  0.00  0.00    +0.029 A 
BRANCH  29   5
ATOM      5  N   UNL     1       4.300   9.918  -0.034  0.00  0.00    -0.336 N 
ATOM     30  C   UNL     1       2.908  10.323   0.005  0.00  0.00    +0.129 C 
ATOM     31  C   UNL     1       4.886   9.523  -1.299  0.00  0.00    +0.129 C 
ENDBRANCH  29   5
ENDBRANCH  20  24
ENDBRANCH  14   4
ENDBRANCH   8  14
TORSDOF 6
ENDMDL
MODEL 10
REMARK VINA RESULT:      -6.1     17.000     19.324
REMARK  Name = 40776867
REMARK  8 active torsions:
REMARK  status: ('A' for Active; 'I' for Inactive)
REMARK    1  A    between atoms: N_3  and  C_13
REMARK    2  A    between atoms: N_4  and  C_14
REMARK    3  A    between atoms: N_5  and  C_29
REMARK    4  A    between atoms: N_5  and  C_30
REMARK    5  A    between atoms: N_5  and  C_31
REMARK    6  A    between atoms: C_7  and  C_13
REMARK    7  A    between atoms: C_8  and  C_14
REMARK    8  A    between atoms: C_20  and  C_24
REMARK                            x       y       z     vdW  Elec       q    Type
REMARK                         _______ _______ _______ _____ _____    ______ ____
ROOT
ATOM      2  N   UNL     1      10.445   6.997   7.482  0.00  0.00    -0.298 NA
ATOM      6  C   UNL     1       9.515   5.230   5.815  0.00  0.00    -0.002 C 
ATOM      7  C   UNL     1      10.845   5.827   5.301  0.00  0.00    +0.023 C 
ATOM      8  C   UNL     1       9.031   7.311   7.144  0.00  0.00    +0.074 C 
ATOM      9  C   UNL     1       8.501   6.367   6.042  0.00  0.00    +0.024 C 
ATOM     10  C   UNL     1      11.274   6.967   6.254  0.00  0.00    +0.090 C 
ATOM     11  C   UNL     1       9.808   4.599   7.189  0.00  0.00    +0.019 C 
ATOM     12  C   UNL     1      10.478   5.647   8.096  0.00  0.00    +0.085 C 
ENDROOT
BRANCH   7  13
ATOM     13  C   UNL     1      10.773   6.302   3.852  0.00  0.00    +0.110 C 
BRANCH  13   3
ATOM      3  N   UNL     1      12.095   6.319   3.278  0.00  0.00    -0.329 N 
ATOM     15  C   UNL     1      12.779   7.560   2.921  0.00  0.00    +0.110 C 
ATOM     16  C   UNL     1      12.598   5.325   2.452  0.00  0.00    +0.033 A 
ATOM     17  C   UNL     1      14.074   7.153   2.187  0.00  0.00    +0.056 C 
ATOM     18  C   UNL     1      13.748   5.754   1.776  0.00  0.00    -0.025 A 
ATOM     19  C   UNL     1      12.123   4.038   2.252  0.00  0.00    +0.023 A 
ATOM     21  C   UNL     1      14.441   4.929   0.906  0.00  0.00    +0.005 A 
ATOM     22  C   UNL     1      12.806   3.194   1.370  0.00  0.00    +0.002 A 
ATOM     23  C   UNL     1      13.957   3.637   0.702  0.00  0.00    +0.000 A 
ENDBRANCH  13   3
ENDBRANCH   7  13
BRANCH   8  14
ATOM     14  C   UNL     1       8.832   8.783   6.774  0.00  0.00    +0.123 C 
BRANCH  14   4
ATOM      1  O   UNL     1       8.914  10.812   4.743  0.00  0.00    -0.270 OA
ATOM      4  N   UNL     1       7.977   8.881   5.623  0.00  0.00    -0.310 N 
ATOM     20  C   UNL     1       8.090   9.902   4.688  0.00  0.00    +0.244 C 
ATOM     32  H   UNL     1       7.232   8.195   5.550  0.00  0.00    +0.149 HD
BRANCH  20  24
ATOM     24  C   UNL     1       7.112   9.876   3.569  0.00  0.00    +0.037 A 
ATOM     25  C   UNL     1       5.786  10.245   3.793  0.00  0.00    +0.015 A 
ATOM     26  C   UNL     1       7.521   9.482   2.295  0.00  0.00    +0.015 A 
ATOM     27  C   UNL     1       4.868  10.220   2.743  0.00  0.00    +0.024 A 
ATOM     28  C   UNL     1       6.603   9.456   1.245  0.00  0.00    +0.024 A 
ATOM     29  C   UNL     1       5.277   9.825   1.469  0.00  0.00    +0.029 A 
BRANCH  29   5
ATOM      5  N   UNL     1       4.350   9.800   0.406  0.00  0.00    -0.336 N 
ATOM     30  C   UNL     1       4.575   8.946  -0.743  0.00  0.00    +0.129 C 
ATOM     31  C   UNL     1       3.158  10.623   0.452  0.00  0.00    +0.129 C 
ENDBRANCH  29   5
ENDBRANCH  20  24
ENDBRANCH  14   4
ENDBRANCH   8  14
TORSDOF 6
ENDMDL
