REMARK  Name = 28962345
REMARK  12 active torsions:
REMARK  status: ('A' for Active; 'I' for Inactive)
REMARK    1  A    between atoms: O_2  and  C_8
REMARK    2  A    between atoms: O_3  and  C_11
REMARK    3  A    between atoms: N_4  and  C_6
REMARK    4  A    between atoms: N_4  and  C_12
REMARK    5  A    between atoms: N_4  and  C_13
REMARK    6  A    between atoms: N_5  and  C_10
REMARK    7  A    between atoms: N_5  and  C_14
REMARK    8  A    between atoms: C_7  and  C_10
REMARK    9  A    between atoms: C_9  and  C_11
REMARK   10  A    between atoms: C_12  and  C_15
REMARK   11  A    between atoms: C_14  and  C_16
REMARK   12  A    between atoms: C_14  and  C_17
REMARK                            x       y       z     vdW  Elec       q    Type
REMARK                         _______ _______ _______ _____ _____    ______ ____
ROOT
ATOM      1  O   UNL     1      -1.517  -1.467   1.169  0.00  0.00    -0.366 OA
ATOM      6  C   UNL     1      -0.721  -0.317  -0.782  0.00  0.00    +0.118 C 
ATOM      7  C   UNL     1      -1.137  -0.163   0.686  0.00  0.00    +0.152 C 
ATOM      8  C   UNL     1      -1.392  -1.621  -1.186  0.00  0.00    +0.165 C 
ATOM      9  C   UNL     1      -1.371  -2.425   0.107  0.00  0.00    +0.174 C 
ENDROOT
BRANCH   8   2
ATOM      2  O   UNL     1      -2.730  -1.358  -1.598  0.00  0.00    -0.388 OA
ATOM     24  H   UNL     1      -2.685  -0.812  -2.402  0.00  0.00    +0.210 HD
ENDBRANCH   8   2
BRANCH   6   4
ATOM      4  N   UNL     1       0.737  -0.425  -0.876  0.00  0.00    -0.293 NA
ATOM     13  C   UNL     1       1.146  -0.740  -2.247  0.00  0.00    +0.105 C 
BRANCH   4  12
ATOM     12  C   UNL     1       1.378   0.814  -0.429  0.00  0.00    +0.119 C 
BRANCH  12  15
ATOM     15  C   UNL     1       2.819   0.596  -0.053  0.00  0.00    -0.033 A 
ATOM     18  C   UNL     1       3.154   0.257   1.258  0.00  0.00    +0.005 A 
ATOM     19  C   UNL     1       3.820   0.732  -1.015  0.00  0.00    +0.005 A 
ATOM     20  C   UNL     1       4.490   0.055   1.607  0.00  0.00    +0.000 A 
ATOM     21  C   UNL     1       5.155   0.529  -0.667  0.00  0.00    +0.000 A 
ATOM     22  C   UNL     1       5.490   0.191   0.645  0.00  0.00    +0.000 A 
ENDBRANCH  12  15
ENDBRANCH   4  12
ENDBRANCH   6   4
BRANCH   7  10
ATOM     10  C   UNL     1      -2.334   0.764   0.870  0.00  0.00    +0.114 C 
BRANCH  10   5
ATOM      5  N   UNL     1      -2.054   2.097   0.350  0.00  0.00    -0.311 NA
ATOM     23  H   UNL     1      -1.249   2.477   0.848  0.00  0.00    +0.122 HD
BRANCH   5  14
ATOM     14  C   UNL     1      -3.205   2.973   0.520  0.00  0.00    +0.048 C 
ATOM     16  C   UNL     1      -4.237   2.707  -0.572  0.00  0.00    +0.023 C 
ATOM     17  C   UNL     1      -2.744   4.427   0.497  0.00  0.00    +0.023 C 
ENDBRANCH   5  14
ENDBRANCH  10   5
ENDBRANCH   7  10
BRANCH   9  11
ATOM     11  C   UNL     1      -2.453  -3.482   0.236  0.00  0.00    +0.190 C 
BRANCH  11   3
ATOM      3  O   UNL     1      -2.293  -4.144   1.478  0.00  0.00    -0.392 OA
ATOM     25  H   UNL     1      -2.992  -4.817   1.537  0.00  0.00    +0.210 HD
ENDBRANCH  11   3
ENDBRANCH   9  11
TORSDOF 9
