MODEL 1
REMARK VINA RESULT:      -8.1      0.000      0.000
REMARK  Name = 26744782
REMARK  5 active torsions:
REMARK  status: ('A' for Active; 'I' for Inactive)
REMARK    1  A    between atoms: N_5  and  C_16
REMARK    2  A    between atoms: C_11  and  C_17
REMARK    3  A    between atoms: C_16  and  C_18
REMARK    4  A    between atoms: C_20  and  C_22
REMARK    5  A    between atoms: C_28  and  C_31
REMARK                            x       y       z     vdW  Elec       q    Type
REMARK                         _______ _______ _______ _____ _____    ______ ____
ROOT
ATOM      5  N   UNL     1      12.773   8.482  19.416  0.00  0.00    -0.280 NA
ATOM      6  N   UNL     1      10.638   9.191  16.415  0.00  0.00    -0.347 N 
ATOM      7  N   UNL     1      12.569   9.167  15.288  0.00  0.00    -0.240 NA
ATOM     11  C   UNL     1      13.847   7.797  18.617  0.00  0.00    +0.152 C 
ATOM     12  C   UNL     1      14.065   8.463  17.212  0.00  0.00    +0.086 C 
ATOM     13  C   UNL     1      11.450   8.453  18.726  0.00  0.00    +0.140 C 
ATOM     14  C   UNL     1      11.601   8.816  17.303  0.00  0.00    +0.053 A 
ATOM     15  C   UNL     1      12.769   8.802  16.589  0.00  0.00    +0.065 A 
ATOM     19  C   UNL     1      11.271   9.392  15.214  0.00  0.00    +0.197 A 
ATOM     32  H   UNL     1       9.649   9.298  16.598  0.00  0.00    +0.167 HD
ENDROOT
BRANCH  11  17
ATOM      4  O   UNL     1      15.588   8.858  19.980  0.00  0.00    -0.336 OA
ATOM      8  N   UNL     1      16.058   6.750  19.385  0.00  0.00    -0.190 NA
ATOM      9  N   UNL     1      16.841   8.566  20.535  0.00  0.00    -0.056 NA
ATOM     17  C   UNL     1      15.198   7.737  19.320  0.00  0.00    +0.245 A 
ATOM     20  C   UNL     1      17.049   7.306  20.141  0.00  0.00    +0.202 A 
BRANCH  20  22
ATOM     22  C   UNL     1      18.234   6.576  20.484  0.00  0.00    +0.022 A 
ATOM     25  C   UNL     1      18.600   5.453  19.742  0.00  0.00    +0.012 A 
ATOM     26  C   UNL     1      19.021   6.987  21.560  0.00  0.00    +0.012 A 
ATOM     28  C   UNL     1      20.539   5.153  21.152  0.00  0.00    +0.055 A 
ATOM     29  C   UNL     1      19.753   4.742  20.076  0.00  0.00    +0.013 A 
ATOM     30  C   UNL     1      20.172   6.277  21.894  0.00  0.00    +0.013 A 
BRANCH  28  31
ATOM      1  F   UNL     1      21.903   4.162  22.849  0.00  0.00    -0.166 F 
ATOM      2  F   UNL     1      22.914   5.042  21.136  0.00  0.00    -0.166 F 
ATOM      3  F   UNL     1      21.843   3.161  20.926  0.00  0.00    -0.166 F 
ATOM     31  C   UNL     1      21.772   4.394  21.509  0.00  0.00    +0.417 C 
ENDBRANCH  28  31
ENDBRANCH  20  22
ENDBRANCH  11  17
BRANCH   5  16
ATOM     16  C   UNL     1      12.606   7.889  20.750  0.00  0.00    +0.141 C 
BRANCH  16  18
ATOM     10  N   UNL     1      10.968   8.620  22.393  0.00  0.00    -0.259 NA
ATOM     18  C   UNL     1      12.127   8.900  21.757  0.00  0.00    +0.055 A 
ATOM     21  C   UNL     1      12.878  10.042  21.981  0.00  0.00    +0.024 A 
ATOM     23  C   UNL     1      12.410  10.956  22.918  0.00  0.00    +0.003 A 
ATOM     24  C   UNL     1      10.543   9.531  23.297  0.00  0.00    +0.111 A 
ATOM     27  C   UNL     1      11.221  10.703  23.594  0.00  0.00    +0.020 A 
ENDBRANCH  16  18
ENDBRANCH   5  16
TORSDOF 5
ENDMDL
MODEL 2
REMARK VINA RESULT:      -7.6      2.123      5.032
REMARK  Name = 26744782
REMARK  5 active torsions:
REMARK  status: ('A' for Active; 'I' for Inactive)
REMARK    1  A    between atoms: N_5  and  C_16
REMARK    2  A    between atoms: C_11  and  C_17
REMARK    3  A    between atoms: C_16  and  C_18
REMARK    4  A    between atoms: C_20  and  C_22
REMARK    5  A    between atoms: C_28  and  C_31
REMARK                            x       y       z     vdW  Elec       q    Type
REMARK                         _______ _______ _______ _____ _____    ______ ____
ROOT
ATOM      5  N   UNL     1      12.720  11.031  21.392  0.00  0.00    -0.280 NA
ATOM      6  N   UNL     1      10.337  12.009  24.117  0.00  0.00    -0.347 N 
ATOM      7  N   UNL     1      12.107  11.788  25.466  0.00  0.00    -0.240 NA
ATOM     11  C   UNL     1      13.925  11.565  22.114  0.00  0.00    +0.152 C 
ATOM     12  C   UNL     1      13.839  11.345  23.667  0.00  0.00    +0.086 C 
ATOM     13  C   UNL     1      11.456  11.685  21.839  0.00  0.00    +0.140 C 
ATOM     14  C   UNL     1      11.409  11.765  23.314  0.00  0.00    +0.053 A 
ATOM     15  C   UNL     1      12.479  11.641  24.160  0.00  0.00    +0.065 A 
ATOM     19  C   UNL     1      10.809  12.013  25.407  0.00  0.00    +0.197 A 
ATOM     32  H   UNL     1       9.381  12.162  23.827  0.00  0.00    +0.167 HD
ENDROOT
BRANCH  11  17
ATOM      4  O   UNL     1      16.059  11.807  20.928  0.00  0.00    -0.336 OA
ATOM      8  N   UNL     1      15.727   9.768  21.795  0.00  0.00    -0.190 NA
ATOM      9  N   UNL     1      17.193  11.054  20.598  0.00  0.00    -0.056 NA
ATOM     17  C   UNL     1      15.247  10.976  21.632  0.00  0.00    +0.245 A 
ATOM     20  C   UNL     1      16.923   9.864  21.143  0.00  0.00    +0.202 A 
BRANCH  20  22
ATOM     22  C   UNL     1      17.824   8.753  21.056  0.00  0.00    +0.022 A 
ATOM     25  C   UNL     1      19.115   8.859  21.573  0.00  0.00    +0.012 A 
ATOM     26  C   UNL     1      17.410   7.564  20.455  0.00  0.00    +0.012 A 
ATOM     28  C   UNL     1      19.578   6.589  20.886  0.00  0.00    +0.055 A 
ATOM     29  C   UNL     1      19.992   7.777  21.489  0.00  0.00    +0.013 A 
ATOM     30  C   UNL     1      18.286   6.483  20.369  0.00  0.00    +0.013 A 
BRANCH  28  31
ATOM      1  F   UNL     1      21.669   5.715  20.123  0.00  0.00    -0.166 F 
ATOM      2  F   UNL     1      19.966   4.363  20.148  0.00  0.00    -0.166 F 
ATOM      3  F   UNL     1      20.917   4.958  22.012  0.00  0.00    -0.166 F 
ATOM     31  C   UNL     1      20.515   5.432  20.796  0.00  0.00    +0.417 C 
ENDBRANCH  28  31
ENDBRANCH  20  22
ENDBRANCH  11  17
BRANCH   5  16
ATOM     16  C   UNL     1      12.826  11.191  19.935  0.00  0.00    +0.141 C 
BRANCH  16  18
ATOM     10  N   UNL     1      12.511   8.779  19.974  0.00  0.00    -0.259 NA
ATOM     18  C   UNL     1      12.785   9.867  19.220  0.00  0.00    +0.055 A 
ATOM     21  C   UNL     1      13.024   9.825  17.856  0.00  0.00    +0.024 A 
ATOM     23  C   UNL     1      12.978   8.587  17.225  0.00  0.00    +0.003 A 
ATOM     24  C   UNL     1      12.474   7.593  19.326  0.00  0.00    +0.111 A 
ATOM     27  C   UNL     1      12.698   7.444  17.967  0.00  0.00    +0.020 A 
ENDBRANCH  16  18
ENDBRANCH   5  16
TORSDOF 5
ENDMDL
MODEL 3
REMARK VINA RESULT:      -7.5      5.156      7.931
REMARK  Name = 26744782
REMARK  5 active torsions:
REMARK  status: ('A' for Active; 'I' for Inactive)
REMARK    1  A    between atoms: N_5  and  C_16
REMARK    2  A    between atoms: C_11  and  C_17
REMARK    3  A    between atoms: C_16  and  C_18
REMARK    4  A    between atoms: C_20  and  C_22
REMARK    5  A    between atoms: C_28  and  C_31
REMARK                            x       y       z     vdW  Elec       q    Type
REMARK                         _______ _______ _______ _____ _____    ______ ____
ROOT
ATOM      5  N   UNL     1      14.358   7.446  19.380  0.00  0.00    -0.280 NA
ATOM      6  N   UNL     1      11.819   6.741  22.048  0.00  0.00    -0.347 N 
ATOM      7  N   UNL     1      10.520   8.155  20.901  0.00  0.00    -0.240 NA
ATOM     11  C   UNL     1      13.323   7.765  18.337  0.00  0.00    +0.152 C 
ATOM     12  C   UNL     1      12.081   8.515  18.935  0.00  0.00    +0.086 C 
ATOM     13  C   UNL     1      13.820   6.572  20.462  0.00  0.00    +0.140 C 
ATOM     14  C   UNL     1      12.500   7.060  20.912  0.00  0.00    +0.053 A 
ATOM     15  C   UNL     1      11.683   7.918  20.226  0.00  0.00    +0.065 A 
ATOM     19  C   UNL     1      10.630   7.426  21.996  0.00  0.00    +0.197 A 
ATOM     32  H   UNL     1      12.122   6.119  22.785  0.00  0.00    +0.167 HD
ENDROOT
BRANCH  11  17
ATOM      4  O   UNL     1      13.633   8.099  15.926  0.00  0.00    -0.336 OA
ATOM      8  N   UNL     1      14.503   9.731  17.189  0.00  0.00    -0.190 NA
ATOM      9  N   UNL     1      14.203   9.019  15.036  0.00  0.00    -0.056 NA
ATOM     17  C   UNL     1      13.854   8.594  17.172  0.00  0.00    +0.245 A 
ATOM     20  C   UNL     1      14.695   9.952  15.856  0.00  0.00    +0.202 A 
BRANCH  20  22
ATOM     22  C   UNL     1      15.383  11.115  15.377  0.00  0.00    +0.022 A 
ATOM     25  C   UNL     1      15.611  11.277  14.010  0.00  0.00    +0.012 A 
ATOM     26  C   UNL     1      15.825  12.085  16.277  0.00  0.00    +0.012 A 
ATOM     28  C   UNL     1      16.723  13.378  14.445  0.00  0.00    +0.055 A 
ATOM     29  C   UNL     1      16.280  12.409  13.544  0.00  0.00    +0.013 A 
ATOM     30  C   UNL     1      16.494  13.216  15.811  0.00  0.00    +0.013 A 
BRANCH  28  31
ATOM      1  F   UNL     1      18.243  15.172  14.883  0.00  0.00    -0.166 F 
ATOM      2  F   UNL     1      16.584  15.570  13.535  0.00  0.00    -0.166 F 
ATOM      3  F   UNL     1      18.254  14.341  12.880  0.00  0.00    -0.166 F 
ATOM     31  C   UNL     1      17.438  14.588  13.947  0.00  0.00    +0.417 C 
ENDBRANCH  28  31
ENDBRANCH  20  22
ENDBRANCH  11  17
BRANCH   5  16
ATOM     16  C   UNL     1      15.542   6.790  18.809  0.00  0.00    +0.141 C 
BRANCH  16  18
ATOM     10  N   UNL     1      16.780   8.074  20.465  0.00  0.00    -0.259 NA
ATOM     18  C   UNL     1      16.759   6.977  19.675  0.00  0.00    +0.055 A 
ATOM     21  C   UNL     1      17.778   6.039  19.626  0.00  0.00    +0.024 A 
ATOM     23  C   UNL     1      18.888   6.239  20.438  0.00  0.00    +0.003 A 
ATOM     24  C   UNL     1      17.874   8.236  21.242  0.00  0.00    +0.111 A 
ATOM     27  C   UNL     1      18.945   7.356  21.265  0.00  0.00    +0.020 A 
ENDBRANCH  16  18
ENDBRANCH   5  16
TORSDOF 5
ENDMDL
MODEL 4
REMARK VINA RESULT:      -7.5      1.711      2.354
REMARK  Name = 26744782
REMARK  5 active torsions:
REMARK  status: ('A' for Active; 'I' for Inactive)
REMARK    1  A    between atoms: N_5  and  C_16
REMARK    2  A    between atoms: C_11  and  C_17
REMARK    3  A    between atoms: C_16  and  C_18
REMARK    4  A    between atoms: C_20  and  C_22
REMARK    5  A    between atoms: C_28  and  C_31
REMARK                            x       y       z     vdW  Elec       q    Type
REMARK                         _______ _______ _______ _____ _____    ______ ____
ROOT
ATOM      5  N   UNL     1      14.275   8.662  19.390  0.00  0.00    -0.280 NA
ATOM      6  N   UNL     1      11.925   9.796  16.697  0.00  0.00    -0.347 N 
ATOM      7  N   UNL     1      13.273   8.657  15.323  0.00  0.00    -0.240 NA
ATOM     11  C   UNL     1      14.690   7.423  18.648  0.00  0.00    +0.152 C 
ATOM     12  C   UNL     1      14.782   7.655  17.098  0.00  0.00    +0.086 C 
ATOM     13  C   UNL     1      12.936   9.159  18.959  0.00  0.00    +0.140 C 
ATOM     14  C   UNL     1      12.835   9.160  17.485  0.00  0.00    +0.053 A 
ATOM     15  C   UNL     1      13.642   8.465  16.624  0.00  0.00    +0.065 A 
ATOM     19  C   UNL     1      12.231   9.463  15.400  0.00  0.00    +0.197 A 
ATOM     32  H   UNL     1      11.169  10.395  17.000  0.00  0.00    +0.167 HD
ENDROOT
BRANCH  11  17
ATOM      4  O   UNL     1      16.459   5.734  18.455  0.00  0.00    -0.336 OA
ATOM      8  N   UNL     1      16.817   7.245  20.069  0.00  0.00    -0.190 NA
ATOM      9  N   UNL     1      17.678   5.387  19.051  0.00  0.00    -0.056 NA
ATOM     17  C   UNL     1      16.020   6.838  19.113  0.00  0.00    +0.245 A 
ATOM     20  C   UNL     1      17.821   6.324  19.993  0.00  0.00    +0.202 A 
BRANCH  20  22
ATOM     22  C   UNL     1      18.952   6.368  20.872  0.00  0.00    +0.022 A 
ATOM     25  C   UNL     1      18.971   7.267  21.939  0.00  0.00    +0.012 A 
ATOM     26  C   UNL     1      20.034   5.512  20.662  0.00  0.00    +0.012 A 
ATOM     28  C   UNL     1      21.154   6.455  22.584  0.00  0.00    +0.055 A 
ATOM     29  C   UNL     1      20.072   7.310  22.795  0.00  0.00    +0.013 A 
ATOM     30  C   UNL     1      21.134   5.556  21.517  0.00  0.00    +0.013 A 
BRANCH  28  31
ATOM      1  F   UNL     1      22.252   7.485  24.442  0.00  0.00    -0.166 F 
ATOM      2  F   UNL     1      23.503   6.723  22.835  0.00  0.00    -0.166 F 
ATOM      3  F   UNL     1      22.521   5.346  24.203  0.00  0.00    -0.166 F 
ATOM     31  C   UNL     1      22.331   6.501  23.499  0.00  0.00    +0.417 C 
ENDBRANCH  28  31
ENDBRANCH  20  22
ENDBRANCH  11  17
BRANCH   5  16
ATOM     16  C   UNL     1      14.239   8.457  20.845  0.00  0.00    +0.141 C 
BRANCH  16  18
ATOM     10  N   UNL     1      12.501   6.769  21.054  0.00  0.00    -0.259 NA
ATOM     18  C   UNL     1      12.873   8.040  21.319  0.00  0.00    +0.055 A 
ATOM     21  C   UNL     1      12.079   8.957  21.990  0.00  0.00    +0.024 A 
ATOM     23  C   UNL     1      10.823   8.541  22.416  0.00  0.00    +0.003 A 
ATOM     24  C   UNL     1      11.273   6.399  21.483  0.00  0.00    +0.111 A 
ATOM     27  C   UNL     1      10.405   7.240  22.163  0.00  0.00    +0.020 A 
ENDBRANCH  16  18
ENDBRANCH   5  16
TORSDOF 5
ENDMDL
MODEL 5
REMARK VINA RESULT:      -7.4     14.720     18.457
REMARK  Name = 26744782
REMARK  5 active torsions:
REMARK  status: ('A' for Active; 'I' for Inactive)
REMARK    1  A    between atoms: N_5  and  C_16
REMARK    2  A    between atoms: C_11  and  C_17
REMARK    3  A    between atoms: C_16  and  C_18
REMARK    4  A    between atoms: C_20  and  C_22
REMARK    5  A    between atoms: C_28  and  C_31
REMARK                            x       y       z     vdW  Elec       q    Type
REMARK                         _______ _______ _______ _____ _____    ______ ____
ROOT
ATOM      5  N   UNL     1       9.680   7.222   6.265  0.00  0.00    -0.280 NA
ATOM      6  N   UNL     1       8.679   5.848   9.608  0.00  0.00    -0.347 N 
ATOM      7  N   UNL     1       9.733   3.994   8.934  0.00  0.00    -0.240 NA
ATOM     11  C   UNL     1      10.891   6.339   6.151  0.00  0.00    +0.152 C 
ATOM     12  C   UNL     1      10.649   4.909   6.754  0.00  0.00    +0.086 C 
ATOM     13  C   UNL     1       9.262   7.428   7.682  0.00  0.00    +0.140 C 
ATOM     14  C   UNL     1       9.263   6.145   8.414  0.00  0.00    +0.053 A 
ATOM     15  C   UNL     1       9.906   4.999   8.027  0.00  0.00    +0.065 A 
ATOM     19  C   UNL     1       8.990   4.538   9.879  0.00  0.00    +0.197 A 
ATOM     32  H   UNL     1       8.127   6.466  10.187  0.00  0.00    +0.167 HD
ENDROOT
BRANCH  11  17
ATOM      4  O   UNL     1      12.299   7.080   4.283  0.00  0.00    -0.336 OA
ATOM      8  N   UNL     1      11.088   5.248   3.839  0.00  0.00    -0.190 NA
ATOM      9  N   UNL     1      12.609   6.718   2.967  0.00  0.00    -0.056 NA
ATOM     17  C   UNL     1      11.397   6.164   4.723  0.00  0.00    +0.245 A 
ATOM     20  C   UNL     1      11.857   5.630   2.777  0.00  0.00    +0.202 A 
BRANCH  20  22
ATOM     22  C   UNL     1      11.850   4.902   1.542  0.00  0.00    +0.022 A 
ATOM     25  C   UNL     1      12.838   3.950   1.288  0.00  0.00    +0.012 A 
ATOM     26  C   UNL     1      10.855   5.144   0.594  0.00  0.00    +0.012 A 
ATOM     28  C   UNL     1      11.837   3.485  -0.862  0.00  0.00    +0.055 A 
ATOM     29  C   UNL     1      12.831   3.242   0.087  0.00  0.00    +0.013 A 
ATOM     30  C   UNL     1      10.849   4.436  -0.606  0.00  0.00    +0.013 A 
BRANCH  28  31
ATOM      1  F   UNL     1      12.151   1.408  -2.005  0.00  0.00    -0.166 F 
ATOM      2  F   UNL     1      12.718   3.226  -3.054  0.00  0.00    -0.166 F 
ATOM      3  F   UNL     1      10.618   2.733  -2.777  0.00  0.00    -0.166 F 
ATOM     31  C   UNL     1      11.829   2.727  -2.146  0.00  0.00    +0.417 C 
ENDBRANCH  28  31
ENDBRANCH  20  22
ENDBRANCH  11  17
BRANCH   5  16
ATOM     16  C   UNL     1       9.891   8.541   5.654  0.00  0.00    +0.141 C 
BRANCH  16  18
ATOM     10  N   UNL     1       7.773   9.602   5.104  0.00  0.00    -0.259 NA
ATOM     18  C   UNL     1       8.818   8.875   4.653  0.00  0.00    +0.055 A 
ATOM     21  C   UNL     1       8.948   8.432   3.346  0.00  0.00    +0.024 A 
ATOM     23  C   UNL     1       7.941   8.757   2.445  0.00  0.00    +0.003 A 
ATOM     24  C   UNL     1       6.812   9.900   4.200  0.00  0.00    +0.111 A 
ATOM     27  C   UNL     1       6.849   9.505   2.872  0.00  0.00    +0.020 A 
ENDBRANCH  16  18
ENDBRANCH   5  16
TORSDOF 5
ENDMDL
MODEL 6
REMARK VINA RESULT:      -7.2      2.010      2.675
REMARK  Name = 26744782
REMARK  5 active torsions:
REMARK  status: ('A' for Active; 'I' for Inactive)
REMARK    1  A    between atoms: N_5  and  C_16
REMARK    2  A    between atoms: C_11  and  C_17
REMARK    3  A    between atoms: C_16  and  C_18
REMARK    4  A    between atoms: C_20  and  C_22
REMARK    5  A    between atoms: C_28  and  C_31
REMARK                            x       y       z     vdW  Elec       q    Type
REMARK                         _______ _______ _______ _____ _____    ______ ____
ROOT
ATOM      5  N   UNL     1      12.529   8.457  19.631  0.00  0.00    -0.280 NA
ATOM      6  N   UNL     1      10.677   9.213  16.458  0.00  0.00    -0.347 N 
ATOM      7  N   UNL     1      12.630   8.787  15.456  0.00  0.00    -0.240 NA
ATOM     11  C   UNL     1      13.515   7.544  18.957  0.00  0.00    +0.152 C 
ATOM     12  C   UNL     1      13.903   8.038  17.518  0.00  0.00    +0.086 C 
ATOM     13  C   UNL     1      11.252   8.571  18.867  0.00  0.00    +0.140 C 
ATOM     14  C   UNL     1      11.525   8.776  17.430  0.00  0.00    +0.053 A 
ATOM     15  C   UNL     1      12.709   8.516  16.792  0.00  0.00    +0.065 A 
ATOM     19  C   UNL     1      11.390   9.203  15.285  0.00  0.00    +0.197 A 
ATOM     32  H   UNL     1       9.711   9.488  16.572  0.00  0.00    +0.167 HD
ENDROOT
BRANCH  11  17
ATOM      4  O   UNL     1      14.891   6.202  20.483  0.00  0.00    -0.336 OA
ATOM      8  N   UNL     1      15.865   8.107  19.817  0.00  0.00    -0.190 NA
ATOM      9  N   UNL     1      16.144   6.237  21.105  0.00  0.00    -0.056 NA
ATOM     17  C   UNL     1      14.806   7.339  19.743  0.00  0.00    +0.245 A 
ATOM     20  C   UNL     1      16.658   7.389  20.664  0.00  0.00    +0.202 A 
BRANCH  20  22
ATOM     22  C   UNL     1      17.960   7.851  21.049  0.00  0.00    +0.022 A 
ATOM     25  C   UNL     1      18.140   9.175  21.450  0.00  0.00    +0.012 A 
ATOM     26  C   UNL     1      19.047   6.977  21.022  0.00  0.00    +0.012 A 
ATOM     28  C   UNL     1      20.494   8.750  21.797  0.00  0.00    +0.055 A 
ATOM     29  C   UNL     1      19.406   9.624  21.824  0.00  0.00    +0.013 A 
ATOM     30  C   UNL     1      20.313   7.426  21.396  0.00  0.00    +0.013 A 
BRANCH  28  31
ATOM      1  F   UNL     1      22.657   8.243  22.681  0.00  0.00    -0.166 F 
ATOM      2  F   UNL     1      21.799  10.178  23.178  0.00  0.00    -0.166 F 
ATOM      3  F   UNL     1      22.551   9.798  21.173  0.00  0.00    -0.166 F 
ATOM     31  C   UNL     1      21.847   9.231  22.197  0.00  0.00    +0.417 C 
ENDBRANCH  28  31
ENDBRANCH  20  22
ENDBRANCH  11  17
BRANCH   5  16
ATOM     16  C   UNL     1      12.207   8.021  20.996  0.00  0.00    +0.141 C 
BRANCH  16  18
ATOM     10  N   UNL     1      13.280   9.886  22.131  0.00  0.00    -0.259 NA
ATOM     18  C   UNL     1      12.142   9.180  21.954  0.00  0.00    +0.055 A 
ATOM     21  C   UNL     1      10.946   9.463  22.595  0.00  0.00    +0.024 A 
ATOM     23  C   UNL     1      10.917  10.540  23.473  0.00  0.00    +0.003 A 
ATOM     24  C   UNL     1      13.215  10.927  22.991  0.00  0.00    +0.111 A 
ATOM     27  C   UNL     1      12.069  11.292  23.681  0.00  0.00    +0.020 A 
ENDBRANCH  16  18
ENDBRANCH   5  16
TORSDOF 5
ENDMDL
MODEL 7
REMARK VINA RESULT:      -7.2      1.351      4.068
REMARK  Name = 26744782
REMARK  5 active torsions:
REMARK  status: ('A' for Active; 'I' for Inactive)
REMARK    1  A    between atoms: N_5  and  C_16
REMARK    2  A    between atoms: C_11  and  C_17
REMARK    3  A    between atoms: C_16  and  C_18
REMARK    4  A    between atoms: C_20  and  C_22
REMARK    5  A    between atoms: C_28  and  C_31
REMARK                            x       y       z     vdW  Elec       q    Type
REMARK                         _______ _______ _______ _____ _____    ______ ____
ROOT
ATOM      5  N   UNL     1      13.299   8.297  21.245  0.00  0.00    -0.280 NA
ATOM      6  N   UNL     1      10.489  10.228  22.806  0.00  0.00    -0.347 N 
ATOM      7  N   UNL     1      12.116  11.445  23.743  0.00  0.00    -0.240 NA
ATOM     11  C   UNL     1      14.251   9.460  21.275  0.00  0.00    +0.152 C 
ATOM     12  C   UNL     1      14.072  10.349  22.557  0.00  0.00    +0.086 C 
ATOM     13  C   UNL     1      11.873   8.733  21.259  0.00  0.00    +0.140 C 
ATOM     14  C   UNL     1      11.662   9.782  22.277  0.00  0.00    +0.053 A 
ATOM     15  C   UNL     1      12.639  10.545  22.859  0.00  0.00    +0.065 A 
ATOM     19  C   UNL     1      10.815  11.231  23.686  0.00  0.00    +0.197 A 
ATOM     32  H   UNL     1       9.559   9.894  22.594  0.00  0.00    +0.167 HD
ENDROOT
BRANCH  11  17
ATOM      4  O   UNL     1      16.608  10.065  20.965  0.00  0.00    -0.336 OA
ATOM      8  N   UNL     1      16.266   7.875  21.289  0.00  0.00    -0.190 NA
ATOM      9  N   UNL     1      17.872   9.462  20.921  0.00  0.00    -0.056 NA
ATOM     17  C   UNL     1      15.720   9.061  21.185  0.00  0.00    +0.245 A 
ATOM     20  C   UNL     1      17.587   8.172  21.120  0.00  0.00    +0.202 A 
BRANCH  20  22
ATOM     22  C   UNL     1      18.598   7.155  21.156  0.00  0.00    +0.022 A 
ATOM     25  C   UNL     1      18.603   6.142  20.197  0.00  0.00    +0.012 A 
ATOM     26  C   UNL     1      19.577   7.179  22.150  0.00  0.00    +0.012 A 
ATOM     28  C   UNL     1      20.565   5.177  21.227  0.00  0.00    +0.055 A 
ATOM     29  C   UNL     1      19.586   5.154  20.232  0.00  0.00    +0.013 A 
ATOM     30  C   UNL     1      20.559   6.191  22.185  0.00  0.00    +0.013 A 
BRANCH  28  31
ATOM      1  F   UNL     1      22.073   3.848  22.522  0.00  0.00    -0.166 F 
ATOM      2  F   UNL     1      22.722   4.454  20.537  0.00  0.00    -0.166 F 
ATOM      3  F   UNL     1      21.200   2.917  20.768  0.00  0.00    -0.166 F 
ATOM     31  C   UNL     1      21.616   4.120  21.264  0.00  0.00    +0.417 C 
ENDBRANCH  28  31
ENDBRANCH  20  22
ENDBRANCH  11  17
BRANCH   5  16
ATOM     16  C   UNL     1      13.504   7.438  20.071  0.00  0.00    +0.141 C 
BRANCH  16  18
ATOM     10  N   UNL     1      11.752   7.869  18.438  0.00  0.00    -0.259 NA
ATOM     18  C   UNL     1      13.032   8.100  18.803  0.00  0.00    +0.055 A 
ATOM     21  C   UNL     1      13.911   8.896  18.086  0.00  0.00    +0.024 A 
ATOM     23  C   UNL     1      13.445   9.494  16.921  0.00  0.00    +0.003 A 
ATOM     24  C   UNL     1      11.333   8.466  17.300  0.00  0.00    +0.111 A 
ATOM     27  C   UNL     1      12.133   9.281  16.513  0.00  0.00    +0.020 A 
ENDBRANCH  16  18
ENDBRANCH   5  16
TORSDOF 5
ENDMDL
MODEL 8
REMARK VINA RESULT:      -7.1     29.199     32.530
REMARK  Name = 26744782
REMARK  5 active torsions:
REMARK  status: ('A' for Active; 'I' for Inactive)
REMARK    1  A    between atoms: N_5  and  C_16
REMARK    2  A    between atoms: C_11  and  C_17
REMARK    3  A    between atoms: C_16  and  C_18
REMARK    4  A    between atoms: C_20  and  C_22
REMARK    5  A    between atoms: C_28  and  C_31
REMARK                            x       y       z     vdW  Elec       q    Type
REMARK                         _______ _______ _______ _____ _____    ______ ____
ROOT
ATOM      5  N   UNL     1     -16.231   4.518  22.345  0.00  0.00    -0.280 NA
ATOM      6  N   UNL     1     -18.139   4.937  19.144  0.00  0.00    -0.347 N 
ATOM      7  N   UNL     1     -19.320   3.176  19.855  0.00  0.00    -0.240 NA
ATOM     11  C   UNL     1     -17.388   3.888  23.071  0.00  0.00    +0.152 C 
ATOM     12  C   UNL     1     -18.244   2.957  22.140  0.00  0.00    +0.086 C 
ATOM     13  C   UNL     1     -16.675   5.363  21.199  0.00  0.00    +0.140 C 
ATOM     14  C   UNL     1     -17.700   4.657  20.402  0.00  0.00    +0.053 A 
ATOM     15  C   UNL     1     -18.441   3.583  20.817  0.00  0.00    +0.065 A 
ATOM     19  C   UNL     1     -19.117   4.016  18.858  0.00  0.00    +0.197 A 
ATOM     32  H   UNL     1     -17.816   5.678  18.537  0.00  0.00    +0.167 HD
ENDROOT
BRANCH  11  17
ATOM      4  O   UNL     1     -16.843   1.738  24.118  0.00  0.00    -0.336 OA
ATOM      8  N   UNL     1     -16.744   3.483  25.519  0.00  0.00    -0.190 NA
ATOM      9  N   UNL     1     -16.473   1.217  25.365  0.00  0.00    -0.056 NA
ATOM     17  C   UNL     1     -16.982   3.077  24.297  0.00  0.00    +0.245 A 
ATOM     20  C   UNL     1     -16.435   2.306  26.138  0.00  0.00    +0.202 A 
BRANCH  20  22
ATOM     22  C   UNL     1     -16.094   2.253  27.529  0.00  0.00    +0.022 A 
ATOM     25  C   UNL     1     -16.128   1.037  28.210  0.00  0.00    +0.012 A 
ATOM     26  C   UNL     1     -15.727   3.419  28.203  0.00  0.00    +0.012 A 
ATOM     28  C   UNL     1     -15.429   2.152  30.238  0.00  0.00    +0.055 A 
ATOM     29  C   UNL     1     -15.795   0.985  29.564  0.00  0.00    +0.013 A 
ATOM     30  C   UNL     1     -15.395   3.368  29.555  0.00  0.00    +0.013 A 
BRANCH  28  31
ATOM      1  F   UNL     1     -13.793   2.490  31.948  0.00  0.00    -0.166 F 
ATOM      2  F   UNL     1     -15.186   0.840  32.205  0.00  0.00    -0.166 F 
ATOM      3  F   UNL     1     -15.859   2.891  32.471  0.00  0.00    -0.166 F 
ATOM     31  C   UNL     1     -15.074   2.097  31.685  0.00  0.00    +0.417 C 
ENDBRANCH  28  31
ENDBRANCH  20  22
ENDBRANCH  11  17
BRANCH   5  16
ATOM     16  C   UNL     1     -15.402   5.348  23.230  0.00  0.00    +0.141 C 
BRANCH  16  18
ATOM     10  N   UNL     1     -14.548   7.430  22.306  0.00  0.00    -0.259 NA
ATOM     18  C   UNL     1     -14.348   6.103  22.466  0.00  0.00    +0.055 A 
ATOM     21  C   UNL     1     -13.247   5.420  21.973  0.00  0.00    +0.024 A 
ATOM     23  C   UNL     1     -12.291   6.146  21.272  0.00  0.00    +0.003 A 
ATOM     24  C   UNL     1     -13.598   8.104  21.620  0.00  0.00    +0.111 A 
ATOM     27  C   UNL     1     -12.462   7.514  21.088  0.00  0.00    +0.020 A 
ENDBRANCH  16  18
ENDBRANCH   5  16
TORSDOF 5
ENDMDL
MODEL 9
REMARK VINA RESULT:      -7.0     27.458     29.580
REMARK  Name = 26744782
REMARK  5 active torsions:
REMARK  status: ('A' for Active; 'I' for Inactive)
REMARK    1  A    between atoms: N_5  and  C_16
REMARK    2  A    between atoms: C_11  and  C_17
REMARK    3  A    between atoms: C_16  and  C_18
REMARK    4  A    between atoms: C_20  and  C_22
REMARK    5  A    between atoms: C_28  and  C_31
REMARK                            x       y       z     vdW  Elec       q    Type
REMARK                         _______ _______ _______ _____ _____    ______ ____
ROOT
ATOM      5  N   UNL     1      -8.627 -10.574  18.484  0.00  0.00    -0.280 NA
ATOM      6  N   UNL     1     -10.888 -12.540  20.738  0.00  0.00    -0.347 N 
ATOM      7  N   UNL     1      -9.265 -14.078  20.688  0.00  0.00    -0.240 NA
ATOM     11  C   UNL     1      -7.374 -11.213  19.014  0.00  0.00    +0.152 C 
ATOM     12  C   UNL     1      -7.576 -12.731  19.359  0.00  0.00    +0.086 C 
ATOM     13  C   UNL     1      -9.752 -10.637  19.462  0.00  0.00    +0.140 C 
ATOM     14  C   UNL     1      -9.852 -11.988  20.049  0.00  0.00    +0.053 A 
ATOM     15  C   UNL     1      -8.870 -12.943  20.039  0.00  0.00    +0.065 A 
ATOM     19  C   UNL     1     -10.487 -13.802  21.102  0.00  0.00    +0.197 A 
ATOM     32  H   UNL     1     -11.779 -12.110  20.947  0.00  0.00    +0.167 HD
ENDROOT
BRANCH  11  17
ATOM      4  O   UNL     1      -4.949 -11.205  18.644  0.00  0.00    -0.336 OA
ATOM      8  N   UNL     1      -6.154 -10.919  16.778  0.00  0.00    -0.190 NA
ATOM      9  N   UNL     1      -4.025 -11.073  17.600  0.00  0.00    -0.056 NA
ATOM     17  C   UNL     1      -6.178 -11.102  18.075  0.00  0.00    +0.245 A 
ATOM     20  C   UNL     1      -4.811 -10.908  16.533  0.00  0.00    +0.202 A 
BRANCH  20  22
ATOM     22  C   UNL     1      -4.289 -10.730  15.209  0.00  0.00    +0.022 A 
ATOM     25  C   UNL     1      -5.156 -10.484  14.145  0.00  0.00    +0.012 A 
ATOM     26  C   UNL     1      -2.914 -10.803  14.986  0.00  0.00    +0.012 A 
ATOM     28  C   UNL     1      -3.273 -10.385  12.634  0.00  0.00    +0.055 A 
ATOM     29  C   UNL     1      -4.648 -10.311  12.857  0.00  0.00    +0.013 A 
ATOM     30  C   UNL     1      -2.406 -10.631  13.699  0.00  0.00    +0.013 A 
BRANCH  28  31
ATOM      1  F   UNL     1      -3.346  -9.203  10.556  0.00  0.00    -0.166 F 
ATOM      2  F   UNL     1      -2.856 -11.321  10.489  0.00  0.00    -0.166 F 
ATOM      3  F   UNL     1      -1.401  -9.885  11.232  0.00  0.00    -0.166 F 
ATOM     31  C   UNL     1      -2.729 -10.200  11.258  0.00  0.00    +0.417 C 
ENDBRANCH  28  31
ENDBRANCH  20  22
ENDBRANCH  11  17
BRANCH   5  16
ATOM     16  C   UNL     1      -8.423  -9.167  18.113  0.00  0.00    +0.141 C 
BRANCH  16  18
ATOM     10  N   UNL     1      -9.246  -9.459  15.842  0.00  0.00    -0.259 NA
ATOM     18  C   UNL     1      -9.329  -8.746  16.987  0.00  0.00    +0.055 A 
ATOM     21  C   UNL     1     -10.187  -7.673  17.171  0.00  0.00    +0.024 A 
ATOM     23  C   UNL     1     -11.012  -7.309  16.113  0.00  0.00    +0.003 A 
ATOM     24  C   UNL     1     -10.063  -9.077  14.835  0.00  0.00    +0.111 A 
ATOM     27  C   UNL     1     -10.955  -8.020  14.919  0.00  0.00    +0.020 A 
ENDBRANCH  16  18
ENDBRANCH   5  16
TORSDOF 5
ENDMDL
MODEL 10
REMARK VINA RESULT:      -7.0     27.885     31.459
REMARK  Name = 26744782
REMARK  5 active torsions:
REMARK  status: ('A' for Active; 'I' for Inactive)
REMARK    1  A    between atoms: N_5  and  C_16
REMARK    2  A    between atoms: C_11  and  C_17
REMARK    3  A    between atoms: C_16  and  C_18
REMARK    4  A    between atoms: C_20  and  C_22
REMARK    5  A    between atoms: C_28  and  C_31
REMARK                            x       y       z     vdW  Elec       q    Type
REMARK                         _______ _______ _______ _____ _____    ______ ____
ROOT
ATOM      5  N   UNL     1     -17.734   4.138  22.663  0.00  0.00    -0.280 NA
ATOM      6  N   UNL     1     -18.286   1.102  24.794  0.00  0.00    -0.347 N 
ATOM      7  N   UNL     1     -16.174   1.430  25.453  0.00  0.00    -0.240 NA
ATOM     11  C   UNL     1     -16.694   4.718  23.581  0.00  0.00    +0.152 C 
ATOM     12  C   UNL     1     -15.782   3.616  24.227  0.00  0.00    +0.086 C 
ATOM     13  C   UNL     1     -18.649   3.196  23.370  0.00  0.00    +0.140 C 
ATOM     14  C   UNL     1     -17.880   2.272  24.227  0.00  0.00    +0.053 A 
ATOM     15  C   UNL     1     -16.590   2.454  24.651  0.00  0.00    +0.065 A 
ATOM     19  C   UNL     1     -17.222   0.631  25.524  0.00  0.00    +0.197 A 
ATOM     32  H   UNL     1     -19.192   0.663  24.703  0.00  0.00    +0.167 HD
ENDROOT
BRANCH  11  17
ATOM      4  O   UNL     1     -15.734   6.974  23.492  0.00  0.00    -0.336 OA
ATOM      8  N   UNL     1     -15.032   5.622  21.850  0.00  0.00    -0.190 NA
ATOM      9  N   UNL     1     -14.849   7.732  22.715  0.00  0.00    -0.056 NA
ATOM     17  C   UNL     1     -15.785   5.746  22.915  0.00  0.00    +0.245 A 
ATOM     20  C   UNL     1     -14.477   6.866  21.767  0.00  0.00    +0.202 A 
BRANCH  20  22
ATOM     22  C   UNL     1     -13.555   7.211  20.725  0.00  0.00    +0.022 A 
ATOM     25  C   UNL     1     -14.027   7.736  19.522  0.00  0.00    +0.012 A 
ATOM     26  C   UNL     1     -12.186   7.023  20.914  0.00  0.00    +0.012 A 
ATOM     28  C   UNL     1     -11.760   7.883  18.697  0.00  0.00    +0.055 A 
ATOM     29  C   UNL     1     -13.130   8.072  18.508  0.00  0.00    +0.013 A 
ATOM     30  C   UNL     1     -11.289   7.358  19.900  0.00  0.00    +0.013 A 
BRANCH  28  31
ATOM      1  F   UNL     1     -10.204   7.160  17.031  0.00  0.00    -0.166 F 
ATOM      2  F   UNL     1      -9.779   9.030  18.057  0.00  0.00    -0.166 F 
ATOM      3  F   UNL     1     -11.374   8.931  16.582  0.00  0.00    -0.166 F 
ATOM     31  C   UNL     1     -10.801   8.242  17.613  0.00  0.00    +0.417 C 
ENDBRANCH  28  31
ENDBRANCH  20  22
ENDBRANCH  11  17
BRANCH   5  16
ATOM     16  C   UNL     1     -18.553   5.175  22.020  0.00  0.00    +0.141 C 
BRANCH  16  18
ATOM     10  N   UNL     1     -17.784   4.330  19.872  0.00  0.00    -0.259 NA
ATOM     18  C   UNL     1     -18.134   5.417  20.595  0.00  0.00    +0.055 A 
ATOM     21  C   UNL     1     -18.127   6.712  20.100  0.00  0.00    +0.024 A 
ATOM     23  C   UNL     1     -17.736   6.902  18.780  0.00  0.00    +0.003 A 
ATOM     24  C   UNL     1     -17.409   4.553  18.592  0.00  0.00    +0.111 A 
ATOM     27  C   UNL     1     -17.369   5.808  18.004  0.00  0.00    +0.020 A 
ENDBRANCH  16  18
ENDBRANCH   5  16
TORSDOF 5
ENDMDL
