REMARK  Name = 26744058
REMARK  9 active torsions:
REMARK  status: ('A' for Active; 'I' for Inactive)
REMARK    1  A    between atoms: S_1  and  C_21
REMARK    2  A    between atoms: S_1  and  C_27
REMARK    3  A    between atoms: O_2  and  C_13
REMARK    4  A    between atoms: N_6  and  C_15
REMARK    5  A    between atoms: N_7  and  C_22
REMARK    6  A    between atoms: C_11  and  C_16
REMARK    7  A    between atoms: C_15  and  C_17
REMARK    8  A    between atoms: C_19  and  C_21
REMARK    9  A    between atoms: C_32  and  C_33
REMARK                            x       y       z     vdW  Elec       q    Type
REMARK                         _______ _______ _______ _____ _____    ______ ____
ROOT
ATOM      6  N   UNL     1      -3.395   1.239   0.831  0.00  0.00    -0.282 NA
ATOM     11  C   UNL     1      -3.240   1.596  -0.593  0.00  0.00    +0.149 C 
ATOM     12  C   UNL     1      -3.473   3.118  -0.646  0.00  0.00    +0.061 C 
ATOM     13  C   UNL     1      -3.797   3.517   0.788  0.00  0.00    +0.130 C 
ATOM     14  C   UNL     1      -4.303   2.229   1.409  0.00  0.00    +0.117 C 
ENDROOT
BRANCH  11  16
ATOM      3  O   UNL     1      -1.907   0.361  -2.229  0.00  0.00    -0.336 OA
ATOM      8  N   UNL     1      -0.692   1.521  -0.747  0.00  0.00    -0.193 NA
ATOM     10  N   UNL     1      -0.565   0.130  -2.558  0.00  0.00    -0.060 NA
ATOM     16  C   UNL     1      -1.892   1.190  -1.152  0.00  0.00    +0.245 A 
ATOM     19  C   UNL     1       0.089   0.847  -1.639  0.00  0.00    +0.193 A 
BRANCH  19  21
ATOM     21  C   UNL     1       1.554   0.902  -1.595  0.00  0.00    +0.251 C 
BRANCH  21   1
ATOM      1  S   UNL     1       2.118  -0.070  -0.226  0.00  0.00    +0.004 S 
ATOM      4  O   UNL     1       2.157  -1.455  -0.659  0.00  0.00    -0.169 OA
ATOM      5  O   UNL     1       1.362   0.311   0.952  0.00  0.00    -0.169 OA
BRANCH   1  27
ATOM     27  C   UNL     1       3.780   0.474   0.024  0.00  0.00    +0.089 A 
ATOM     28  C   UNL     1       4.042   1.538   0.887  0.00  0.00    +0.027 A 
ATOM     29  C   UNL     1       4.829  -0.158  -0.644  0.00  0.00    +0.027 A 
ATOM     30  C   UNL     1       5.354   1.969   1.082  0.00  0.00    +0.005 A 
ATOM     31  C   UNL     1       6.140   0.274  -0.449  0.00  0.00    +0.005 A 
ATOM     32  C   UNL     1       6.403   1.337   0.414  0.00  0.00    -0.050 A 
ATOM     33  C   UNL     1       7.806   1.799   0.624  0.00  0.00    +0.044 C 
ENDBRANCH   1  27
ENDBRANCH  21   1
ENDBRANCH  19  21
ENDBRANCH  11  16
BRANCH  13   2
ATOM      2  O   UNL     1      -4.779   4.534   0.816  0.00  0.00    -0.390 OA
ATOM     34  H   UNL     1      -4.419   5.301   0.338  0.00  0.00    +0.210 HD
ENDBRANCH  13   2
BRANCH   6  15
ATOM     15  C   UNL     1      -3.869  -0.124   1.034  0.00  0.00    +0.159 C 
BRANCH  15  17
ATOM      7  N   UNL     1      -2.805  -2.138  -0.032  0.00  0.00    -0.330 N 
ATOM      9  N   UNL     1      -1.654  -1.166   1.602  0.00  0.00    -0.231 NA
ATOM     17  C   UNL     1      -2.759  -1.130   0.890  0.00  0.00    +0.125 A 
ATOM     18  C   UNL     1      -1.654  -2.873   0.092  0.00  0.00    +0.069 A 
ATOM     20  C   UNL     1      -0.952  -2.246   1.119  0.00  0.00    +0.089 A 
ATOM     22  C   UNL     1      -3.874  -2.388  -0.973  0.00  0.00    +0.150 C 
ATOM     23  C   UNL     1      -1.180  -3.998  -0.584  0.00  0.00    +0.028 A 
ATOM     24  C   UNL     1       0.297  -2.758   1.506  0.00  0.00    +0.030 A 
ATOM     25  C   UNL     1       0.065  -4.494  -0.185  0.00  0.00    +0.002 A 
ATOM     26  C   UNL     1       0.792  -3.887   0.841  0.00  0.00    +0.002 A 
ENDBRANCH  15  17
ENDBRANCH   6  15
TORSDOF 7
