REMARK  Name = 25390218
REMARK  14 active torsions:
REMARK  status: ('A' for Active; 'I' for Inactive)
REMARK    1  A    between atoms: O_2  and  C_8
REMARK    2  A    between atoms: O_3  and  C_10
REMARK    3  A    between atoms: N_6  and  C_12
REMARK    4  A    between atoms: N_7  and  C_19
REMARK    5  A    between atoms: N_7  and  C_20
REMARK    6  A    between atoms: C_9  and  C_12
REMARK    7  A    between atoms: C_11  and  C_13
REMARK    8  A    between atoms: C_13  and  C_14
REMARK    9  A    between atoms: C_15  and  C_16
REMARK   10  A    between atoms: C_15  and  C_17
REMARK   11  A    between atoms: C_15  and  C_18
REMARK   12  A    between atoms: C_17  and  C_21
REMARK   13  A    between atoms: C_18  and  C_22
REMARK   14  A    between atoms: C_19  and  C_23
REMARK                            x       y       z     vdW  Elec       q    Type
REMARK                         _______ _______ _______ _____ _____    ______ ____
ROOT
ATOM      1  O   UNL     1       2.207   0.114  -0.481  0.00  0.00    -0.366 OA
ATOM      8  C   UNL     1       3.776   0.644   1.198  0.00  0.00    +0.176 C 
ATOM      9  C   UNL     1       3.084  -0.502   0.478  0.00  0.00    +0.167 C 
ATOM     10  C   UNL     1       3.930   1.655   0.080  0.00  0.00    +0.175 C 
ATOM     11  C   UNL     1       2.622   1.484  -0.685  0.00  0.00    +0.159 C 
ENDROOT
BRANCH   8   2
ATOM      2  O   UNL     1       5.005   0.248   1.767  0.00  0.00    -0.387 OA
ATOM     30  H   UNL     1       5.442   1.049   2.103  0.00  0.00    +0.210 HD
ENDBRANCH   8   2
BRANCH  10   3
ATOM      3  O   UNL     1       5.001   1.278  -0.784  0.00  0.00    -0.387 OA
ATOM     31  H   UNL     1       5.038   1.932  -1.503  0.00  0.00    +0.210 HD
ENDBRANCH  10   3
BRANCH   9  12
ATOM     12  C   UNL     1       2.281  -1.397   1.405  0.00  0.00    +0.138 C 
BRANCH  12   6
ATOM      5  O   UNL     1      -0.336  -1.345   0.219  0.00  0.00    -0.276 OA
ATOM      6  N   UNL     1       1.639  -2.468   0.680  0.00  0.00    -0.313 N 
ATOM     16  C   UNL     1       0.367  -2.350   0.140  0.00  0.00    +0.216 C 
ATOM     29  H   UNL     1       2.152  -3.338   0.569  0.00  0.00    +0.149 HD
BRANCH  16  15
ATOM     15  C   UNL     1      -0.092  -3.631  -0.565  0.00  0.00    +0.074 C 
BRANCH  15  17
ATOM     17  C   UNL     1      -1.038  -3.339  -1.743  0.00  0.00    +0.009 C 
ATOM     21  C   UNL     1      -0.403  -2.427  -2.786  0.00  0.00    +0.004 C 
ENDBRANCH  15  17
BRANCH  15  18
ATOM     18  C   UNL     1      -0.723  -4.601   0.455  0.00  0.00    +0.009 C 
ATOM     22  C   UNL     1      -1.992  -4.087   1.123  0.00  0.00    +0.004 C 
ENDBRANCH  15  18
ENDBRANCH  16  15
ENDBRANCH  12   6
ENDBRANCH   9  12
BRANCH  11  13
ATOM     13  C   UNL     1       1.510   2.389  -0.174  0.00  0.00    +0.130 C 
BRANCH  13  14
ATOM      4  O   UNL     1       0.083   1.262  -1.734  0.00  0.00    -0.276 OA
ATOM      7  N   UNL     1      -0.904   2.906  -0.430  0.00  0.00    -0.300 N 
ATOM     14  C   UNL     1       0.174   2.124  -0.857  0.00  0.00    +0.218 C 
ATOM     20  C   UNL     1      -0.772   3.920   0.609  0.00  0.00    +0.132 C 
BRANCH   7  19
ATOM     19  C   UNL     1      -2.245   2.765  -0.993  0.00  0.00    +0.142 C 
BRANCH  19  23
ATOM     23  C   UNL     1      -3.084   1.795  -0.212  0.00  0.00    -0.030 A 
ATOM     24  C   UNL     1      -3.083   0.442  -0.552  0.00  0.00    +0.005 A 
ATOM     25  C   UNL     1      -3.863   2.246   0.853  0.00  0.00    +0.005 A 
ATOM     26  C   UNL     1      -3.861  -0.460   0.173  0.00  0.00    +0.000 A 
ATOM     27  C   UNL     1      -4.641   1.344   1.578  0.00  0.00    +0.000 A 
ATOM     28  C   UNL     1      -4.641  -0.009   1.238  0.00  0.00    +0.000 A 
ENDBRANCH  19  23
ENDBRANCH   7  19
ENDBRANCH  13  14
ENDBRANCH  11  13
TORSDOF 11
