REMARK  Name = 7051763
REMARK  3 active torsions:
REMARK  status: ('A' for Active; 'I' for Inactive)
REMARK    1  A    between atoms: C_14  and  C_19
REMARK    2  A    between atoms: C_16  and  C_20
REMARK    3  A    between atoms: C_29  and  C_30
REMARK                            x       y       z     vdW  Elec       q    Type
REMARK                         _______ _______ _______ _____ _____    ______ ____
ROOT
ATOM      1  O   UNL     1      -3.136   1.020  -2.982  0.00  0.00    -0.268 OA
ATOM      2  O   UNL     1      -0.484   3.792   0.340  0.00  0.00    -0.270 OA
ATOM      3  N   UNL     1      -1.035   1.802   1.436  0.00  0.00    -0.297 N 
ATOM      4  N   UNL     1      -2.479   0.218  -0.882  0.00  0.00    -0.311 N 
ATOM      7  C   UNL     1      -3.437   1.196   1.288  0.00  0.00    +0.027 C 
ATOM      8  C   UNL     1      -1.739  -0.582   1.383  0.00  0.00    +0.054 C 
ATOM      9  C   UNL     1      -3.130  -0.175   1.870  0.00  0.00    +0.018 C 
ATOM     10  C   UNL     1      -2.396   2.228   1.754  0.00  0.00    +0.113 C 
ATOM     11  C   UNL     1      -3.483   1.077  -0.237  0.00  0.00    +0.130 C 
ATOM     12  C   UNL     1      -0.697   0.443   1.883  0.00  0.00    +0.117 C 
ATOM     13  C   UNL     1      -1.683  -0.681  -0.143  0.00  0.00    +0.034 A 
ATOM     14  C   UNL     1      -0.882  -1.566  -0.791  0.00  0.00    +0.004 A 
ATOM     15  C   UNL     1      -2.454   0.267  -2.287  0.00  0.00    +0.252 A 
ATOM     16  C   UNL     1      -0.198   2.655   0.712  0.00  0.00    +0.247 C 
ATOM     17  C   UNL     1      -0.827  -1.542  -2.240  0.00  0.00    +0.015 A 
ATOM     18  C   UNL     1      -1.542  -0.682  -2.966  0.00  0.00    +0.071 A 
ENDROOT
BRANCH  14  19
ATOM      5  N   UNL     1       0.172  -4.739   0.912  0.00  0.00    -0.263 NA
ATOM     19  C   UNL     1      -0.049  -2.544  -0.058  0.00  0.00    +0.002 A 
ATOM     21  C   UNL     1       1.238  -2.219   0.341  0.00  0.00    +0.011 A 
ATOM     22  C   UNL     1      -0.536  -3.800   0.245  0.00  0.00    +0.119 A 
ATOM     25  C   UNL     1       1.997  -3.159   1.029  0.00  0.00    +0.020 A 
ATOM     28  C   UNL     1       1.423  -4.393   1.287  0.00  0.00    +0.111 A 
ENDBRANCH  14  19
BRANCH  16  20
ATOM     20  C   UNL     1       1.134   2.167   0.337  0.00  0.00    +0.037 A 
ATOM     23  C   UNL     1       1.313   1.502  -0.873  0.00  0.00    +0.014 A 
ATOM     24  C   UNL     1       2.213   2.373   1.192  0.00  0.00    +0.014 A 
ATOM     26  C   UNL     1       2.580   1.039  -1.230  0.00  0.00    +0.019 A 
ATOM     27  C   UNL     1       3.480   1.911   0.835  0.00  0.00    +0.019 A 
ATOM     29  C   UNL     1       3.663   1.244  -0.376  0.00  0.00    +0.052 A 
BRANCH  29  30
ATOM      6  N   UNL     1       6.015   0.382  -1.038  0.00  0.00    -0.191 NA
ATOM     30  C   UNL     1       4.960   0.768  -0.741  0.00  0.00    +0.099 C 
ENDBRANCH  29  30
ENDBRANCH  16  20
TORSDOF 3
