MODEL 1
REMARK VINA RESULT:      -7.0      0.000      0.000
REMARK  Name = 45784175
REMARK  3 active torsions:
REMARK  status: ('A' for Active; 'I' for Inactive)
REMARK    1  A    between atoms: N_4  and  C_10
REMARK    2  A    between atoms: C_6  and  C_11
REMARK    3  A    between atoms: C_10  and  C_12
REMARK                            x       y       z     vdW  Elec       q    Type
REMARK                         _______ _______ _______ _____ _____    ______ ____
ROOT
ATOM      4  N   UNL     1      -2.165 -11.058  13.663  0.00  0.00    -0.297 NA
ATOM      6  C   UNL     1      -3.254 -10.194  15.551  0.00  0.00    +0.090 C 
ATOM      7  C   UNL     1      -1.943 -10.873  15.980  0.00  0.00    +0.029 C 
ATOM      8  C   UNL     1      -3.508 -10.704  14.126  0.00  0.00    +0.097 C 
ATOM      9  C   UNL     1      -1.544 -11.744  14.796  0.00  0.00    +0.085 C 
ENDROOT
BRANCH   6  11
ATOM      1 CL   UNL     1      -9.518 -10.843  19.794  0.00  0.00    -0.083 Cl
ATOM      3  O   UNL     1      -4.226 -11.349  17.464  0.00  0.00    -0.439 OA
ATOM      5  N   UNL     1      -5.611  -9.862  16.459  0.00  0.00    -0.213 NA
ATOM     11  C   UNL     1      -4.424 -10.430  16.478  0.00  0.00    +0.201 A 
ATOM     13  C   UNL     1      -6.259 -10.450  17.518  0.00  0.00    +0.111 A 
ATOM     14  C   UNL     1      -5.415 -11.361  18.136  0.00  0.00    +0.155 A 
ATOM     17  C   UNL     1      -7.555 -10.273  18.026  0.00  0.00    +0.051 A 
ATOM     18  C   UNL     1      -5.753 -12.130  19.242  0.00  0.00    +0.050 A 
ATOM     21  C   UNL     1      -7.933 -11.034  19.142  0.00  0.00    +0.043 A 
ATOM     22  C   UNL     1      -7.050 -11.943  19.736  0.00  0.00    +0.024 A 
ENDBRANCH   6  11
BRANCH   4  10
ATOM     10  C   UNL     1      -2.190 -11.881  12.462  0.00  0.00    +0.119 C 
BRANCH  10  12
ATOM      2  F   UNL     1      -4.698  -9.242   8.162  0.00  0.00    -0.205 F 
ATOM     12  C   UNL     1      -2.860 -11.176  11.314  0.00  0.00    -0.033 A 
ATOM     15  C   UNL     1      -3.777 -11.860  10.514  0.00  0.00    +0.008 A 
ATOM     16  C   UNL     1      -2.565  -9.839  11.048  0.00  0.00    +0.008 A 
ATOM     19  C   UNL     1      -4.397 -11.207   9.450  0.00  0.00    +0.038 A 
ATOM     20  C   UNL     1      -3.185  -9.186   9.983  0.00  0.00    +0.038 A 
ATOM     23  C   UNL     1      -4.101  -9.870   9.184  0.00  0.00    +0.123 A 
ENDBRANCH  10  12
ENDBRANCH   4  10
TORSDOF 3
ENDMDL
MODEL 2
REMARK VINA RESULT:      -6.8     27.465     29.432
REMARK  Name = 45784175
REMARK  3 active torsions:
REMARK  status: ('A' for Active; 'I' for Inactive)
REMARK    1  A    between atoms: N_4  and  C_10
REMARK    2  A    between atoms: C_6  and  C_11
REMARK    3  A    between atoms: C_10  and  C_12
REMARK                            x       y       z     vdW  Elec       q    Type
REMARK                         _______ _______ _______ _____ _____    ______ ____
ROOT
ATOM      4  N   UNL     1      16.402   7.406  20.752  0.00  0.00    -0.297 NA
ATOM      6  C   UNL     1      18.589   6.711  20.269  0.00  0.00    +0.090 C 
ATOM      7  C   UNL     1      17.606   6.029  19.301  0.00  0.00    +0.029 C 
ATOM      8  C   UNL     1      17.706   7.252  21.401  0.00  0.00    +0.097 C 
ATOM      9  C   UNL     1      16.238   6.195  19.947  0.00  0.00    +0.085 C 
ENDROOT
BRANCH   6  11
ATOM      1 CL   UNL     1      24.047   1.788  22.174  0.00  0.00    -0.083 Cl
ATOM      3  O   UNL     1      20.351   6.255  21.889  0.00  0.00    -0.439 OA
ATOM      5  N   UNL     1      20.142   4.693  20.260  0.00  0.00    -0.213 NA
ATOM     11  C   UNL     1      19.707   5.826  20.767  0.00  0.00    +0.201 A 
ATOM     13  C   UNL     1      21.158   4.334  21.111  0.00  0.00    +0.111 A 
ATOM     14  C   UNL     1      21.290   5.288  22.110  0.00  0.00    +0.155 A 
ATOM     17  C   UNL     1      22.018   3.225  21.115  0.00  0.00    +0.051 A 
ATOM     18  C   UNL     1      22.223   5.235  23.138  0.00  0.00    +0.050 A 
ATOM     21  C   UNL     1      22.974   3.137  22.137  0.00  0.00    +0.043 A 
ATOM     22  C   UNL     1      23.073   4.122  23.127  0.00  0.00    +0.024 A 
ENDBRANCH   6  11
BRANCH   4  10
ATOM     10  C   UNL     1      15.321   7.584  21.712  0.00  0.00    +0.119 C 
BRANCH  10  12
ATOM      2  F   UNL     1      10.409   8.646  19.165  0.00  0.00    -0.205 F 
ATOM     12  C   UNL     1      14.009   7.867  21.031  0.00  0.00    -0.033 A 
ATOM     15  C   UNL     1      13.932   8.853  20.046  0.00  0.00    +0.008 A 
ATOM     16  C   UNL     1      12.869   7.145  21.385  0.00  0.00    +0.008 A 
ATOM     19  C   UNL     1      12.717   9.115  19.417  0.00  0.00    +0.038 A 
ATOM     20  C   UNL     1      11.653   7.408  20.755  0.00  0.00    +0.038 A 
ATOM     23  C   UNL     1      11.577   8.394  19.771  0.00  0.00    +0.123 A 
ENDBRANCH  10  12
ENDBRANCH   4  10
TORSDOF 3
ENDMDL
MODEL 3
REMARK VINA RESULT:      -6.8     19.933     20.666
REMARK  Name = 45784175
REMARK  3 active torsions:
REMARK  status: ('A' for Active; 'I' for Inactive)
REMARK    1  A    between atoms: N_4  and  C_10
REMARK    2  A    between atoms: C_6  and  C_11
REMARK    3  A    between atoms: C_10  and  C_12
REMARK                            x       y       z     vdW  Elec       q    Type
REMARK                         _______ _______ _______ _____ _____    ______ ____
ROOT
ATOM      4  N   UNL     1     -13.116   7.083  20.901  0.00  0.00    -0.297 NA
ATOM      6  C   UNL     1     -14.933   5.754  21.557  0.00  0.00    +0.090 C 
ATOM      7  C   UNL     1     -15.278   7.238  21.771  0.00  0.00    +0.029 C 
ATOM      8  C   UNL     1     -13.410   5.730  21.379  0.00  0.00    +0.097 C 
ATOM      9  C   UNL     1     -13.939   7.963  21.731  0.00  0.00    +0.085 C 
ENDROOT
BRANCH   6  11
ATOM      1 CL   UNL     1     -16.863   1.476  27.526  0.00  0.00    -0.083 Cl
ATOM      3  O   UNL     1     -16.334   3.894  22.276  0.00  0.00    -0.439 OA
ATOM      5  N   UNL     1     -15.058   4.801  23.915  0.00  0.00    -0.213 NA
ATOM     11  C   UNL     1     -15.413   4.827  22.649  0.00  0.00    +0.201 A 
ATOM     13  C   UNL     1     -15.801   3.767  24.431  0.00  0.00    +0.111 A 
ATOM     14  C   UNL     1     -16.583   3.209  23.431  0.00  0.00    +0.155 A 
ATOM     17  C   UNL     1     -15.876   3.235  25.727  0.00  0.00    +0.051 A 
ATOM     18  C   UNL     1     -17.455   2.142  23.610  0.00  0.00    +0.050 A 
ATOM     21  C   UNL     1     -16.745   2.157  25.946  0.00  0.00    +0.043 A 
ATOM     22  C   UNL     1     -17.518   1.623  24.908  0.00  0.00    +0.024 A 
ENDBRANCH   6  11
BRANCH   4  10
ATOM     10  C   UNL     1     -11.699   7.407  20.984  0.00  0.00    +0.119 C 
BRANCH  10  12
ATOM      2  F   UNL     1      -9.818   9.828  16.257  0.00  0.00    -0.205 F 
ATOM     12  C   UNL     1     -11.197   8.054  19.721  0.00  0.00    -0.033 A 
ATOM     15  C   UNL     1     -11.269   7.367  18.509  0.00  0.00    +0.008 A 
ATOM     16  C   UNL     1     -10.659   9.340  19.763  0.00  0.00    +0.008 A 
ATOM     19  C   UNL     1     -10.804   7.966  17.340  0.00  0.00    +0.038 A 
ATOM     20  C   UNL     1     -10.193   9.939  18.592  0.00  0.00    +0.038 A 
ATOM     23  C   UNL     1     -10.265   9.251  17.381  0.00  0.00    +0.123 A 
ENDBRANCH  10  12
ENDBRANCH   4  10
TORSDOF 3
ENDMDL
MODEL 4
REMARK VINA RESULT:      -6.7     27.469     29.379
REMARK  Name = 45784175
REMARK  3 active torsions:
REMARK  status: ('A' for Active; 'I' for Inactive)
REMARK    1  A    between atoms: N_4  and  C_10
REMARK    2  A    between atoms: C_6  and  C_11
REMARK    3  A    between atoms: C_10  and  C_12
REMARK                            x       y       z     vdW  Elec       q    Type
REMARK                         _______ _______ _______ _____ _____    ______ ____
ROOT
ATOM      4  N   UNL     1      11.796   9.838  21.019  0.00  0.00    -0.297 NA
ATOM      6  C   UNL     1      13.864   9.438  19.991  0.00  0.00    +0.090 C 
ATOM      7  C   UNL     1      12.744   8.781  19.166  0.00  0.00    +0.029 C 
ATOM      8  C   UNL     1      13.219   9.743  21.349  0.00  0.00    +0.097 C 
ATOM      9  C   UNL     1      11.546   8.725  20.103  0.00  0.00    +0.085 C 
ENDROOT
BRANCH   6  11
ATOM      1 CL   UNL     1      19.901   4.832  20.077  0.00  0.00    -0.083 Cl
ATOM      3  O   UNL     1      16.069   9.098  20.973  0.00  0.00    -0.439 OA
ATOM      5  N   UNL     1      15.442   7.501  19.491  0.00  0.00    -0.213 NA
ATOM     11  C   UNL     1      15.129   8.619  20.110  0.00  0.00    +0.201 A 
ATOM     13  C   UNL     1      16.692   7.209  19.979  0.00  0.00    +0.111 A 
ATOM     14  C   UNL     1      17.080   8.184  20.886  0.00  0.00    +0.155 A 
ATOM     17  C   UNL     1      17.568   6.146  19.711  0.00  0.00    +0.051 A 
ATOM     18  C   UNL     1      18.290   8.196  21.568  0.00  0.00    +0.050 A 
ATOM     21  C   UNL     1      18.800   6.123  20.380  0.00  0.00    +0.043 A 
ATOM     22  C   UNL     1      19.152   7.128  21.289  0.00  0.00    +0.024 A 
ENDBRANCH   6  11
BRANCH   4  10
ATOM     10  C   UNL     1      10.947   9.785  22.201  0.00  0.00    +0.119 C 
BRANCH  10  12
ATOM      2  F   UNL     1      10.980  14.662  25.024  0.00  0.00    -0.205 F 
ATOM     12  C   UNL     1      10.955  11.088  22.955  0.00  0.00    -0.033 A 
ATOM     15  C   UNL     1      10.940  12.297  22.259  0.00  0.00    +0.008 A 
ATOM     16  C   UNL     1      10.978  11.087  24.350  0.00  0.00    +0.008 A 
ATOM     19  C   UNL     1      10.949  13.504  22.957  0.00  0.00    +0.038 A 
ATOM     20  C   UNL     1      10.987  12.294  25.048  0.00  0.00    +0.038 A 
ATOM     23  C   UNL     1      10.973  13.502  24.352  0.00  0.00    +0.123 A 
ENDBRANCH  10  12
ENDBRANCH   4  10
TORSDOF 3
ENDMDL
MODEL 5
REMARK VINA RESULT:      -6.7     23.084     26.240
REMARK  Name = 45784175
REMARK  3 active torsions:
REMARK  status: ('A' for Active; 'I' for Inactive)
REMARK    1  A    between atoms: N_4  and  C_10
REMARK    2  A    between atoms: C_6  and  C_11
REMARK    3  A    between atoms: C_10  and  C_12
REMARK                            x       y       z     vdW  Elec       q    Type
REMARK                         _______ _______ _______ _____ _____    ______ ____
ROOT
ATOM      4  N   UNL     1      10.660   5.749   4.412  0.00  0.00    -0.297 NA
ATOM      6  C   UNL     1      11.732   4.792   2.559  0.00  0.00    +0.090 C 
ATOM      7  C   UNL     1      12.356   6.165   2.862  0.00  0.00    +0.029 C 
ATOM      8  C   UNL     1      10.410   4.786   3.337  0.00  0.00    +0.097 C 
ATOM      9  C   UNL     1      11.349   6.866   3.764  0.00  0.00    +0.085 C 
ENDROOT
BRANCH   6  11
ATOM      1 CL   UNL     1      10.221   3.746  -4.809  0.00  0.00    -0.083 Cl
ATOM      3  O   UNL     1      12.438   3.601   0.554  0.00  0.00    -0.439 OA
ATOM      5  N   UNL     1      10.650   4.963   0.259  0.00  0.00    -0.213 NA
ATOM     11  C   UNL     1      11.552   4.487   1.090  0.00  0.00    +0.201 A 
ATOM     13  C   UNL     1      10.958   4.346  -0.929  0.00  0.00    +0.111 A 
ATOM     14  C   UNL     1      12.052   3.512  -0.753  0.00  0.00    +0.155 A 
ATOM     17  C   UNL     1      10.368   4.433  -2.199  0.00  0.00    +0.051 A 
ATOM     18  C   UNL     1      12.625   2.737  -1.753  0.00  0.00    +0.050 A 
ATOM     21  C   UNL     1      10.920   3.666  -3.234  0.00  0.00    +0.043 A 
ATOM     22  C   UNL     1      12.025   2.835  -3.015  0.00  0.00    +0.024 A 
ENDBRANCH   6  11
BRANCH   4  10
ATOM     10  C   UNL     1       9.435   6.166   5.080  0.00  0.00    +0.119 C 
BRANCH  10  12
ATOM      2  F   UNL     1       9.442   4.754  10.535  0.00  0.00    -0.205 F 
ATOM     12  C   UNL     1       9.437   5.789   6.537  0.00  0.00    -0.033 A 
ATOM     15  C   UNL     1       9.090   6.734   7.503  0.00  0.00    +0.008 A 
ATOM     16  C   UNL     1       9.784   4.494   6.922  0.00  0.00    +0.008 A 
ATOM     19  C   UNL     1       9.092   6.385   8.853  0.00  0.00    +0.038 A 
ATOM     20  C   UNL     1       9.787   4.144   8.272  0.00  0.00    +0.038 A 
ATOM     23  C   UNL     1       9.441   5.090   9.238  0.00  0.00    +0.123 A 
ENDBRANCH  10  12
ENDBRANCH   4  10
TORSDOF 3
ENDMDL
MODEL 6
REMARK VINA RESULT:      -6.6      1.902      2.609
REMARK  Name = 45784175
REMARK  3 active torsions:
REMARK  status: ('A' for Active; 'I' for Inactive)
REMARK    1  A    between atoms: N_4  and  C_10
REMARK    2  A    between atoms: C_6  and  C_11
REMARK    3  A    between atoms: C_10  and  C_12
REMARK                            x       y       z     vdW  Elec       q    Type
REMARK                         _______ _______ _______ _____ _____    ______ ____
ROOT
ATOM      4  N   UNL     1      -4.232 -10.654  14.739  0.00  0.00    -0.297 NA
ATOM      6  C   UNL     1      -5.585  -9.639  16.363  0.00  0.00    +0.090 C 
ATOM      7  C   UNL     1      -4.440 -10.402  17.051  0.00  0.00    +0.029 C 
ATOM      8  C   UNL     1      -5.605 -10.180  14.927  0.00  0.00    +0.097 C 
ATOM      9  C   UNL     1      -3.898 -11.344  15.985  0.00  0.00    +0.085 C 
ENDROOT
BRANCH   6  11
ATOM      1 CL   UNL     1     -12.568  -9.632  19.346  0.00  0.00    -0.083 Cl
ATOM      3  O   UNL     1      -7.003 -10.664  18.060  0.00  0.00    -0.439 OA
ATOM      5  N   UNL     1      -8.029  -9.076  16.808  0.00  0.00    -0.213 NA
ATOM     11  C   UNL     1      -6.926  -9.749  17.052  0.00  0.00    +0.201 A 
ATOM     13  C   UNL     1      -8.917  -9.582  17.727  0.00  0.00    +0.111 A 
ATOM     14  C   UNL     1      -8.293 -10.554  18.494  0.00  0.00    +0.155 A 
ATOM     17  C   UNL     1     -10.263  -9.278  17.980  0.00  0.00    +0.051 A 
ATOM     18  C   UNL     1      -8.904 -11.268  19.517  0.00  0.00    +0.050 A 
ATOM     21  C   UNL     1     -10.914  -9.979  19.005  0.00  0.00    +0.043 A 
ATOM     22  C   UNL     1     -10.247 -10.953  19.757  0.00  0.00    +0.024 A 
ENDBRANCH   6  11
BRANCH   4  10
ATOM     10  C   UNL     1      -4.097 -11.517  13.574  0.00  0.00    +0.119 C 
BRANCH  10  12
ATOM      2  F   UNL     1      -3.671  -8.544   8.806  0.00  0.00    -0.205 F 
ATOM     12  C   UNL     1      -3.983 -10.723  12.300  0.00  0.00    -0.033 A 
ATOM     15  C   UNL     1      -2.733 -10.291  11.856  0.00  0.00    +0.008 A 
ATOM     16  C   UNL     1      -5.128 -10.418  11.563  0.00  0.00    +0.008 A 
ATOM     19  C   UNL     1      -2.628  -9.556  10.676  0.00  0.00    +0.038 A 
ATOM     20  C   UNL     1      -5.023  -9.682  10.383  0.00  0.00    +0.038 A 
ATOM     23  C   UNL     1      -3.772  -9.250   9.940  0.00  0.00    +0.123 A 
ENDBRANCH  10  12
ENDBRANCH   4  10
TORSDOF 3
ENDMDL
MODEL 7
REMARK VINA RESULT:      -6.6     24.123     26.414
REMARK  Name = 45784175
REMARK  3 active torsions:
REMARK  status: ('A' for Active; 'I' for Inactive)
REMARK    1  A    between atoms: N_4  and  C_10
REMARK    2  A    between atoms: C_6  and  C_11
REMARK    3  A    between atoms: C_10  and  C_12
REMARK                            x       y       z     vdW  Elec       q    Type
REMARK                         _______ _______ _______ _____ _____    ______ ____
ROOT
ATOM      4  N   UNL     1       2.948   4.892  -5.676  0.00  0.00    -0.297 NA
ATOM      6  C   UNL     1       2.298   2.641  -5.760  0.00  0.00    +0.090 C 
ATOM      7  C   UNL     1       3.243   2.948  -6.934  0.00  0.00    +0.029 C 
ATOM      8  C   UNL     1       1.854   4.018  -5.249  0.00  0.00    +0.097 C 
ATOM      9  C   UNL     1       3.259   4.467  -7.040  0.00  0.00    +0.085 C 
ENDROOT
BRANCH   6  11
ATOM      1 CL   UNL     1      -3.235  -2.418  -6.967  0.00  0.00    -0.083 Cl
ATOM      3  O   UNL     1       0.252   2.222  -7.017  0.00  0.00    -0.439 OA
ATOM      5  N   UNL     1       0.866   0.539  -5.627  0.00  0.00    -0.213 NA
ATOM     11  C   UNL     1       1.136   1.736  -6.100  0.00  0.00    +0.201 A 
ATOM     13  C   UNL     1      -0.293   0.195  -6.281  0.00  0.00    +0.111 A 
ATOM     14  C   UNL     1      -0.672   1.223  -7.132  0.00  0.00    +0.155 A 
ATOM     17  C   UNL     1      -1.088  -0.959  -6.215  0.00  0.00    +0.051 A 
ATOM     18  C   UNL     1      -1.799   1.203  -7.944  0.00  0.00    +0.050 A 
ATOM     21  C   UNL     1      -2.234  -1.015  -7.020  0.00  0.00    +0.043 A 
ATOM     22  C   UNL     1      -2.581   0.044  -7.867  0.00  0.00    +0.024 A 
ENDBRANCH   6  11
BRANCH   4  10
ATOM     10  C   UNL     1       2.593   6.303  -5.602  0.00  0.00    +0.119 C 
BRANCH  10  12
ATOM      2  F   UNL     1       5.569   9.007  -1.654  0.00  0.00    -0.205 F 
ATOM     12  C   UNL     1       3.388   7.025  -4.547  0.00  0.00    -0.033 A 
ATOM     15  C   UNL     1       3.275   8.409  -4.414  0.00  0.00    +0.008 A 
ATOM     16  C   UNL     1       4.238   6.311  -3.702  0.00  0.00    +0.008 A 
ATOM     19  C   UNL     1       4.011   9.078  -3.438  0.00  0.00    +0.038 A 
ATOM     20  C   UNL     1       4.975   6.980  -2.725  0.00  0.00    +0.038 A 
ATOM     23  C   UNL     1       4.862   8.364  -2.594  0.00  0.00    +0.123 A 
ENDBRANCH  10  12
ENDBRANCH   4  10
TORSDOF 3
ENDMDL
MODEL 8
REMARK VINA RESULT:      -6.5      6.200      8.980
REMARK  Name = 45784175
REMARK  3 active torsions:
REMARK  status: ('A' for Active; 'I' for Inactive)
REMARK    1  A    between atoms: N_4  and  C_10
REMARK    2  A    between atoms: C_6  and  C_11
REMARK    3  A    between atoms: C_10  and  C_12
REMARK                            x       y       z     vdW  Elec       q    Type
REMARK                         _______ _______ _______ _____ _____    ______ ____
ROOT
ATOM      4  N   UNL     1      -8.754  -9.797  17.419  0.00  0.00    -0.297 NA
ATOM      6  C   UNL     1     -10.121  -7.898  17.249  0.00  0.00    +0.090 C 
ATOM      7  C   UNL     1     -10.853  -8.990  18.048  0.00  0.00    +0.029 C 
ATOM      8  C   UNL     1      -8.967  -8.634  16.555  0.00  0.00    +0.097 C 
ATOM      9  C   UNL     1     -10.098 -10.276  17.742  0.00  0.00    +0.085 C 
ENDROOT
BRANCH   6  11
ATOM      1 CL   UNL     1     -13.847  -3.627  12.197  0.00  0.00    -0.083 Cl
ATOM      3  O   UNL     1     -12.315  -7.446  16.291  0.00  0.00    -0.439 OA
ATOM      5  N   UNL     1     -10.637  -6.178  15.444  0.00  0.00    -0.213 NA
ATOM     11  C   UNL     1     -10.990  -7.124  16.286  0.00  0.00    +0.201 A 
ATOM     13  C   UNL     1     -11.821  -5.839  14.835  0.00  0.00    +0.111 A 
ATOM     14  C   UNL     1     -12.850  -6.614  15.350  0.00  0.00    +0.155 A 
ATOM     17  C   UNL     1     -12.116  -4.894  13.841  0.00  0.00    +0.051 A 
ATOM     18  C   UNL     1     -14.180  -6.528  14.955  0.00  0.00    +0.050 A 
ATOM     21  C   UNL     1     -13.447  -4.779  13.416  0.00  0.00    +0.043 A 
ATOM     22  C   UNL     1     -14.457  -5.580  13.963  0.00  0.00    +0.024 A 
ENDBRANCH   6  11
BRANCH   4  10
ATOM     10  C   UNL     1      -7.938 -10.820  16.782  0.00  0.00    +0.119 C 
BRANCH  10  12
ATOM      2  F   UNL     1      -3.383 -12.078  19.851  0.00  0.00    -0.205 F 
ATOM     12  C   UNL     1      -6.722 -11.157  17.602  0.00  0.00    -0.033 A 
ATOM     15  C   UNL     1      -6.791 -11.137  18.995  0.00  0.00    +0.008 A 
ATOM     16  C   UNL     1      -5.523 -11.488  16.969  0.00  0.00    +0.008 A 
ATOM     19  C   UNL     1      -5.665 -11.448  19.755  0.00  0.00    +0.038 A 
ATOM     20  C   UNL     1      -4.395 -11.799  17.729  0.00  0.00    +0.038 A 
ATOM     23  C   UNL     1      -4.466 -11.778  19.122  0.00  0.00    +0.123 A 
ENDBRANCH  10  12
ENDBRANCH   4  10
TORSDOF 3
ENDMDL
MODEL 9
REMARK VINA RESULT:      -6.5     26.669     27.946
REMARK  Name = 45784175
REMARK  3 active torsions:
REMARK  status: ('A' for Active; 'I' for Inactive)
REMARK    1  A    between atoms: N_4  and  C_10
REMARK    2  A    between atoms: C_6  and  C_11
REMARK    3  A    between atoms: C_10  and  C_12
REMARK                            x       y       z     vdW  Elec       q    Type
REMARK                         _______ _______ _______ _____ _____    ______ ____
ROOT
ATOM      4  N   UNL     1      13.001   7.288  20.741  0.00  0.00    -0.297 NA
ATOM      6  C   UNL     1      11.652   8.603  22.137  0.00  0.00    +0.090 C 
ATOM      7  C   UNL     1      10.820   8.093  20.948  0.00  0.00    +0.029 C 
ATOM      8  C   UNL     1      13.110   8.375  21.716  0.00  0.00    +0.097 C 
ATOM      9  C   UNL     1      11.843   7.635  19.918  0.00  0.00    +0.085 C 
ENDROOT
BRANCH   6  11
ATOM      1 CL   UNL     1      10.165  15.519  24.897  0.00  0.00    -0.083 Cl
ATOM      3  O   UNL     1      11.395  10.950  21.534  0.00  0.00    -0.439 OA
ATOM      5  N   UNL     1      11.109  10.507  23.739  0.00  0.00    -0.213 NA
ATOM     11  C   UNL     1      11.373  10.032  22.541  0.00  0.00    +0.201 A 
ATOM     13  C   UNL     1      10.941  11.852  23.516  0.00  0.00    +0.111 A 
ATOM     14  C   UNL     1      11.116  12.128  22.168  0.00  0.00    +0.155 A 
ATOM     17  C   UNL     1      10.641  12.907  24.391  0.00  0.00    +0.051 A 
ATOM     18  C   UNL     1      11.016  13.391  21.599  0.00  0.00    +0.050 A 
ATOM     21  C   UNL     1      10.533  14.197  23.853  0.00  0.00    +0.043 A 
ATOM     22  C   UNL     1      10.716  14.433  22.485  0.00  0.00    +0.024 A 
ENDBRANCH   6  11
BRANCH   4  10
ATOM     10  C   UNL     1      14.214   7.126  19.952  0.00  0.00    +0.119 C 
BRANCH  10  12
ATOM      2  F   UNL     1      14.393  10.732  15.626  0.00  0.00    -0.205 F 
ATOM     12  C   UNL     1      14.263   8.090  18.796  0.00  0.00    -0.033 A 
ATOM     15  C   UNL     1      14.608   9.424  19.013  0.00  0.00    +0.008 A 
ATOM     16  C   UNL     1      13.961   7.649  17.507  0.00  0.00    +0.008 A 
ATOM     19  C   UNL     1      14.652  10.316  17.943  0.00  0.00    +0.038 A 
ATOM     20  C   UNL     1      14.005   8.542  16.437  0.00  0.00    +0.038 A 
ATOM     23  C   UNL     1      14.350   9.876  16.655  0.00  0.00    +0.123 A 
ENDBRANCH  10  12
ENDBRANCH   4  10
TORSDOF 3
ENDMDL
MODEL 10
REMARK VINA RESULT:      -6.4     26.078     28.542
REMARK  Name = 45784175
REMARK  3 active torsions:
REMARK  status: ('A' for Active; 'I' for Inactive)
REMARK    1  A    between atoms: N_4  and  C_10
REMARK    2  A    between atoms: C_6  and  C_11
REMARK    3  A    between atoms: C_10  and  C_12
REMARK                            x       y       z     vdW  Elec       q    Type
REMARK                         _______ _______ _______ _____ _____    ______ ____
ROOT
ATOM      4  N   UNL     1      16.422   9.173   5.235  0.00  0.00    -0.297 NA
ATOM      6  C   UNL     1      14.410   8.009   4.925  0.00  0.00    +0.090 C 
ATOM      7  C   UNL     1      14.194   9.501   4.617  0.00  0.00    +0.029 C 
ATOM      8  C   UNL     1      15.740   7.959   5.688  0.00  0.00    +0.097 C 
ATOM      9  C   UNL     1      15.388  10.209   5.241  0.00  0.00    +0.085 C 
ENDROOT
BRANCH   6  11
ATOM      1 CL   UNL     1       9.110   4.828   9.335  0.00  0.00    -0.083 Cl
ATOM      3  O   UNL     1      12.264   6.854   4.904  0.00  0.00    -0.439 OA
ATOM      5  N   UNL     1      13.140   7.176   6.970  0.00  0.00    -0.213 NA
ATOM     11  C   UNL     1      13.277   7.345   5.673  0.00  0.00    +0.201 A 
ATOM     13  C   UNL     1      11.938   6.520   7.078  0.00  0.00    +0.111 A 
ATOM     14  C   UNL     1      11.398   6.321   5.816  0.00  0.00    +0.155 A 
ATOM     17  C   UNL     1      11.231   6.057   8.198  0.00  0.00    +0.051 A 
ATOM     18  C   UNL     1      10.189   5.686   5.563  0.00  0.00    +0.050 A 
ATOM     21  C   UNL     1      10.006   5.411   7.983  0.00  0.00    +0.043 A 
ATOM     22  C   UNL     1       9.496   5.230   6.691  0.00  0.00    +0.024 A 
ENDBRANCH   6  11
BRANCH   4  10
ATOM     10  C   UNL     1      17.558   9.519   6.076  0.00  0.00    +0.119 C 
BRANCH  10  12
ATOM      2  F   UNL     1      22.112   6.450   4.810  0.00  0.00    -0.205 F 
ATOM     12  C   UNL     1      18.775   8.700   5.738  0.00  0.00    -0.033 A 
ATOM     15  C   UNL     1      18.938   8.192   4.448  0.00  0.00    +0.008 A 
ATOM     16  C   UNL     1      19.740   8.447   6.713  0.00  0.00    +0.008 A 
ATOM     19  C   UNL     1      20.064   7.432   4.135  0.00  0.00    +0.038 A 
ATOM     20  C   UNL     1      20.866   7.687   6.400  0.00  0.00    +0.038 A 
ATOM     23  C   UNL     1      21.028   7.179   5.111  0.00  0.00    +0.123 A 
ENDBRANCH  10  12
ENDBRANCH   4  10
TORSDOF 3
ENDMDL
