MODEL 1
REMARK VINA RESULT:      -7.1      0.000      0.000
REMARK  Name = 71693216
REMARK  12 active torsions:
REMARK  status: ('A' for Active; 'I' for Inactive)
REMARK    1  A    between atoms: O_3  and  C_30
REMARK    2  A    between atoms: N_5  and  C_15
REMARK    3  A    between atoms: C_8  and  C_12
REMARK    4  A    between atoms: C_9  and  C_15
REMARK    5  A    between atoms: C_11  and  C_16
REMARK    6  A    between atoms: C_12  and  C_17
REMARK    7  A    between atoms: C_12  and  C_18
REMARK    8  A    between atoms: C_13  and  C_19
REMARK    9  A    between atoms: C_16  and  C_20
REMARK   10  A    between atoms: C_21  and  C_24
REMARK   11  A    between atoms: C_24  and  C_27
REMARK   12  A    between atoms: C_27  and  C_30
REMARK                            x       y       z     vdW  Elec       q    Type
REMARK                         _______ _______ _______ _____ _____    ______ ____
ROOT
ATOM      8  C   UNL     1      14.555   8.840  20.512  0.00  0.00    +0.000 C 
ATOM      9  C   UNL     1      14.607   7.343  20.113  0.00  0.00    +0.032 C 
ATOM     10  C   UNL     1      13.906   9.003  21.895  0.00  0.00    +0.012 C 
ATOM     11  C   UNL     1      12.474   8.437  21.939  0.00  0.00    +0.022 C 
ATOM     13  C   UNL     1      12.395   7.059  21.313  0.00  0.00    -0.073 C 
ATOM     14  C   UNL     1      13.364   6.582  20.511  0.00  0.00    -0.022 C 
ATOM     19  C   UNL     1      11.197   6.222  21.668  0.00  0.00    +0.039 C 
ENDROOT
BRANCH   8  12
ATOM     12  C   UNL     1      15.948   9.476  20.513  0.00  0.00    -0.013 C 
ATOM     17  C   UNL     1      15.878  10.908  21.035  0.00  0.00    +0.007 C 
ATOM     18  C   UNL     1      16.912   8.643  21.349  0.00  0.00    +0.007 C 
ENDBRANCH   8  12
BRANCH   9  15
ATOM     15  C   UNL     1      14.845   7.180  18.608  0.00  0.00    +0.112 C 
BRANCH  15   5
ATOM      2  O   UNL     1      12.154   7.174  17.544  0.00  0.00    -0.276 OA
ATOM      5  N   UNL     1      14.202   8.226  17.876  0.00  0.00    -0.315 N 
ATOM     21  C   UNL     1      12.893   8.143  17.396  0.00  0.00    +0.214 C 
ATOM     31  H   UNL     1      14.707   9.099  17.747  0.00  0.00    +0.149 HD
BRANCH  21  24
ATOM     24  C   UNL     1      12.476   9.400  16.656  0.00  0.00    +0.107 C 
BRANCH  24  27
ATOM     27  C   UNL     1      13.615  10.408  16.530  0.00  0.00    +0.129 C 
BRANCH  27  30
ATOM      4  O   UNL     1      15.027  10.489  14.550  0.00  0.00    -0.251 OA
ATOM     30  C   UNL     1      13.950  10.705  15.087  0.00  0.00    +0.305 C 
BRANCH  30   3
ATOM      3  O   UNL     1      12.891  11.253  14.434  0.00  0.00    -0.481 OA
ATOM     33  H   UNL     1      12.348  11.815  15.028  0.00  0.00    +0.295 HD
ENDBRANCH  30   3
ENDBRANCH  27  30
ENDBRANCH  24  27
ENDBRANCH  21  24
ENDBRANCH  15   5
ENDBRANCH   9  15
BRANCH  11  16
ATOM     16  C   UNL     1      11.480   9.398  21.278  0.00  0.00    +0.082 C 
BRANCH  16  20
ATOM      1 CL   UNL     1      10.502  14.510  26.842  0.00  0.00    -0.083 Cl
ATOM      6  N   UNL     1      11.161  10.590  23.453  0.00  0.00    -0.342 N 
ATOM      7  N   UNL     1      11.246  11.879  21.644  0.00  0.00    -0.232 NA
ATOM     20  C   UNL     1      11.297  10.645  22.094  0.00  0.00    +0.109 A 
ATOM     22  C   UNL     1      11.013  11.874  23.911  0.00  0.00    +0.068 A 
ATOM     23  C   UNL     1      11.069  12.659  22.763  0.00  0.00    +0.089 A 
ATOM     25  C   UNL     1      10.839  12.401  25.192  0.00  0.00    +0.047 A 
ATOM     26  C   UNL     1      10.946  14.054  22.881  0.00  0.00    +0.031 A 
ATOM     28  C   UNL     1      10.719  13.791  25.290  0.00  0.00    +0.043 A 
ATOM     29  C   UNL     1      10.771  14.605  24.157  0.00  0.00    +0.022 A 
ATOM     32  H   UNL     1      11.169   9.754  24.022  0.00  0.00    +0.167 HD
ENDBRANCH  16  20
ENDBRANCH  11  16
TORSDOF 9
ENDMDL
MODEL 2
REMARK VINA RESULT:      -6.8      4.115      7.207
REMARK  Name = 71693216
REMARK  12 active torsions:
REMARK  status: ('A' for Active; 'I' for Inactive)
REMARK    1  A    between atoms: O_3  and  C_30
REMARK    2  A    between atoms: N_5  and  C_15
REMARK    3  A    between atoms: C_8  and  C_12
REMARK    4  A    between atoms: C_9  and  C_15
REMARK    5  A    between atoms: C_11  and  C_16
REMARK    6  A    between atoms: C_12  and  C_17
REMARK    7  A    between atoms: C_12  and  C_18
REMARK    8  A    between atoms: C_13  and  C_19
REMARK    9  A    between atoms: C_16  and  C_20
REMARK   10  A    between atoms: C_21  and  C_24
REMARK   11  A    between atoms: C_24  and  C_27
REMARK   12  A    between atoms: C_27  and  C_30
REMARK                            x       y       z     vdW  Elec       q    Type
REMARK                         _______ _______ _______ _____ _____    ______ ____
ROOT
ATOM      8  C   UNL     1      12.974   7.672  20.967  0.00  0.00    +0.000 C 
ATOM      9  C   UNL     1      12.447   9.021  20.417  0.00  0.00    +0.032 C 
ATOM     10  C   UNL     1      14.305   7.879  21.708  0.00  0.00    +0.012 C 
ATOM     11  C   UNL     1      15.388   8.493  20.801  0.00  0.00    +0.022 C 
ATOM     13  C   UNL     1      14.860   9.676  20.015  0.00  0.00    -0.073 C 
ATOM     14  C   UNL     1      13.542   9.904  19.866  0.00  0.00    -0.022 C 
ATOM     19  C   UNL     1      15.881  10.620  19.444  0.00  0.00    +0.039 C 
ENDROOT
BRANCH   8  12
ATOM     12  C   UNL     1      11.960   7.002  21.899  0.00  0.00    -0.013 C 
ATOM     17  C   UNL     1      10.895   8.004  22.333  0.00  0.00    +0.007 C 
ATOM     18  C   UNL     1      11.323   5.798  21.215  0.00  0.00    +0.007 C 
ENDBRANCH   8  12
BRANCH   9  15
ATOM     15  C   UNL     1      11.380   8.799  19.339  0.00  0.00    +0.112 C 
BRANCH  15   5
ATOM      2  O   UNL     1      10.179   8.165  16.784  0.00  0.00    -0.276 OA
ATOM      5  N   UNL     1      11.901   9.096  18.041  0.00  0.00    -0.315 N 
ATOM     21  C   UNL     1      11.254   8.753  16.851  0.00  0.00    +0.214 C 
ATOM     31  H   UNL     1      12.761   9.634  17.983  0.00  0.00    +0.149 HD
BRANCH  21  24
ATOM     24  C   UNL     1      12.039   9.193  15.629  0.00  0.00    +0.107 C 
BRANCH  24  27
ATOM     27  C   UNL     1      13.493   9.519  15.956  0.00  0.00    +0.129 C 
BRANCH  27  30
ATOM      4  O   UNL     1      14.225  11.213  14.370  0.00  0.00    -0.251 OA
ATOM     30  C   UNL     1      13.877  10.907  15.501  0.00  0.00    +0.305 C 
BRANCH  30   3
ATOM      3  O   UNL     1      13.789  11.804  16.520  0.00  0.00    -0.481 OA
ATOM     33  H   UNL     1      13.399  12.654  16.224  0.00  0.00    +0.295 HD
ENDBRANCH  30   3
ENDBRANCH  27  30
ENDBRANCH  24  27
ENDBRANCH  21  24
ENDBRANCH  15   5
ENDBRANCH   9  15
BRANCH  11  16
ATOM     16  C   UNL     1      15.989   7.438  19.866  0.00  0.00    +0.082 C 
BRANCH  16  20
ATOM      1 CL   UNL     1      22.307   6.049  23.891  0.00  0.00    -0.083 Cl
ATOM      6  N   UNL     1      17.810   7.357  21.578  0.00  0.00    -0.342 N 
ATOM      7  N   UNL     1      18.131   6.118  19.762  0.00  0.00    -0.232 NA
ATOM     20  C   UNL     1      17.316   6.949  20.370  0.00  0.00    +0.109 A 
ATOM     22  C   UNL     1      19.025   6.748  21.761  0.00  0.00    +0.068 A 
ATOM     23  C   UNL     1      19.203   5.980  20.614  0.00  0.00    +0.089 A 
ATOM     25  C   UNL     1      19.955   6.801  22.800  0.00  0.00    +0.047 A 
ATOM     26  C   UNL     1      20.372   5.213  20.477  0.00  0.00    +0.031 A 
ATOM     28  C   UNL     1      21.114   6.032  22.647  0.00  0.00    +0.043 A 
ATOM     29  C   UNL     1      21.320   5.251  21.507  0.00  0.00    +0.022 A 
ATOM     32  H   UNL     1      17.361   7.993  22.223  0.00  0.00    +0.167 HD
ENDBRANCH  16  20
ENDBRANCH  11  16
TORSDOF 9
ENDMDL
MODEL 3
REMARK VINA RESULT:      -6.7     14.956     19.305
REMARK  Name = 71693216
REMARK  12 active torsions:
REMARK  status: ('A' for Active; 'I' for Inactive)
REMARK    1  A    between atoms: O_3  and  C_30
REMARK    2  A    between atoms: N_5  and  C_15
REMARK    3  A    between atoms: C_8  and  C_12
REMARK    4  A    between atoms: C_9  and  C_15
REMARK    5  A    between atoms: C_11  and  C_16
REMARK    6  A    between atoms: C_12  and  C_17
REMARK    7  A    between atoms: C_12  and  C_18
REMARK    8  A    between atoms: C_13  and  C_19
REMARK    9  A    between atoms: C_16  and  C_20
REMARK   10  A    between atoms: C_21  and  C_24
REMARK   11  A    between atoms: C_24  and  C_27
REMARK   12  A    between atoms: C_27  and  C_30
REMARK                            x       y       z     vdW  Elec       q    Type
REMARK                         _______ _______ _______ _____ _____    ______ ____
ROOT
ATOM      8  C   UNL     1      10.252   6.983  -0.371  0.00  0.00    +0.000 C 
ATOM      9  C   UNL     1      11.746   7.227  -0.699  0.00  0.00    +0.032 C 
ATOM     10  C   UNL     1       9.858   7.726   0.916  0.00  0.00    +0.012 C 
ATOM     11  C   UNL     1      10.702   7.284   2.126  0.00  0.00    +0.022 C 
ATOM     13  C   UNL     1      12.181   7.240   1.795  0.00  0.00    -0.073 C 
ATOM     14  C   UNL     1      12.628   7.230   0.527  0.00  0.00    -0.022 C 
ATOM     19  C   UNL     1      13.135   7.257   2.957  0.00  0.00    +0.039 C 
ENDROOT
BRANCH   8  12
ATOM     12  C   UNL     1       9.338   7.417  -1.521  0.00  0.00    -0.013 C 
ATOM     17  C   UNL     1       8.584   6.217  -2.084  0.00  0.00    +0.007 C 
ATOM     18  C   UNL     1       8.367   8.495  -1.051  0.00  0.00    +0.007 C 
ENDBRANCH   8  12
BRANCH   9  15
ATOM     15  C   UNL     1      12.268   6.192  -1.701  0.00  0.00    +0.112 C 
BRANCH  15   5
ATOM      2  O   UNL     1      10.932   3.723  -0.999  0.00  0.00    -0.276 OA
ATOM      5  N   UNL     1      12.831   5.066  -1.022  0.00  0.00    -0.315 N 
ATOM     21  C   UNL     1      12.113   3.907  -0.720  0.00  0.00    +0.214 C 
ATOM     31  H   UNL     1      13.821   5.092  -0.796  0.00  0.00    +0.149 HD
BRANCH  21  24
ATOM     24  C   UNL     1      12.965   2.882   0.005  0.00  0.00    +0.107 C 
BRANCH  24  27
ATOM     27  C   UNL     1      13.506   3.406   1.332  0.00  0.00    +0.129 C 
BRANCH  27  30
ATOM      4  O   UNL     1      15.612   4.131   0.352  0.00  0.00    -0.251 OA
ATOM     30  C   UNL     1      14.999   3.631   1.284  0.00  0.00    +0.305 C 
BRANCH  30   3
ATOM      3  O   UNL     1      15.601   3.204   2.426  0.00  0.00    -0.481 OA
ATOM     33  H   UNL     1      15.844   2.255   2.377  0.00  0.00    +0.295 HD
ENDBRANCH  30   3
ENDBRANCH  27  30
ENDBRANCH  24  27
ENDBRANCH  21  24
ENDBRANCH  15   5
ENDBRANCH   9  15
BRANCH  11  16
ATOM     16  C   UNL     1      10.222   5.935   2.671  0.00  0.00    +0.082 C 
BRANCH  16  20
ATOM      1 CL   UNL     1       9.431   4.549  10.121  0.00  0.00    -0.083 Cl
ATOM      6  N   UNL     1      10.186   4.946   4.968  0.00  0.00    -0.342 N 
ATOM      7  N   UNL     1       9.443   7.033   4.799  0.00  0.00    -0.232 NA
ATOM     20  C   UNL     1       9.937   6.007   4.144  0.00  0.00    +0.109 A 
ATOM     22  C   UNL     1       9.829   5.311   6.240  0.00  0.00    +0.068 A 
ATOM     23  C   UNL     1       9.368   6.618   6.109  0.00  0.00    +0.089 A 
ATOM     25  C   UNL     1       9.867   4.631   7.459  0.00  0.00    +0.047 A 
ATOM     26  C   UNL     1       8.914   7.302   7.249  0.00  0.00    +0.031 A 
ATOM     28  C   UNL     1       9.412   5.327   8.583  0.00  0.00    +0.043 A 
ATOM     29  C   UNL     1       8.944   6.640   8.483  0.00  0.00    +0.022 A 
ATOM     32  H   UNL     1      10.566   4.050   4.691  0.00  0.00    +0.167 HD
ENDBRANCH  16  20
ENDBRANCH  11  16
TORSDOF 9
ENDMDL
MODEL 4
REMARK VINA RESULT:      -6.4     14.738     18.982
REMARK  Name = 71693216
REMARK  12 active torsions:
REMARK  status: ('A' for Active; 'I' for Inactive)
REMARK    1  A    between atoms: O_3  and  C_30
REMARK    2  A    between atoms: N_5  and  C_15
REMARK    3  A    between atoms: C_8  and  C_12
REMARK    4  A    between atoms: C_9  and  C_15
REMARK    5  A    between atoms: C_11  and  C_16
REMARK    6  A    between atoms: C_12  and  C_17
REMARK    7  A    between atoms: C_12  and  C_18
REMARK    8  A    between atoms: C_13  and  C_19
REMARK    9  A    between atoms: C_16  and  C_20
REMARK   10  A    between atoms: C_21  and  C_24
REMARK   11  A    between atoms: C_24  and  C_27
REMARK   12  A    between atoms: C_27  and  C_30
REMARK                            x       y       z     vdW  Elec       q    Type
REMARK                         _______ _______ _______ _____ _____    ______ ____
ROOT
ATOM      8  C   UNL     1       8.554   8.760   4.844  0.00  0.00    +0.000 C 
ATOM      9  C   UNL     1       8.305   8.049   6.198  0.00  0.00    +0.032 C 
ATOM     10  C   UNL     1       8.357   7.778   3.679  0.00  0.00    +0.012 C 
ATOM     11  C   UNL     1       9.302   6.565   3.773  0.00  0.00    +0.022 C 
ATOM     13  C   UNL     1       9.315   5.968   5.166  0.00  0.00    -0.073 C 
ATOM     14  C   UNL     1       8.853   6.641   6.235  0.00  0.00    -0.022 C 
ATOM     19  C   UNL     1       9.828   4.561   5.295  0.00  0.00    +0.039 C 
ENDROOT
BRANCH   8  12
ATOM     12  C   UNL     1       7.634   9.972   4.662  0.00  0.00    -0.013 C 
ATOM     17  C   UNL     1       8.451  11.212   4.312  0.00  0.00    +0.007 C 
ATOM     18  C   UNL     1       6.591   9.691   3.587  0.00  0.00    +0.007 C 
ENDBRANCH   8  12
BRANCH   9  15
ATOM     15  C   UNL     1       8.892   8.855   7.362  0.00  0.00    +0.112 C 
BRANCH  15   5
ATOM      2  O   UNL     1      10.966  10.763   6.706  0.00  0.00    -0.276 OA
ATOM      5  N   UNL     1      10.306   8.661   7.452  0.00  0.00    -0.315 N 
ATOM     21  C   UNL     1      11.244   9.639   7.114  0.00  0.00    +0.214 C 
ATOM     31  H   UNL     1      10.644   7.783   7.834  0.00  0.00    +0.149 HD
BRANCH  21  24
ATOM     24  C   UNL     1      12.668   9.154   7.308  0.00  0.00    +0.107 C 
BRANCH  24  27
ATOM     27  C   UNL     1      12.988   7.928   6.458  0.00  0.00    +0.129 C 
BRANCH  27  30
ATOM      4  O   UNL     1      11.910   6.163   7.740  0.00  0.00    -0.251 OA
ATOM     30  C   UNL     1      12.924   6.651   7.262  0.00  0.00    +0.305 C 
BRANCH  30   3
ATOM      3  O   UNL     1      14.154   6.088   7.398  0.00  0.00    -0.481 OA
ATOM     33  H   UNL     1      14.846   6.610   6.938  0.00  0.00    +0.295 HD
ENDBRANCH  30   3
ENDBRANCH  27  30
ENDBRANCH  24  27
ENDBRANCH  21  24
ENDBRANCH  15   5
ENDBRANCH   9  15
BRANCH  11  16
ATOM     16  C   UNL     1      10.719   6.932   3.320  0.00  0.00    +0.082 C 
BRANCH  16  20
ATOM      1 CL   UNL     1      11.520   2.483  -2.813  0.00  0.00    -0.083 Cl
ATOM      6  N   UNL     1      10.422   5.647   1.195  0.00  0.00    -0.342 N 
ATOM      7  N   UNL     1      12.396   5.429   2.192  0.00  0.00    -0.232 NA
ATOM     20  C   UNL     1      11.213   5.998   2.253  0.00  0.00    +0.109 A 
ATOM     22  C   UNL     1      11.142   4.794   0.399  0.00  0.00    +0.068 A 
ATOM     23  C   UNL     1      12.370   4.674   1.042  0.00  0.00    +0.089 A 
ATOM     25  C   UNL     1      10.834   4.137  -0.794  0.00  0.00    +0.047 A 
ATOM     26  C   UNL     1      13.361   3.853   0.478  0.00  0.00    +0.031 A 
ATOM     28  C   UNL     1      11.832   3.324  -1.341  0.00  0.00    +0.043 A 
ATOM     29  C   UNL     1      13.074   3.184  -0.718  0.00  0.00    +0.022 A 
ATOM     32  H   UNL     1       9.475   5.960   1.027  0.00  0.00    +0.167 HD
ENDBRANCH  16  20
ENDBRANCH  11  16
TORSDOF 9
ENDMDL
MODEL 5
REMARK VINA RESULT:      -6.3     13.860     18.833
REMARK  Name = 71693216
REMARK  12 active torsions:
REMARK  status: ('A' for Active; 'I' for Inactive)
REMARK    1  A    between atoms: O_3  and  C_30
REMARK    2  A    between atoms: N_5  and  C_15
REMARK    3  A    between atoms: C_8  and  C_12
REMARK    4  A    between atoms: C_9  and  C_15
REMARK    5  A    between atoms: C_11  and  C_16
REMARK    6  A    between atoms: C_12  and  C_17
REMARK    7  A    between atoms: C_12  and  C_18
REMARK    8  A    between atoms: C_13  and  C_19
REMARK    9  A    between atoms: C_16  and  C_20
REMARK   10  A    between atoms: C_21  and  C_24
REMARK   11  A    between atoms: C_24  and  C_27
REMARK   12  A    between atoms: C_27  and  C_30
REMARK                            x       y       z     vdW  Elec       q    Type
REMARK                         _______ _______ _______ _____ _____    ______ ____
ROOT
ATOM      8  C   UNL     1      12.597   8.360   5.338  0.00  0.00    +0.000 C 
ATOM      9  C   UNL     1      11.375   9.146   5.877  0.00  0.00    +0.032 C 
ATOM     10  C   UNL     1      12.554   8.291   3.803  0.00  0.00    +0.012 C 
ATOM     11  C   UNL     1      11.271   7.614   3.285  0.00  0.00    +0.022 C 
ATOM     13  C   UNL     1      10.033   8.154   3.973  0.00  0.00    -0.073 C 
ATOM     14  C   UNL     1      10.101   8.848   5.123  0.00  0.00    -0.022 C 
ATOM     19  C   UNL     1       8.718   7.918   3.283  0.00  0.00    +0.039 C 
ENDROOT
BRANCH   8  12
ATOM     12  C   UNL     1      13.920   8.984   5.792  0.00  0.00    -0.013 C 
ATOM     17  C   UNL     1      14.895   7.898   6.237  0.00  0.00    +0.007 C 
ATOM     18  C   UNL     1      14.523   9.827   4.674  0.00  0.00    +0.007 C 
ENDBRANCH   8  12
BRANCH   9  15
ATOM     15  C   UNL     1      11.160   8.876   7.370  0.00  0.00    +0.112 C 
BRANCH  15   5
ATOM      2  O   UNL     1      11.602   6.045   7.771  0.00  0.00    -0.276 OA
ATOM      5  N   UNL     1      10.168   7.865   7.565  0.00  0.00    -0.315 N 
ATOM     21  C   UNL     1      10.467   6.514   7.753  0.00  0.00    +0.214 C 
ATOM     31  H   UNL     1       9.196   8.155   7.625  0.00  0.00    +0.149 HD
BRANCH  21  24
ATOM     24  C   UNL     1       9.217   5.673   7.933  0.00  0.00    +0.107 C 
BRANCH  24  27
ATOM     27  C   UNL     1       9.483   4.395   8.723  0.00  0.00    +0.129 C 
BRANCH  27  30
ATOM      4  O   UNL     1      10.507   4.771  10.898  0.00  0.00    -0.251 OA
ATOM     30  C   UNL     1       9.502   4.644  10.212  0.00  0.00    +0.305 C 
BRANCH  30   3
ATOM      3  O   UNL     1       8.243   4.716  10.720  0.00  0.00    -0.481 OA
ATOM     33  H   UNL     1       8.242   4.674  11.700  0.00  0.00    +0.295 HD
ENDBRANCH  30   3
ENDBRANCH  27  30
ENDBRANCH  24  27
ENDBRANCH  21  24
ENDBRANCH  15   5
ENDBRANCH   9  15
BRANCH  11  16
ATOM     16  C   UNL     1      11.355   6.091   3.424  0.00  0.00    +0.082 C 
BRANCH  16  20
ATOM      1 CL   UNL     1      12.395   2.464  -3.195  0.00  0.00    -0.083 Cl
ATOM      6  N   UNL     1      11.103   4.838   1.274  0.00  0.00    -0.342 N 
ATOM      7  N   UNL     1      13.178   5.412   1.824  0.00  0.00    -0.232 NA
ATOM     20  C   UNL     1      11.915   5.457   2.183  0.00  0.00    +0.109 A 
ATOM     22  C   UNL     1      11.895   4.363   0.260  0.00  0.00    +0.068 A 
ATOM     23  C   UNL     1      13.185   4.733   0.627  0.00  0.00    +0.089 A 
ATOM     25  C   UNL     1      11.602   3.662  -0.911  0.00  0.00    +0.047 A 
ATOM     26  C   UNL     1      14.260   4.392  -0.212  0.00  0.00    +0.031 A 
ATOM     28  C   UNL     1      12.683   3.330  -1.733  0.00  0.00    +0.043 A 
ATOM     29  C   UNL     1      13.990   3.688  -1.392  0.00  0.00    +0.022 A 
ATOM     32  H   UNL     1      10.097   4.747   1.335  0.00  0.00    +0.167 HD
ENDBRANCH  16  20
ENDBRANCH  11  16
TORSDOF 9
ENDMDL
MODEL 6
REMARK VINA RESULT:      -6.3     14.370     18.152
REMARK  Name = 71693216
REMARK  12 active torsions:
REMARK  status: ('A' for Active; 'I' for Inactive)
REMARK    1  A    between atoms: O_3  and  C_30
REMARK    2  A    between atoms: N_5  and  C_15
REMARK    3  A    between atoms: C_8  and  C_12
REMARK    4  A    between atoms: C_9  and  C_15
REMARK    5  A    between atoms: C_11  and  C_16
REMARK    6  A    between atoms: C_12  and  C_17
REMARK    7  A    between atoms: C_12  and  C_18
REMARK    8  A    between atoms: C_13  and  C_19
REMARK    9  A    between atoms: C_16  and  C_20
REMARK   10  A    between atoms: C_21  and  C_24
REMARK   11  A    between atoms: C_24  and  C_27
REMARK   12  A    between atoms: C_27  and  C_30
REMARK                            x       y       z     vdW  Elec       q    Type
REMARK                         _______ _______ _______ _____ _____    ______ ____
ROOT
ATOM      8  C   UNL     1       8.980   8.234   5.727  0.00  0.00    +0.000 C 
ATOM      9  C   UNL     1       8.715   8.074   7.245  0.00  0.00    +0.032 C 
ATOM     10  C   UNL     1       8.635   6.935   4.983  0.00  0.00    +0.012 C 
ATOM     11  C   UNL     1       9.452   5.734   5.497  0.00  0.00    +0.022 C 
ATOM     13  C   UNL     1       9.460   5.665   7.011  0.00  0.00    -0.073 C 
ATOM     14  C   UNL     1       9.114   6.716   7.775  0.00  0.00    -0.022 C 
ATOM     19  C   UNL     1       9.829   4.344   7.626  0.00  0.00    +0.039 C 
ENDROOT
BRANCH   8  12
ATOM     12  C   UNL     1       8.186   9.400   5.131  0.00  0.00    -0.013 C 
ATOM     17  C   UNL     1       9.124  10.536   4.735  0.00  0.00    +0.007 C 
ATOM     18  C   UNL     1       7.369   8.930   3.933  0.00  0.00    +0.007 C 
ENDBRANCH   8  12
BRANCH   9  15
ATOM     15  C   UNL     1       9.430   9.165   8.050  0.00  0.00    +0.112 C 
BRANCH  15   5
ATOM      2  O   UNL     1      11.095  11.463   7.483  0.00  0.00    -0.276 OA
ATOM      5  N   UNL     1      10.831   9.169   7.767  0.00  0.00    -0.315 N 
ATOM     21  C   UNL     1      11.564  10.328   7.503  0.00  0.00    +0.214 C 
ATOM     31  H   UNL     1      11.330   8.285   7.815  0.00  0.00    +0.149 HD
BRANCH  21  24
ATOM     24  C   UNL     1      13.027  10.029   7.237  0.00  0.00    +0.107 C 
BRANCH  24  27
ATOM     27  C   UNL     1      13.219   8.950   6.175  0.00  0.00    +0.129 C 
BRANCH  27  30
ATOM      4  O   UNL     1      15.102   7.447   6.516  0.00  0.00    -0.251 OA
ATOM     30  C   UNL     1      13.932   7.737   6.724  0.00  0.00    +0.305 C 
BRANCH  30   3
ATOM      3  O   UNL     1      13.107   6.984   7.498  0.00  0.00    -0.481 OA
ATOM     33  H   UNL     1      12.201   7.358   7.536  0.00  0.00    +0.295 HD
ENDBRANCH  30   3
ENDBRANCH  27  30
ENDBRANCH  24  27
ENDBRANCH  21  24
ENDBRANCH  15   5
ENDBRANCH   9  15
BRANCH  11  16
ATOM     16  C   UNL     1      10.879   5.758   4.941  0.00  0.00    +0.082 C 
BRANCH  16  20
ATOM      1 CL   UNL     1      12.451   2.871  -1.932  0.00  0.00    -0.083 Cl
ATOM      6  N   UNL     1      11.822   4.519   2.985  0.00  0.00    -0.342 N 
ATOM      7  N   UNL     1      10.109   5.865   2.546  0.00  0.00    -0.232 NA
ATOM     20  C   UNL     1      10.907   5.404   3.483  0.00  0.00    +0.109 A 
ATOM     22  C   UNL     1      11.600   4.400   1.637  0.00  0.00    +0.068 A 
ATOM     23  C   UNL     1      10.526   5.250   1.388  0.00  0.00    +0.089 A 
ATOM     25  C   UNL     1      12.226   3.645   0.644  0.00  0.00    +0.047 A 
ATOM     26  C   UNL     1      10.036   5.367   0.076  0.00  0.00    +0.031 A 
ATOM     28  C   UNL     1      11.725   3.774  -0.655  0.00  0.00    +0.043 A 
ATOM     29  C   UNL     1      10.649   4.619  -0.937  0.00  0.00    +0.022 A 
ATOM     32  H   UNL     1      12.536   4.035   3.514  0.00  0.00    +0.167 HD
ENDBRANCH  16  20
ENDBRANCH  11  16
TORSDOF 9
ENDMDL
MODEL 7
REMARK VINA RESULT:      -6.1     26.781     29.668
REMARK  Name = 71693216
REMARK  12 active torsions:
REMARK  status: ('A' for Active; 'I' for Inactive)
REMARK    1  A    between atoms: O_3  and  C_30
REMARK    2  A    between atoms: N_5  and  C_15
REMARK    3  A    between atoms: C_8  and  C_12
REMARK    4  A    between atoms: C_9  and  C_15
REMARK    5  A    between atoms: C_11  and  C_16
REMARK    6  A    between atoms: C_12  and  C_17
REMARK    7  A    between atoms: C_12  and  C_18
REMARK    8  A    between atoms: C_13  and  C_19
REMARK    9  A    between atoms: C_16  and  C_20
REMARK   10  A    between atoms: C_21  and  C_24
REMARK   11  A    between atoms: C_24  and  C_27
REMARK   12  A    between atoms: C_27  and  C_30
REMARK                            x       y       z     vdW  Elec       q    Type
REMARK                         _______ _______ _______ _____ _____    ______ ____
ROOT
ATOM      8  C   UNL     1      -3.161 -12.133  13.802  0.00  0.00    +0.000 C 
ATOM      9  C   UNL     1      -1.952 -11.289  14.278  0.00  0.00    +0.032 C 
ATOM     10  C   UNL     1      -3.018 -12.481  12.312  0.00  0.00    +0.012 C 
ATOM     11  C   UNL     1      -2.920 -11.225  11.426  0.00  0.00    +0.022 C 
ATOM     13  C   UNL     1      -1.934 -10.218  11.983  0.00  0.00    -0.073 C 
ATOM     14  C   UNL     1      -1.502 -10.271  13.256  0.00  0.00    -0.022 C 
ATOM     19  C   UNL     1      -1.419  -9.176  11.030  0.00  0.00    +0.039 C 
ENDROOT
BRANCH   8  12
ATOM     12  C   UNL     1      -3.317 -13.417  14.622  0.00  0.00    -0.013 C 
ATOM     17  C   UNL     1      -4.791 -13.783  14.763  0.00  0.00    +0.007 C 
ATOM     18  C   UNL     1      -2.536 -14.557  13.979  0.00  0.00    +0.007 C 
ENDBRANCH   8  12
BRANCH   9  15
ATOM     15  C   UNL     1      -2.259 -10.581  15.602  0.00  0.00    +0.112 C 
BRANCH  15   5
ATOM      2  O   UNL     1      -4.242 -11.146  17.633  0.00  0.00    -0.276 OA
ATOM      5  N   UNL     1      -3.616 -10.132  15.635  0.00  0.00    -0.315 N 
ATOM     21  C   UNL     1      -4.512 -10.451  16.657  0.00  0.00    +0.214 C 
ATOM     31  H   UNL     1      -3.928  -9.502  14.902  0.00  0.00    +0.149 HD
BRANCH  21  24
ATOM     24  C   UNL     1      -5.881  -9.838  16.428  0.00  0.00    +0.107 C 
BRANCH  24  27
ATOM     27  C   UNL     1      -7.011 -10.725  16.944  0.00  0.00    +0.129 C 
BRANCH  27  30
ATOM      4  O   UNL     1      -8.972  -9.395  17.500  0.00  0.00    -0.251 OA
ATOM     30  C   UNL     1      -7.952  -9.969  17.853  0.00  0.00    +0.305 C 
BRANCH  30   3
ATOM      3  O   UNL     1      -7.526 -10.001  19.144  0.00  0.00    -0.481 OA
ATOM     33  H   UNL     1      -6.555 -10.124  19.205  0.00  0.00    +0.295 HD
ENDBRANCH  30   3
ENDBRANCH  27  30
ENDBRANCH  24  27
ENDBRANCH  21  24
ENDBRANCH  15   5
ENDBRANCH   9  15
BRANCH  11  16
ATOM     16  C   UNL     1      -4.297 -10.587  11.218  0.00  0.00    +0.082 C 
BRANCH  16  20
ATOM      1 CL   UNL     1      -5.129 -12.106   3.799  0.00  0.00    -0.083 Cl
ATOM      6  N   UNL     1      -4.171 -11.515   8.899  0.00  0.00    -0.342 N 
ATOM      7  N   UNL     1      -5.553  -9.798   9.183  0.00  0.00    -0.232 NA
ATOM     20  C   UNL     1      -4.698 -10.603   9.771  0.00  0.00    +0.109 A 
ATOM     22  C   UNL     1      -4.723 -11.282   7.666  0.00  0.00    +0.068 A 
ATOM     23  C   UNL     1      -5.582 -10.206   7.869  0.00  0.00    +0.089 A 
ATOM     25  C   UNL     1      -4.550 -11.902   6.427  0.00  0.00    +0.047 A 
ATOM     26  C   UNL     1      -6.320  -9.704   6.783  0.00  0.00    +0.031 A 
ATOM     28  C   UNL     1      -5.292 -11.389   5.358  0.00  0.00    +0.043 A 
ATOM     29  C   UNL     1      -6.163 -10.310   5.531  0.00  0.00    +0.022 A 
ATOM     32  H   UNL     1      -3.495 -12.234   9.122  0.00  0.00    +0.167 HD
ENDBRANCH  16  20
ENDBRANCH  11  16
TORSDOF 9
ENDMDL
MODEL 8
REMARK VINA RESULT:      -6.1     26.951     28.731
REMARK  Name = 71693216
REMARK  12 active torsions:
REMARK  status: ('A' for Active; 'I' for Inactive)
REMARK    1  A    between atoms: O_3  and  C_30
REMARK    2  A    between atoms: N_5  and  C_15
REMARK    3  A    between atoms: C_8  and  C_12
REMARK    4  A    between atoms: C_9  and  C_15
REMARK    5  A    between atoms: C_11  and  C_16
REMARK    6  A    between atoms: C_12  and  C_17
REMARK    7  A    between atoms: C_12  and  C_18
REMARK    8  A    between atoms: C_13  and  C_19
REMARK    9  A    between atoms: C_16  and  C_20
REMARK   10  A    between atoms: C_21  and  C_24
REMARK   11  A    between atoms: C_24  and  C_27
REMARK   12  A    between atoms: C_27  and  C_30
REMARK                            x       y       z     vdW  Elec       q    Type
REMARK                         _______ _______ _______ _____ _____    ______ ____
ROOT
ATOM      8  C   UNL     1      -5.914 -10.597  17.837  0.00  0.00    +0.000 C 
ATOM      9  C   UNL     1      -5.399 -11.079  16.457  0.00  0.00    +0.032 C 
ATOM     10  C   UNL     1      -7.427 -10.837  17.957  0.00  0.00    +0.012 C 
ATOM     11  C   UNL     1      -8.223 -10.109  16.857  0.00  0.00    +0.022 C 
ATOM     13  C   UNL     1      -7.611 -10.320  15.486  0.00  0.00    -0.073 C 
ATOM     14  C   UNL     1      -6.352 -10.767  15.328  0.00  0.00    -0.022 C 
ATOM     19  C   UNL     1      -8.496 -10.050  14.301  0.00  0.00    +0.039 C 
ENDROOT
BRANCH   8  12
ATOM     12  C   UNL     1      -5.185 -11.292  18.991  0.00  0.00    -0.013 C 
ATOM     17  C   UNL     1      -6.048 -11.281  20.248  0.00  0.00    +0.007 C 
ATOM     18  C   UNL     1      -4.813 -12.718  18.602  0.00  0.00    +0.007 C 
ENDBRANCH   8  12
BRANCH   9  15
ATOM     15  C   UNL     1      -4.022 -10.483  16.142  0.00  0.00    +0.112 C 
BRANCH  15   5
ATOM      2  O   UNL     1      -1.170 -10.560  15.660  0.00  0.00    -0.276 OA
ATOM      5  N   UNL     1      -3.329 -11.285  15.184  0.00  0.00    -0.315 N 
ATOM     21  C   UNL     1      -1.943 -11.263  15.014  0.00  0.00    +0.214 C 
ATOM     31  H   UNL     1      -3.870 -11.947  14.635  0.00  0.00    +0.149 HD
BRANCH  21  24
ATOM     24  C   UNL     1      -1.486 -12.216  13.926  0.00  0.00    +0.107 C 
BRANCH  24  27
ATOM     27  C   UNL     1      -2.297 -12.067  12.642  0.00  0.00    +0.129 C 
BRANCH  27  30
ATOM      4  O   UNL     1      -1.339 -10.019  11.743  0.00  0.00    -0.251 OA
ATOM     30  C   UNL     1      -2.312 -10.641  12.145  0.00  0.00    +0.305 C 
BRANCH  30   3
ATOM      3  O   UNL     1      -3.563 -10.111  12.195  0.00  0.00    -0.481 OA
ATOM     33  H   UNL     1      -3.622  -9.267  11.697  0.00  0.00    +0.295 HD
ENDBRANCH  30   3
ENDBRANCH  27  30
ENDBRANCH  24  27
ENDBRANCH  21  24
ENDBRANCH  15   5
ENDBRANCH   9  15
BRANCH  11  16
ATOM     16  C   UNL     1      -8.361  -8.616  17.172  0.00  0.00    +0.082 C 
BRANCH  16  20
ATOM      1 CL   UNL     1     -13.841  -4.632  13.685  0.00  0.00    -0.083 Cl
ATOM      6  N   UNL     1      -9.697  -7.003  15.805  0.00  0.00    -0.342 N 
ATOM      7  N   UNL     1     -10.868  -8.502  16.954  0.00  0.00    -0.232 NA
ATOM     20  C   UNL     1      -9.663  -8.066  16.664  0.00  0.00    +0.109 A 
ATOM     22  C   UNL     1     -11.012  -6.735  15.522  0.00  0.00    +0.068 A 
ATOM     23  C   UNL     1     -11.722  -7.684  16.251  0.00  0.00    +0.089 A 
ATOM     25  C   UNL     1     -11.622  -5.773  14.716  0.00  0.00    +0.047 A 
ATOM     26  C   UNL     1     -13.126  -7.688  16.185  0.00  0.00    +0.031 A 
ATOM     28  C   UNL     1     -13.020  -5.792  14.661  0.00  0.00    +0.043 A 
ATOM     29  C   UNL     1     -13.761  -6.732  15.382  0.00  0.00    +0.022 A 
ATOM     32  H   UNL     1      -8.897  -6.503  15.441  0.00  0.00    +0.167 HD
ENDBRANCH  16  20
ENDBRANCH  11  16
TORSDOF 9
ENDMDL
MODEL 9
REMARK VINA RESULT:      -6.0     12.830     17.605
REMARK  Name = 71693216
REMARK  12 active torsions:
REMARK  status: ('A' for Active; 'I' for Inactive)
REMARK    1  A    between atoms: O_3  and  C_30
REMARK    2  A    between atoms: N_5  and  C_15
REMARK    3  A    between atoms: C_8  and  C_12
REMARK    4  A    between atoms: C_9  and  C_15
REMARK    5  A    between atoms: C_11  and  C_16
REMARK    6  A    between atoms: C_12  and  C_17
REMARK    7  A    between atoms: C_12  and  C_18
REMARK    8  A    between atoms: C_13  and  C_19
REMARK    9  A    between atoms: C_16  and  C_20
REMARK   10  A    between atoms: C_21  and  C_24
REMARK   11  A    between atoms: C_24  and  C_27
REMARK   12  A    between atoms: C_27  and  C_30
REMARK                            x       y       z     vdW  Elec       q    Type
REMARK                         _______ _______ _______ _____ _____    ______ ____
ROOT
ATOM      8  C   UNL     1       9.139   8.168   5.162  0.00  0.00    +0.000 C 
ATOM      9  C   UNL     1       8.778   8.856   6.503  0.00  0.00    +0.032 C 
ATOM     10  C   UNL     1       8.589   6.734   5.130  0.00  0.00    +0.012 C 
ATOM     11  C   UNL     1       9.139   5.873   6.283  0.00  0.00    +0.022 C 
ATOM     13  C   UNL     1       9.064   6.597   7.612  0.00  0.00    -0.073 C 
ATOM     14  C   UNL     1       8.888   7.929   7.690  0.00  0.00    -0.022 C 
ATOM     19  C   UNL     1       9.148   5.749   8.851  0.00  0.00    +0.039 C 
ENDROOT
BRANCH   8  12
ATOM     12  C   UNL     1       8.608   8.954   3.959  0.00  0.00    -0.013 C 
ATOM     17  C   UNL     1       8.788   8.150   2.676  0.00  0.00    +0.007 C 
ATOM     18  C   UNL     1       7.142   9.318   4.167  0.00  0.00    +0.007 C 
ENDBRANCH   8  12
BRANCH   9  15
ATOM     15  C   UNL     1       9.649  10.095   6.740  0.00  0.00    +0.112 C 
BRANCH  15   5
ATOM      2  O   UNL     1      11.344  10.705   9.004  0.00  0.00    -0.276 OA
ATOM      5  N   UNL     1       9.271  10.755   7.951  0.00  0.00    -0.315 N 
ATOM     21  C   UNL     1      10.156  11.013   9.000  0.00  0.00    +0.214 C 
ATOM     31  H   UNL     1       8.320  11.105   8.027  0.00  0.00    +0.149 HD
BRANCH  21  24
ATOM     24  C   UNL     1       9.478  11.725  10.155  0.00  0.00    +0.107 C 
BRANCH  24  27
ATOM     27  C   UNL     1       8.476  12.776   9.686  0.00  0.00    +0.129 C 
BRANCH  27  30
ATOM      4  O   UNL     1       6.804  14.175  10.767  0.00  0.00    -0.251 OA
ATOM     30  C   UNL     1       7.541  13.200  10.794  0.00  0.00    +0.305 C 
BRANCH  30   3
ATOM      3  O   UNL     1       7.611  12.352  11.855  0.00  0.00    -0.481 OA
ATOM     33  H   UNL     1       8.456  11.854  11.867  0.00  0.00    +0.295 HD
ENDBRANCH  30   3
ENDBRANCH  27  30
ENDBRANCH  24  27
ENDBRANCH  21  24
ENDBRANCH  15   5
ENDBRANCH   9  15
BRANCH  11  16
ATOM     16  C   UNL     1      10.570   5.408   5.992  0.00  0.00    +0.082 C 
BRANCH  16  20
ATOM      1 CL   UNL     1      13.166   5.991  -1.148  0.00  0.00    -0.083 Cl
ATOM      6  N   UNL     1      11.804   5.988   3.895  0.00  0.00    -0.342 N 
ATOM      7  N   UNL     1      10.157   4.511   3.674  0.00  0.00    -0.232 NA
ATOM     20  C   UNL     1      10.815   5.277   4.516  0.00  0.00    +0.109 A 
ATOM     22  C   UNL     1      11.783   5.659   2.564  0.00  0.00    +0.068 A 
ATOM     23  C   UNL     1      10.747   4.736   2.452  0.00  0.00    +0.089 A 
ATOM     25  C   UNL     1      12.558   6.076   1.480  0.00  0.00    +0.047 A 
ATOM     26  C   UNL     1      10.452   4.188   1.192  0.00  0.00    +0.031 A 
ATOM     28  C   UNL     1      12.250   5.520   0.235  0.00  0.00    +0.043 A 
ATOM     29  C   UNL     1      11.216   4.592   0.091  0.00  0.00    +0.022 A 
ATOM     32  H   UNL     1      12.439   6.639   4.336  0.00  0.00    +0.167 HD
ENDBRANCH  16  20
ENDBRANCH  11  16
TORSDOF 9
ENDMDL
MODEL 10
REMARK VINA RESULT:      -6.0     12.253     15.860
REMARK  Name = 71693216
REMARK  12 active torsions:
REMARK  status: ('A' for Active; 'I' for Inactive)
REMARK    1  A    between atoms: O_3  and  C_30
REMARK    2  A    between atoms: N_5  and  C_15
REMARK    3  A    between atoms: C_8  and  C_12
REMARK    4  A    between atoms: C_9  and  C_15
REMARK    5  A    between atoms: C_11  and  C_16
REMARK    6  A    between atoms: C_12  and  C_17
REMARK    7  A    between atoms: C_12  and  C_18
REMARK    8  A    between atoms: C_13  and  C_19
REMARK    9  A    between atoms: C_16  and  C_20
REMARK   10  A    between atoms: C_21  and  C_24
REMARK   11  A    between atoms: C_24  and  C_27
REMARK   12  A    between atoms: C_27  and  C_30
REMARK                            x       y       z     vdW  Elec       q    Type
REMARK                         _______ _______ _______ _____ _____    ______ ____
ROOT
ATOM      8  C   UNL     1      10.115   7.167   5.014  0.00  0.00    +0.000 C 
ATOM      9  C   UNL     1       9.348   6.844   3.707  0.00  0.00    +0.032 C 
ATOM     10  C   UNL     1       9.156   7.735   6.072  0.00  0.00    +0.012 C 
ATOM     11  C   UNL     1       8.450   9.017   5.591  0.00  0.00    +0.022 C 
ATOM     13  C   UNL     1       7.895   8.861   4.189  0.00  0.00    -0.073 C 
ATOM     14  C   UNL     1       8.299   7.876   3.366  0.00  0.00    -0.022 C 
ATOM     19  C   UNL     1       6.831   9.837   3.770  0.00  0.00    +0.039 C 
ENDROOT
BRANCH   8  12
ATOM     12  C   UNL     1      10.833   5.934   5.572  0.00  0.00    -0.013 C 
ATOM     17  C   UNL     1      11.611   6.297   6.832  0.00  0.00    +0.007 C 
ATOM     18  C   UNL     1       9.832   4.820   5.856  0.00  0.00    +0.007 C 
ENDBRANCH   8  12
BRANCH   9  15
ATOM     15  C   UNL     1      10.311   6.686   2.525  0.00  0.00    +0.112 C 
BRANCH  15   5
ATOM      2  O   UNL     1      10.042   4.244   0.996  0.00  0.00    -0.276 OA
ATOM      5  N   UNL     1      11.086   5.492   2.658  0.00  0.00    -0.315 N 
ATOM     21  C   UNL     1      10.891   4.352   1.876  0.00  0.00    +0.214 C 
ATOM     31  H   UNL     1      11.856   5.494   3.321  0.00  0.00    +0.149 HD
BRANCH  21  24
ATOM     24  C   UNL     1      11.857   3.239   2.238  0.00  0.00    +0.107 C 
BRANCH  24  27
ATOM     27  C   UNL     1      13.050   3.171   1.289  0.00  0.00    +0.129 C 
BRANCH  27  30
ATOM      4  O   UNL     1      14.260   5.198   1.880  0.00  0.00    -0.251 OA
ATOM     30  C   UNL     1      14.222   3.979   1.795  0.00  0.00    +0.305 C 
BRANCH  30   3
ATOM      3  O   UNL     1      15.258   3.176   2.157  0.00  0.00    -0.481 OA
ATOM     33  H   UNL     1      15.405   2.456   1.508  0.00  0.00    +0.295 HD
ENDBRANCH  30   3
ENDBRANCH  27  30
ENDBRANCH  24  27
ENDBRANCH  21  24
ENDBRANCH  15   5
ENDBRANCH   9  15
BRANCH  11  16
ATOM     16  C   UNL     1       9.383  10.229   5.680  0.00  0.00    +0.082 C 
BRANCH  16  20
ATOM      1 CL   UNL     1       8.853  12.616  12.896  0.00  0.00    -0.083 Cl
ATOM      6  N   UNL     1       9.424  10.468   8.170  0.00  0.00    -0.342 N 
ATOM      7  N   UNL     1       8.686  12.232   7.038  0.00  0.00    -0.232 NA
ATOM     20  C   UNL     1       9.151  11.007   6.943  0.00  0.00    +0.109 A 
ATOM     22  C   UNL     1       9.115  11.408   9.119  0.00  0.00    +0.068 A 
ATOM     23  C   UNL     1       8.656  12.500   8.387  0.00  0.00    +0.089 A 
ATOM     25  C   UNL     1       9.194  11.397  10.512  0.00  0.00    +0.047 A 
ATOM     26  C   UNL     1       8.247  13.658   9.070  0.00  0.00    +0.031 A 
ATOM     28  C   UNL     1       8.783  12.558  11.175  0.00  0.00    +0.043 A 
ATOM     29  C   UNL     1       8.318  13.671  10.468  0.00  0.00    +0.022 A 
ATOM     32  H   UNL     1       9.790   9.542   8.347  0.00  0.00    +0.167 HD
ENDBRANCH  16  20
ENDBRANCH  11  16
TORSDOF 9
ENDMDL
