REMARK  Name = 40777401
REMARK  7 active torsions:
REMARK  status: ('A' for Active; 'I' for Inactive)
REMARK    1  A    between atoms: N_5  and  C_18
REMARK    2  A    between atoms: C_7  and  C_13
REMARK    3  A    between atoms: C_8  and  C_12
REMARK    4  A    between atoms: C_12  and  C_14
REMARK    5  A    between atoms: C_13  and  C_15
REMARK    6  A    between atoms: C_17  and  C_19
REMARK    7  A    between atoms: C_18  and  C_20
REMARK                            x       y       z     vdW  Elec       q    Type
REMARK                         _______ _______ _______ _____ _____    ______ ____
ROOT
ATOM      4  N   UNL     1       5.515   0.584  -0.921  0.00  0.00    -0.316 NA
ATOM      7  C   UNL     1       2.707  -0.034  -0.260  0.00  0.00    +0.004 C 
ATOM      8  C   UNL     1       3.262   1.410  -0.286  0.00  0.00    +0.012 C 
ATOM      9  C   UNL     1       3.572  -0.921  -1.171  0.00  0.00    +0.019 C 
ATOM     10  C   UNL     1       4.772   1.444   0.001  0.00  0.00    +0.085 C 
ATOM     11  C   UNL     1       5.062  -0.804  -0.854  0.00  0.00    +0.081 C 
ATOM     29  H   UNL     1       6.509   0.626  -0.695  0.00  0.00    +0.122 HD
ENDROOT
BRANCH   8  12
ATOM     12  C   UNL     1       2.515   2.356   0.656  0.00  0.00    +0.064 C 
BRANCH  12  14
ATOM      3  O   UNL     1      -0.774   3.089  -0.611  0.00  0.00    -0.354 OA
ATOM      6  N   UNL     1       0.596   3.313  -0.544  0.00  0.00    -0.083 NA
ATOM     14  C   UNL     1       1.051   2.410   0.330  0.00  0.00    +0.085 A 
ATOM     16  C   UNL     1       0.024   1.597   0.841  0.00  0.00    +0.076 A 
ATOM     17  C   UNL     1      -1.102   2.065   0.218  0.00  0.00    +0.167 A 
BRANCH  17  19
ATOM     19  C   UNL     1      -2.493   1.718   0.256  0.00  0.00    +0.020 A 
ATOM     21  C   UNL     1      -2.930   0.679   1.077  0.00  0.00    +0.011 A 
ATOM     22  C   UNL     1      -3.409   2.418  -0.529  0.00  0.00    +0.011 A 
ATOM     24  C   UNL     1      -4.283   0.340   1.114  0.00  0.00    +0.001 A 
ATOM     25  C   UNL     1      -4.761   2.080  -0.493  0.00  0.00    +0.001 A 
ATOM     28  C   UNL     1      -5.199   1.041   0.328  0.00  0.00    +0.000 A 
ENDBRANCH  17  19
ENDBRANCH  12  14
ENDBRANCH   8  12
BRANCH   7  13
ATOM     13  C   UNL     1       2.602  -0.636   1.147  0.00  0.00    +0.099 C 
BRANCH  13  15
ATOM      2  O   UNL     1       2.648  -3.024   1.533  0.00  0.00    -0.276 OA
ATOM      5  N   UNL     1       0.754  -2.057   0.597  0.00  0.00    -0.311 N 
ATOM     15  C   UNL     1       2.035  -2.040   1.128  0.00  0.00    +0.214 C 
ATOM     30  H   UNL     1       0.312  -1.180   0.339  0.00  0.00    +0.149 HD
BRANCH   5  18
ATOM     18  C   UNL     1      -0.026  -3.265   0.456  0.00  0.00    +0.146 C 
BRANCH  18  20
ATOM      1  S   UNL     1      -1.409  -2.324  -1.762  0.00  0.00    -0.100 S 
ATOM     20  C   UNL     1      -1.355  -3.003  -0.191  0.00  0.00    +0.007 A 
ATOM     23  C   UNL     1      -2.616  -3.237   0.314  0.00  0.00    +0.013 A 
ATOM     26  C   UNL     1      -3.638  -2.855  -0.602  0.00  0.00    +0.008 A 
ATOM     27  C   UNL     1      -3.121  -2.343  -1.771  0.00  0.00    +0.045 A 
ENDBRANCH  18  20
ENDBRANCH   5  18
ENDBRANCH  13  15
ENDBRANCH   7  13
TORSDOF 7
