REMARK  Name = 7049301
REMARK  11 active torsions:
REMARK  status: ('A' for Active; 'I' for Inactive)
REMARK    1  A    between atoms: O_1  and  C_17
REMARK    2  A    between atoms: O_2  and  C_18
REMARK    3  A    between atoms: N_6  and  C_10
REMARK    4  A    between atoms: N_7  and  C_16
REMARK    5  A    between atoms: N_8  and  C_24
REMARK    6  A    between atoms: C_20  and  C_23
REMARK    7  A    between atoms: C_24  and  C_25
REMARK    8  A    between atoms: C_24  and  C_27
REMARK    9  A    between atoms: C_25  and  C_26
REMARK   10  A    between atoms: C_26  and  C_28
REMARK   11  A    between atoms: C_26  and  C_29
REMARK                            x       y       z     vdW  Elec       q    Type
REMARK                         _______ _______ _______ _____ _____    ______ ____
ROOT
ATOM     16  C   UNL     1      -0.965  -1.429   0.120  0.00  0.00    +0.129 C 
ATOM     17  C   UNL     1      -0.610  -2.213  -1.158  0.00  0.00    +0.167 C 
ATOM     18  C   UNL     1       0.754  -2.904  -1.034  0.00  0.00    +0.149 C 
ATOM     19  C   UNL     1       1.877  -1.910  -0.689  0.00  0.00    +0.074 C 
ATOM     20  C   UNL     1       1.455  -0.850   0.288  0.00  0.00    +0.015 C 
ATOM     21  C   UNL     1       0.187  -0.629   0.666  0.00  0.00    +0.006 C 
ENDROOT
BRANCH  16   7
ATOM      3  O   UNL     1      -3.760  -2.062   0.455  0.00  0.00    -0.253 OA
ATOM      6  N   UNL     1      -4.291   0.106  -0.176  0.00  0.00    -0.297 N 
ATOM      7  N   UNL     1      -2.087  -0.548  -0.090  0.00  0.00    -0.291 N 
ATOM     22  C   UNL     1      -3.411  -0.939   0.096  0.00  0.00    +0.300 C 
ATOM     30  H   UNL     1      -3.898   1.017  -0.394  0.00  0.00    +0.151 HD
ATOM     31  H   UNL     1      -1.911   0.391  -0.436  0.00  0.00    +0.151 HD
BRANCH   6  10
ATOM     10  C   UNL     1      -5.726  -0.028  -0.063  0.00  0.00    +0.074 C 
ATOM     11  C   UNL     1      -6.197   0.283   1.362  0.00  0.00    +0.022 C 
ATOM     12  C   UNL     1      -6.445   0.852  -1.090  0.00  0.00    +0.022 C 
ATOM     13  C   UNL     1      -6.105   1.772   1.696  0.00  0.00    +0.002 C 
ATOM     14  C   UNL     1      -6.353   2.340  -0.752  0.00  0.00    +0.002 C 
ATOM     15  C   UNL     1      -6.837   2.627   0.666  0.00  0.00    +0.000 C 
ENDBRANCH   6  10
ENDBRANCH  16   7
BRANCH  20  23
ATOM      4  O   UNL     1       2.359   0.442   2.020  0.00  0.00    -0.271 OA
ATOM      8  N   UNL     1       3.579   0.184   0.049  0.00  0.00    -0.300 N 
ATOM     23  C   UNL     1       2.496  -0.011   0.888  0.00  0.00    +0.241 C 
ATOM     33  H   UNL     1       3.662  -0.344  -0.811  0.00  0.00    +0.150 HD
BRANCH   8  24
ATOM     24  C   UNL     1       4.723   0.976   0.417  0.00  0.00    +0.159 C 
BRANCH  24  27
ATOM      5  O   UNL     1       5.830  -1.135   0.898  0.00  0.00    -0.274 OA
ATOM      9  N   UNL     1       6.401   0.712   2.139  0.00  0.00    -0.328 N 
ATOM     27  C   UNL     1       5.680   0.056   1.163  0.00  0.00    +0.231 C 
ATOM     35  H   UNL     1       6.283   1.701   2.332  0.00  0.00    +0.145 HD
ATOM     36  H   UNL     1       7.084   0.217   2.703  0.00  0.00    +0.145 HD
ENDBRANCH  24  27
BRANCH  24  25
ATOM     25  C   UNL     1       5.421   1.592  -0.802  0.00  0.00    +0.034 C 
BRANCH  25  26
ATOM     26  C   UNL     1       4.523   2.490  -1.677  0.00  0.00    -0.015 C 
ATOM     28  C   UNL     1       4.098   3.727  -0.881  0.00  0.00    +0.007 C 
ATOM     29  C   UNL     1       3.282   1.754  -2.185  0.00  0.00    +0.007 C 
ENDBRANCH  25  26
ENDBRANCH  24  25
ENDBRANCH   8  24
ENDBRANCH  20  23
BRANCH  17   1
ATOM      1  O   UNL     1      -0.573  -1.320  -2.273  0.00  0.00    -0.387 OA
ATOM     32  H   UNL     1      -1.445  -0.895  -2.335  0.00  0.00    +0.210 HD
ENDBRANCH  17   1
BRANCH  18   2
ATOM      2  O   UNL     1       0.694  -3.935  -0.051  0.00  0.00    -0.389 OA
ATOM     34  H   UNL     1      -0.011  -4.551  -0.315  0.00  0.00    +0.210 HD
ENDBRANCH  18   2
TORSDOF 9
