MODEL 1
REMARK VINA RESULT:      -7.1      0.000      0.000
REMARK  Name = 25390023
REMARK  8 active torsions:
REMARK  status: ('A' for Active; 'I' for Inactive)
REMARK    1  A    between atoms: N_3  and  C_17
REMARK    2  A    between atoms: N_4  and  C_10
REMARK    3  A    between atoms: N_6  and  C_21
REMARK    4  A    between atoms: C_8  and  C_11
REMARK    5  A    between atoms: C_14  and  C_16
REMARK    6  A    between atoms: C_15  and  C_18
REMARK    7  A    between atoms: C_17  and  C_20
REMARK    8  A    between atoms: C_20  and  C_22
REMARK                            x       y       z     vdW  Elec       q    Type
REMARK                         _______ _______ _______ _____ _____    ______ ____
ROOT
ATOM      8  C   UNL     1     -16.137   3.746  26.435  0.00  0.00    +0.047 C 
ATOM      9  C   UNL     1     -15.731   3.310  25.012  0.00  0.00    +0.039 C 
ATOM     10  C   UNL     1     -16.509   4.221  24.056  0.00  0.00    +0.098 C 
ATOM     12  C   UNL     1     -17.449   4.435  26.199  0.00  0.00    -0.021 C 
ATOM     13  C   UNL     1     -17.646   4.695  24.901  0.00  0.00    -0.009 C 
ENDROOT
BRANCH   8  11
ATOM      3  N   UNL     1     -15.973   1.321  29.175  0.00  0.00    -0.267 N 
ATOM      5  N   UNL     1     -16.664   0.553  28.316  0.00  0.00    -0.176 NA
ATOM     11  C   UNL     1     -16.193   2.600  27.419  0.00  0.00    +0.003 A 
ATOM     14  C   UNL     1     -15.666   2.557  28.687  0.00  0.00    +0.040 A 
ATOM     15  C   UNL     1     -16.795   1.340  27.245  0.00  0.00    +0.064 A 
ATOM     16  C   UNL     1     -14.914   3.561  29.463  0.00  0.00    +0.065 C 
ATOM     18  C   UNL     1     -17.513   0.838  26.061  0.00  0.00    +0.068 C 
BRANCH   3  17
ATOM     17  C   UNL     1     -15.634   0.794  30.478  0.00  0.00    +0.158 C 
BRANCH  17  20
ATOM     20  C   UNL     1     -14.140   0.499  30.643  0.00  0.00    +0.141 C 
BRANCH  20  22
ATOM      7  N   UNL     1     -13.308  -1.376  28.996  0.00  0.00    -0.197 NA
ATOM     22  C   UNL     1     -13.675  -0.548  29.723  0.00  0.00    +0.064 C 
ENDBRANCH  20  22
ENDBRANCH  17  20
ENDBRANCH   3  17
ENDBRANCH   8  11
BRANCH  10   4
ATOM      2  O   UNL     1     -15.026   4.449  21.616  0.00  0.00    -0.252 OA
ATOM      4  N   UNL     1     -15.742   5.356  23.619  0.00  0.00    -0.293 N 
ATOM      6  N   UNL     1     -14.388   6.616  22.250  0.00  0.00    -0.269 N 
ATOM     19  C   UNL     1     -15.040   5.390  22.405  0.00  0.00    +0.304 C 
ATOM     28  H   UNL     1     -15.660   6.159  24.237  0.00  0.00    +0.151 HD
ATOM     29  H   UNL     1     -14.502   7.292  23.001  0.00  0.00    +0.156 HD
BRANCH   6  21
ATOM      1 CL   UNL     1     -11.008   8.391  17.717  0.00  0.00    -0.084 Cl
ATOM     21  C   UNL     1     -13.581   7.040  21.168  0.00  0.00    +0.035 A 
ATOM     23  C   UNL     1     -14.155   7.720  20.094  0.00  0.00    +0.025 A 
ATOM     24  C   UNL     1     -12.211   6.776  21.174  0.00  0.00    +0.025 A 
ATOM     25  C   UNL     1     -13.359   8.138  19.027  0.00  0.00    +0.022 A 
ATOM     26  C   UNL     1     -11.415   7.194  20.108  0.00  0.00    +0.022 A 
ATOM     27  C   UNL     1     -11.989   7.875  19.034  0.00  0.00    +0.041 A 
ENDBRANCH   6  21
ENDBRANCH  10   4
TORSDOF 6
ENDMDL
MODEL 2
REMARK VINA RESULT:      -6.5      1.070      2.008
REMARK  Name = 25390023
REMARK  8 active torsions:
REMARK  status: ('A' for Active; 'I' for Inactive)
REMARK    1  A    between atoms: N_3  and  C_17
REMARK    2  A    between atoms: N_4  and  C_10
REMARK    3  A    between atoms: N_6  and  C_21
REMARK    4  A    between atoms: C_8  and  C_11
REMARK    5  A    between atoms: C_14  and  C_16
REMARK    6  A    between atoms: C_15  and  C_18
REMARK    7  A    between atoms: C_17  and  C_20
REMARK    8  A    between atoms: C_20  and  C_22
REMARK                            x       y       z     vdW  Elec       q    Type
REMARK                         _______ _______ _______ _____ _____    ______ ____
ROOT
ATOM      8  C   UNL     1     -16.744   4.342  25.792  0.00  0.00    +0.047 C 
ATOM      9  C   UNL     1     -15.728   3.814  24.759  0.00  0.00    +0.039 C 
ATOM     10  C   UNL     1     -16.412   3.947  23.393  0.00  0.00    +0.098 C 
ATOM     12  C   UNL     1     -18.047   4.212  25.059  0.00  0.00    -0.021 C 
ATOM     13  C   UNL     1     -17.861   4.000  23.751  0.00  0.00    -0.009 C 
ENDROOT
BRANCH   8  11
ATOM      3  N   UNL     1     -16.579   2.083  28.671  0.00  0.00    -0.267 N 
ATOM      5  N   UNL     1     -16.639   3.232  29.366  0.00  0.00    -0.176 NA
ATOM     11  C   UNL     1     -16.687   3.611  27.114  0.00  0.00    +0.003 A 
ATOM     14  C   UNL     1     -16.603   2.255  27.318  0.00  0.00    +0.040 A 
ATOM     15  C   UNL     1     -16.705   4.161  28.409  0.00  0.00    +0.064 A 
ATOM     16  C   UNL     1     -16.545   1.128  26.368  0.00  0.00    +0.065 C 
ATOM     18  C   UNL     1     -16.787   5.584  28.784  0.00  0.00    +0.068 C 
BRANCH   3  17
ATOM     17  C   UNL     1     -16.497   0.830  29.386  0.00  0.00    +0.158 C 
BRANCH  17  20
ATOM     20  C   UNL     1     -15.224   0.693  30.228  0.00  0.00    +0.141 C 
BRANCH  20  22
ATOM      7  N   UNL     1     -13.537  -1.047  29.203  0.00  0.00    -0.197 NA
ATOM     22  C   UNL     1     -14.281  -0.279  29.656  0.00  0.00    +0.064 C 
ENDBRANCH  20  22
ENDBRANCH  17  20
ENDBRANCH   3  17
ENDBRANCH   8  11
BRANCH  10   4
ATOM      2  O   UNL     1     -14.050   4.393  21.835  0.00  0.00    -0.252 OA
ATOM      4  N   UNL     1     -16.052   5.157  22.704  0.00  0.00    -0.293 N 
ATOM      6  N   UNL     1     -14.790   6.579  21.407  0.00  0.00    -0.269 N 
ATOM     19  C   UNL     1     -14.872   5.298  21.959  0.00  0.00    +0.304 C 
ATOM     28  H   UNL     1     -16.654   5.970  22.797  0.00  0.00    +0.151 HD
ATOM     29  H   UNL     1     -15.560   7.212  21.608  0.00  0.00    +0.156 HD
BRANCH   6  21
ATOM      1 CL   UNL     1     -10.480   8.810  18.008  0.00  0.00    -0.084 Cl
ATOM     21  C   UNL     1     -13.761   7.111  20.596  0.00  0.00    +0.035 A 
ATOM     23  C   UNL     1     -12.432   7.031  21.012  0.00  0.00    +0.025 A 
ATOM     24  C   UNL     1     -14.076   7.717  19.379  0.00  0.00    +0.025 A 
ATOM     25  C   UNL     1     -11.417   7.556  20.212  0.00  0.00    +0.022 A 
ATOM     26  C   UNL     1     -13.061   8.242  18.578  0.00  0.00    +0.022 A 
ATOM     27  C   UNL     1     -11.732   8.162  18.994  0.00  0.00    +0.041 A 
ENDBRANCH   6  21
ENDBRANCH  10   4
TORSDOF 6
ENDMDL
MODEL 3
REMARK VINA RESULT:      -6.3     20.957     23.810
REMARK  Name = 25390023
REMARK  8 active torsions:
REMARK  status: ('A' for Active; 'I' for Inactive)
REMARK    1  A    between atoms: N_3  and  C_17
REMARK    2  A    between atoms: N_4  and  C_10
REMARK    3  A    between atoms: N_6  and  C_21
REMARK    4  A    between atoms: C_8  and  C_11
REMARK    5  A    between atoms: C_14  and  C_16
REMARK    6  A    between atoms: C_15  and  C_18
REMARK    7  A    between atoms: C_17  and  C_20
REMARK    8  A    between atoms: C_20  and  C_22
REMARK                            x       y       z     vdW  Elec       q    Type
REMARK                         _______ _______ _______ _____ _____    ______ ____
ROOT
ATOM      8  C   UNL     1      -5.573  -9.084   9.446  0.00  0.00    +0.047 C 
ATOM      9  C   UNL     1      -5.764 -10.348  10.309  0.00  0.00    +0.039 C 
ATOM     10  C   UNL     1      -4.421 -10.585  11.009  0.00  0.00    +0.098 C 
ATOM     12  C   UNL     1      -4.081  -9.028   9.283  0.00  0.00    -0.021 C 
ATOM     13  C   UNL     1      -3.458  -9.845  10.140  0.00  0.00    -0.009 C 
ENDROOT
BRANCH   8  11
ATOM      3  N   UNL     1      -7.062  -9.580   6.136  0.00  0.00    -0.267 N 
ATOM      5  N   UNL     1      -7.933  -8.654   6.572  0.00  0.00    -0.176 NA
ATOM     11  C   UNL     1      -6.349  -9.123   8.149  0.00  0.00    +0.003 A 
ATOM     14  C   UNL     1      -6.093  -9.897   7.043  0.00  0.00    +0.040 A 
ATOM     15  C   UNL     1      -7.491  -8.379   7.802  0.00  0.00    +0.064 A 
ATOM     16  C   UNL     1      -5.037 -10.890   6.771  0.00  0.00    +0.065 C 
ATOM     18  C   UNL     1      -8.203  -7.383   8.621  0.00  0.00    +0.068 C 
BRANCH   3  17
ATOM     17  C   UNL     1      -7.223 -10.131   4.809  0.00  0.00    +0.158 C 
BRANCH  17  20
ATOM     20  C   UNL     1      -8.428  -9.561   4.057  0.00  0.00    +0.141 C 
BRANCH  20  22
ATOM      7  N   UNL     1      -7.719  -8.248   1.890  0.00  0.00    -0.197 NA
ATOM     22  C   UNL     1      -8.032  -8.827   2.846  0.00  0.00    +0.064 C 
ENDBRANCH  20  22
ENDBRANCH  17  20
ENDBRANCH   3  17
ENDBRANCH   8  11
BRANCH  10   4
ATOM      2  O   UNL     1      -5.271 -11.866  13.427  0.00  0.00    -0.252 OA
ATOM      4  N   UNL     1      -4.380 -10.032  12.336  0.00  0.00    -0.293 N 
ATOM      6  N   UNL     1      -4.657  -9.940  14.619  0.00  0.00    -0.269 N 
ATOM     19  C   UNL     1      -4.816 -10.726  13.474  0.00  0.00    +0.304 C 
ATOM     28  H   UNL     1      -4.063  -9.074  12.457  0.00  0.00    +0.151 HD
ATOM     29  H   UNL     1      -4.264  -9.012  14.485  0.00  0.00    +0.156 HD
BRANCH   6  21
ATOM      1 CL   UNL     1      -5.997 -11.350  20.217  0.00  0.00    -0.084 Cl
ATOM     21  C   UNL     1      -4.977 -10.277  15.955  0.00  0.00    +0.035 A 
ATOM     23  C   UNL     1      -6.212  -9.911  16.491  0.00  0.00    +0.025 A 
ATOM     24  C   UNL     1      -4.056 -10.973  16.738  0.00  0.00    +0.025 A 
ATOM     25  C   UNL     1      -6.528 -10.243  17.808  0.00  0.00    +0.022 A 
ATOM     26  C   UNL     1      -4.371 -11.305  18.056  0.00  0.00    +0.022 A 
ATOM     27  C   UNL     1      -5.607 -10.941  18.591  0.00  0.00    +0.041 A 
ENDBRANCH   6  21
ENDBRANCH  10   4
TORSDOF 6
ENDMDL
MODEL 4
REMARK VINA RESULT:      -6.3     21.015     23.846
REMARK  Name = 25390023
REMARK  8 active torsions:
REMARK  status: ('A' for Active; 'I' for Inactive)
REMARK    1  A    between atoms: N_3  and  C_17
REMARK    2  A    between atoms: N_4  and  C_10
REMARK    3  A    between atoms: N_6  and  C_21
REMARK    4  A    between atoms: C_8  and  C_11
REMARK    5  A    between atoms: C_14  and  C_16
REMARK    6  A    between atoms: C_15  and  C_18
REMARK    7  A    between atoms: C_17  and  C_20
REMARK    8  A    between atoms: C_20  and  C_22
REMARK                            x       y       z     vdW  Elec       q    Type
REMARK                         _______ _______ _______ _____ _____    ______ ____
ROOT
ATOM      8  C   UNL     1      -5.199  -9.418   9.682  0.00  0.00    +0.047 C 
ATOM      9  C   UNL     1      -5.236 -10.685  10.561  0.00  0.00    +0.039 C 
ATOM     10  C   UNL     1      -3.894 -10.722  11.302  0.00  0.00    +0.098 C 
ATOM     12  C   UNL     1      -3.726  -9.155   9.559  0.00  0.00    -0.021 C 
ATOM     13  C   UNL     1      -3.020  -9.865  10.447  0.00  0.00    -0.009 C 
ENDROOT
BRANCH   8  11
ATOM      3  N   UNL     1      -7.293  -9.378   6.677  0.00  0.00    -0.267 N 
ATOM      5  N   UNL     1      -6.481 -10.379   6.299  0.00  0.00    -0.176 NA
ATOM     11  C   UNL     1      -5.923  -9.583   8.365  0.00  0.00    +0.003 A 
ATOM     14  C   UNL     1      -7.001  -8.865   7.907  0.00  0.00    +0.040 A 
ATOM     15  C   UNL     1      -5.646 -10.499   7.334  0.00  0.00    +0.064 A 
ATOM     16  C   UNL     1      -7.766  -7.760   8.515  0.00  0.00    +0.065 C 
ATOM     18  C   UNL     1      -4.584 -11.520   7.294  0.00  0.00    +0.068 C 
BRANCH   3  17
ATOM     17  C   UNL     1      -8.352  -8.954   5.789  0.00  0.00    +0.158 C 
BRANCH  17  20
ATOM     20  C   UNL     1      -7.853  -8.139   4.593  0.00  0.00    +0.141 C 
BRANCH  20  22
ATOM      7  N   UNL     1      -7.889  -9.526   2.358  0.00  0.00    -0.197 NA
ATOM     22  C   UNL     1      -7.873  -8.914   3.345  0.00  0.00    +0.064 C 
ENDBRANCH  20  22
ENDBRANCH  17  20
ENDBRANCH   3  17
ENDBRANCH   8  11
BRANCH  10   4
ATOM      2  O   UNL     1      -4.805 -12.027  13.684  0.00  0.00    -0.252 OA
ATOM      4  N   UNL     1      -3.970 -10.152  12.620  0.00  0.00    -0.293 N 
ATOM      6  N   UNL     1      -4.392 -10.051  14.880  0.00  0.00    -0.269 N 
ATOM     19  C   UNL     1      -4.430 -10.859  13.740  0.00  0.00    +0.304 C 
ATOM     28  H   UNL     1      -3.725  -9.173  12.745  0.00  0.00    +0.151 HD
ATOM     29  H   UNL     1      -4.053  -9.101  14.755  0.00  0.00    +0.156 HD
BRANCH   6  21
ATOM      1 CL   UNL     1      -5.979 -11.481  20.408  0.00  0.00    -0.084 Cl
ATOM     21  C   UNL     1      -4.771 -10.392  16.200  0.00  0.00    +0.035 A 
ATOM     23  C   UNL     1      -3.900 -11.121  17.010  0.00  0.00    +0.025 A 
ATOM     24  C   UNL     1      -6.017 -10.001  16.691  0.00  0.00    +0.025 A 
ATOM     25  C   UNL     1      -4.273 -11.457  18.311  0.00  0.00    +0.022 A 
ATOM     26  C   UNL     1      -6.391 -10.337  17.992  0.00  0.00    +0.022 A 
ATOM     27  C   UNL     1      -5.519 -11.065  18.802  0.00  0.00    +0.041 A 
ENDBRANCH   6  21
ENDBRANCH  10   4
TORSDOF 6
ENDMDL
MODEL 5
REMARK VINA RESULT:      -6.2     18.456     20.994
REMARK  Name = 25390023
REMARK  8 active torsions:
REMARK  status: ('A' for Active; 'I' for Inactive)
REMARK    1  A    between atoms: N_3  and  C_17
REMARK    2  A    between atoms: N_4  and  C_10
REMARK    3  A    between atoms: N_6  and  C_21
REMARK    4  A    between atoms: C_8  and  C_11
REMARK    5  A    between atoms: C_14  and  C_16
REMARK    6  A    between atoms: C_15  and  C_18
REMARK    7  A    between atoms: C_17  and  C_20
REMARK    8  A    between atoms: C_20  and  C_22
REMARK                            x       y       z     vdW  Elec       q    Type
REMARK                         _______ _______ _______ _____ _____    ______ ____
ROOT
ATOM      8  C   UNL     1      -4.568 -10.431  16.033  0.00  0.00    +0.047 C 
ATOM      9  C   UNL     1      -5.832 -11.314  16.005  0.00  0.00    +0.039 C 
ATOM     10  C   UNL     1      -6.083 -11.733  17.459  0.00  0.00    +0.098 C 
ATOM     12  C   UNL     1      -3.911 -10.849  17.317  0.00  0.00    -0.021 C 
ATOM     13  C   UNL     1      -4.742 -11.554  18.092  0.00  0.00    -0.009 C 
ENDROOT
BRANCH   8  11
ATOM      3  N   UNL     1      -2.977 -10.788  12.753  0.00  0.00    -0.267 N 
ATOM      5  N   UNL     1      -1.852 -10.820  13.487  0.00  0.00    -0.176 NA
ATOM     11  C   UNL     1      -3.703 -10.586  14.802  0.00  0.00    +0.003 A 
ATOM     14  C   UNL     1      -4.114 -10.648  13.493  0.00  0.00    +0.040 A 
ATOM     15  C   UNL     1      -2.302 -10.696  14.738  0.00  0.00    +0.064 A 
ATOM     16  C   UNL     1      -5.459 -10.589  12.890  0.00  0.00    +0.065 C 
ATOM     18  C   UNL     1      -1.343 -10.689  15.856  0.00  0.00    +0.068 C 
BRANCH   3  17
ATOM     17  C   UNL     1      -2.885 -10.898  11.314  0.00  0.00    +0.158 C 
BRANCH  17  20
ATOM     20  C   UNL     1      -2.608  -9.562  10.619  0.00  0.00    +0.141 C 
BRANCH  20  22
ATOM      7  N   UNL     1      -4.517  -8.901   8.935  0.00  0.00    -0.197 NA
ATOM     22  C   UNL     1      -3.675  -9.193   9.678  0.00  0.00    +0.064 C 
ENDBRANCH  20  22
ENDBRANCH  17  20
ENDBRANCH   3  17
ENDBRANCH   8  11
BRANCH  10   4
ATOM      2  O   UNL     1      -8.935 -12.005  17.425  0.00  0.00    -0.252 OA
ATOM      4  N   UNL     1      -7.036 -10.887  18.125  0.00  0.00    -0.293 N 
ATOM      6  N   UNL     1      -9.095 -10.112  18.802  0.00  0.00    -0.269 N 
ATOM     19  C   UNL     1      -8.423 -11.087  18.060  0.00  0.00    +0.304 C 
ATOM     28  H   UNL     1      -6.697 -10.073  18.632  0.00  0.00    +0.151 HD
ATOM     29  H   UNL     1      -8.518  -9.417  19.271  0.00  0.00    +0.156 HD
BRANCH   6  21
ATOM      1 CL   UNL     1     -14.939  -9.507  19.572  0.00  0.00    -0.084 Cl
ATOM     21  C   UNL     1     -10.490  -9.968  18.985  0.00  0.00    +0.035 A 
ATOM     23  C   UNL     1     -11.296  -9.562  17.922  0.00  0.00    +0.025 A 
ATOM     24  C   UNL     1     -11.060 -10.230  20.232  0.00  0.00    +0.025 A 
ATOM     25  C   UNL     1     -12.671  -9.420  18.103  0.00  0.00    +0.022 A 
ATOM     26  C   UNL     1     -12.435 -10.088  20.413  0.00  0.00    +0.022 A 
ATOM     27  C   UNL     1     -13.242  -9.683  19.349  0.00  0.00    +0.041 A 
ENDBRANCH   6  21
ENDBRANCH  10   4
TORSDOF 6
ENDMDL
MODEL 6
REMARK VINA RESULT:      -6.1      4.299     11.218
REMARK  Name = 25390023
REMARK  8 active torsions:
REMARK  status: ('A' for Active; 'I' for Inactive)
REMARK    1  A    between atoms: N_3  and  C_17
REMARK    2  A    between atoms: N_4  and  C_10
REMARK    3  A    between atoms: N_6  and  C_21
REMARK    4  A    between atoms: C_8  and  C_11
REMARK    5  A    between atoms: C_14  and  C_16
REMARK    6  A    between atoms: C_15  and  C_18
REMARK    7  A    between atoms: C_17  and  C_20
REMARK    8  A    between atoms: C_20  and  C_22
REMARK                            x       y       z     vdW  Elec       q    Type
REMARK                         _______ _______ _______ _____ _____    ______ ____
ROOT
ATOM      8  C   UNL     1     -12.664   8.185  21.340  0.00  0.00    +0.047 C 
ATOM      9  C   UNL     1     -14.119   7.693  21.200  0.00  0.00    +0.039 C 
ATOM     10  C   UNL     1     -14.083   6.189  21.497  0.00  0.00    +0.098 C 
ATOM     12  C   UNL     1     -11.877   6.920  21.157  0.00  0.00    -0.021 C 
ATOM     13  C   UNL     1     -12.654   5.835  21.246  0.00  0.00    -0.009 C 
ENDROOT
BRANCH   8  11
ATOM      3  N   UNL     1     -11.812  10.454  18.593  0.00  0.00    -0.267 N 
ATOM      5  N   UNL     1     -11.827  11.376  19.570  0.00  0.00    -0.176 NA
ATOM     11  C   UNL     1     -12.312   9.295  20.375  0.00  0.00    +0.003 A 
ATOM     14  C   UNL     1     -12.098   9.190  19.022  0.00  0.00    +0.040 A 
ATOM     15  C   UNL     1     -12.133  10.661  20.656  0.00  0.00    +0.064 A 
ATOM     16  C   UNL     1     -12.138   8.027  18.116  0.00  0.00    +0.065 C 
ATOM     18  C   UNL     1     -12.243  11.337  21.961  0.00  0.00    +0.068 C 
BRANCH   3  17
ATOM     17  C   UNL     1     -11.511  10.863  17.240  0.00  0.00    +0.158 C 
BRANCH  17  20
ATOM     20  C   UNL     1     -10.019  10.794  16.902  0.00  0.00    +0.141 C 
BRANCH  20  22
ATOM      7  N   UNL     1      -8.874  13.161  16.964  0.00  0.00    -0.197 NA
ATOM     22  C   UNL     1      -9.379  12.116  16.937  0.00  0.00    +0.064 C 
ENDBRANCH  20  22
ENDBRANCH  17  20
ENDBRANCH   3  17
ENDBRANCH   8  11
BRANCH  10   4
ATOM      2  O   UNL     1     -15.717   4.025  22.421  0.00  0.00    -0.252 OA
ATOM      4  N   UNL     1     -14.413   5.883  22.863  0.00  0.00    -0.293 N 
ATOM      6  N   UNL     1     -15.369   4.753  24.625  0.00  0.00    -0.269 N 
ATOM     19  C   UNL     1     -15.223   4.801  23.236  0.00  0.00    +0.304 C 
ATOM     28  H   UNL     1     -14.085   6.505  23.597  0.00  0.00    +0.151 HD
ATOM     29  H   UNL     1     -14.892   5.474  25.159  0.00  0.00    +0.156 HD
BRANCH   6  21
ATOM      1 CL   UNL     1     -18.454   0.836  27.828  0.00  0.00    -0.084 Cl
ATOM     21  C   UNL     1     -16.105   3.818  25.389  0.00  0.00    +0.035 A 
ATOM     23  C   UNL     1     -16.080   2.465  25.050  0.00  0.00    +0.025 A 
ATOM     24  C   UNL     1     -16.858   4.249  26.483  0.00  0.00    +0.025 A 
ATOM     25  C   UNL     1     -16.806   1.543  25.804  0.00  0.00    +0.022 A 
ATOM     26  C   UNL     1     -17.583   3.327  27.237  0.00  0.00    +0.022 A 
ATOM     27  C   UNL     1     -17.558   1.974  26.898  0.00  0.00    +0.041 A 
ENDBRANCH   6  21
ENDBRANCH  10   4
TORSDOF 6
ENDMDL
MODEL 7
REMARK VINA RESULT:      -6.0      6.617      9.090
REMARK  Name = 25390023
REMARK  8 active torsions:
REMARK  status: ('A' for Active; 'I' for Inactive)
REMARK    1  A    between atoms: N_3  and  C_17
REMARK    2  A    between atoms: N_4  and  C_10
REMARK    3  A    between atoms: N_6  and  C_21
REMARK    4  A    between atoms: C_8  and  C_11
REMARK    5  A    between atoms: C_14  and  C_16
REMARK    6  A    between atoms: C_15  and  C_18
REMARK    7  A    between atoms: C_17  and  C_20
REMARK    8  A    between atoms: C_20  and  C_22
REMARK                            x       y       z     vdW  Elec       q    Type
REMARK                         _______ _______ _______ _____ _____    ______ ____
ROOT
ATOM      8  C   UNL     1     -15.151   3.186  31.309  0.00  0.00    +0.047 C 
ATOM      9  C   UNL     1     -15.329   4.670  30.926  0.00  0.00    +0.039 C 
ATOM     10  C   UNL     1     -15.640   5.406  32.234  0.00  0.00    +0.098 C 
ATOM     12  C   UNL     1     -15.883   3.101  32.617  0.00  0.00    -0.021 C 
ATOM     13  C   UNL     1     -16.144   4.313  33.119  0.00  0.00    -0.009 C 
ENDROOT
BRANCH   8  11
ATOM      3  N   UNL     1     -16.821   1.211  28.715  0.00  0.00    -0.267 N 
ATOM      5  N   UNL     1     -15.704   0.467  28.796  0.00  0.00    -0.176 NA
ATOM     11  C   UNL     1     -15.644   2.231  30.246  0.00  0.00    +0.003 A 
ATOM     14  C   UNL     1     -16.834   2.280  29.562  0.00  0.00    +0.040 A 
ATOM     15  C   UNL     1     -14.990   1.096  29.733  0.00  0.00    +0.064 A 
ATOM     16  C   UNL     1     -17.962   3.228  29.636  0.00  0.00    +0.065 C 
ATOM     18  C   UNL     1     -13.668   0.566  30.113  0.00  0.00    +0.068 C 
BRANCH   3  17
ATOM     17  C   UNL     1     -17.857   0.830  27.782  0.00  0.00    +0.158 C 
BRANCH  17  20
ATOM     20  C   UNL     1     -17.723   1.508  26.416  0.00  0.00    +0.141 C 
BRANCH  20  22
ATOM      7  N   UNL     1     -17.251  -0.219  24.488  0.00  0.00    -0.197 NA
ATOM     22  C   UNL     1     -17.459   0.543  25.339  0.00  0.00    +0.064 C 
ENDBRANCH  20  22
ENDBRANCH  17  20
ENDBRANCH   3  17
ENDBRANCH   8  11
BRANCH  10   4
ATOM      2  O   UNL     1     -14.633   8.050  31.780  0.00  0.00    -0.252 OA
ATOM      4  N   UNL     1     -14.473   5.997  32.832  0.00  0.00    -0.293 N 
ATOM      6  N   UNL     1     -12.885   7.601  33.280  0.00  0.00    -0.269 N 
ATOM     19  C   UNL     1     -14.043   7.303  32.557  0.00  0.00    +0.304 C 
ATOM     28  H   UNL     1     -13.899   5.428  33.450  0.00  0.00    +0.151 HD
ATOM     29  H   UNL     1     -12.521   6.867  33.883  0.00  0.00    +0.156 HD
BRANCH   6  21
ATOM      1 CL   UNL     1      -9.792  12.655  33.274  0.00  0.00    -0.084 Cl
ATOM     21  C   UNL     1     -12.146   8.807  33.279  0.00  0.00    +0.035 A 
ATOM     23  C   UNL     1     -12.285   9.712  34.331  0.00  0.00    +0.025 A 
ATOM     24  C   UNL     1     -11.280   9.094  32.223  0.00  0.00    +0.025 A 
ATOM     25  C   UNL     1     -11.557  10.901  34.330  0.00  0.00    +0.022 A 
ATOM     26  C   UNL     1     -10.552  10.283  32.221  0.00  0.00    +0.022 A 
ATOM     27  C   UNL     1     -10.690  11.187  33.275  0.00  0.00    +0.041 A 
ENDBRANCH   6  21
ENDBRANCH  10   4
TORSDOF 6
ENDMDL
MODEL 8
REMARK VINA RESULT:      -5.9      4.665     10.174
REMARK  Name = 25390023
REMARK  8 active torsions:
REMARK  status: ('A' for Active; 'I' for Inactive)
REMARK    1  A    between atoms: N_3  and  C_17
REMARK    2  A    between atoms: N_4  and  C_10
REMARK    3  A    between atoms: N_6  and  C_21
REMARK    4  A    between atoms: C_8  and  C_11
REMARK    5  A    between atoms: C_14  and  C_16
REMARK    6  A    between atoms: C_15  and  C_18
REMARK    7  A    between atoms: C_17  and  C_20
REMARK    8  A    between atoms: C_20  and  C_22
REMARK                            x       y       z     vdW  Elec       q    Type
REMARK                         _______ _______ _______ _____ _____    ______ ____
ROOT
ATOM      8  C   UNL     1     -15.803   4.391  23.322  0.00  0.00    +0.047 C 
ATOM      9  C   UNL     1     -16.425   5.109  24.537  0.00  0.00    +0.039 C 
ATOM     10  C   UNL     1     -16.824   4.002  25.520  0.00  0.00    +0.098 C 
ATOM     12  C   UNL     1     -16.371   3.007  23.440  0.00  0.00    -0.021 C 
ATOM     13  C   UNL     1     -16.923   2.798  24.641  0.00  0.00    -0.009 C 
ENDROOT
BRANCH   8  11
ATOM      3  N   UNL     1     -17.035   5.837  20.190  0.00  0.00    -0.267 N 
ATOM      5  N   UNL     1     -15.789   6.336  20.123  0.00  0.00    -0.176 NA
ATOM     11  C   UNL     1     -16.090   5.082  22.008  0.00  0.00    +0.003 A 
ATOM     14  C   UNL     1     -17.267   5.080  21.300  0.00  0.00    +0.040 A 
ATOM     15  C   UNL     1     -15.216   5.870  21.237  0.00  0.00    +0.064 A 
ATOM     16  C   UNL     1     -18.567   4.439  21.574  0.00  0.00    +0.065 C 
ATOM     18  C   UNL     1     -13.812   6.209  21.525  0.00  0.00    +0.068 C 
BRANCH   3  17
ATOM     17  C   UNL     1     -17.972   6.136  19.131  0.00  0.00    +0.158 C 
BRANCH  17  20
ATOM     20  C   UNL     1     -18.001   5.073  18.028  0.00  0.00    +0.141 C 
BRANCH  20  22
ATOM      7  N   UNL     1     -17.199   6.023  15.709  0.00  0.00    -0.197 NA
ATOM     22  C   UNL     1     -17.553   5.604  16.732  0.00  0.00    +0.064 C 
ENDBRANCH  20  22
ENDBRANCH  17  20
ENDBRANCH   3  17
ENDBRANCH   8  11
BRANCH  10   4
ATOM      2  O   UNL     1     -17.277   3.077  28.193  0.00  0.00    -0.252 OA
ATOM      4  N   UNL     1     -15.827   3.768  26.530  0.00  0.00    -0.293 N 
ATOM      6  N   UNL     1     -14.965   3.179  28.580  0.00  0.00    -0.269 N 
ATOM     19  C   UNL     1     -16.130   3.313  27.821  0.00  0.00    +0.304 C 
ATOM     28  H   UNL     1     -14.857   3.986  26.319  0.00  0.00    +0.151 HD
ATOM     29  H   UNL     1     -14.090   3.417  28.120  0.00  0.00    +0.156 HD
BRANCH   6  21
ATOM      1 CL   UNL     1     -14.470   1.378  34.204  0.00  0.00    -0.084 Cl
ATOM     21  C   UNL     1     -14.847   2.750  29.923  0.00  0.00    +0.035 A 
ATOM     23  C   UNL     1     -14.857   3.684  30.959  0.00  0.00    +0.025 A 
ATOM     24  C   UNL     1     -14.719   1.390  30.211  0.00  0.00    +0.025 A 
ATOM     25  C   UNL     1     -14.741   3.260  32.282  0.00  0.00    +0.022 A 
ATOM     26  C   UNL     1     -14.603   0.966  31.535  0.00  0.00    +0.022 A 
ATOM     27  C   UNL     1     -14.614   1.901  32.571  0.00  0.00    +0.041 A 
ENDBRANCH   6  21
ENDBRANCH  10   4
TORSDOF 6
ENDMDL
MODEL 9
REMARK VINA RESULT:      -5.9     20.354     21.777
REMARK  Name = 25390023
REMARK  8 active torsions:
REMARK  status: ('A' for Active; 'I' for Inactive)
REMARK    1  A    between atoms: N_3  and  C_17
REMARK    2  A    between atoms: N_4  and  C_10
REMARK    3  A    between atoms: N_6  and  C_21
REMARK    4  A    between atoms: C_8  and  C_11
REMARK    5  A    between atoms: C_14  and  C_16
REMARK    6  A    between atoms: C_15  and  C_18
REMARK    7  A    between atoms: C_17  and  C_20
REMARK    8  A    between atoms: C_20  and  C_22
REMARK                            x       y       z     vdW  Elec       q    Type
REMARK                         _______ _______ _______ _____ _____    ______ ____
ROOT
ATOM      8  C   UNL     1      -3.880 -11.687  13.742  0.00  0.00    +0.047 C 
ATOM      9  C   UNL     1      -4.021 -10.285  13.114  0.00  0.00    +0.039 C 
ATOM     10  C   UNL     1      -3.166 -10.307  11.842  0.00  0.00    +0.098 C 
ATOM     12  C   UNL     1      -2.599 -12.183  13.138  0.00  0.00    -0.021 C 
ATOM     13  C   UNL     1      -2.216 -11.431  12.100  0.00  0.00    -0.009 C 
ENDROOT
BRANCH   8  11
ATOM      3  N   UNL     1      -4.432 -11.943  17.354  0.00  0.00    -0.267 N 
ATOM      5  N   UNL     1      -3.276 -11.261  17.411  0.00  0.00    -0.176 NA
ATOM     11  C   UNL     1      -3.901 -11.670  15.254  0.00  0.00    +0.003 A 
ATOM     14  C   UNL     1      -4.850 -12.214  16.084  0.00  0.00    +0.040 A 
ATOM     15  C   UNL     1      -2.957 -11.097  16.125  0.00  0.00    +0.064 A 
ATOM     16  C   UNL     1      -6.092 -12.954  15.792  0.00  0.00    +0.065 C 
ATOM     18  C   UNL     1      -1.722 -10.374  15.771  0.00  0.00    +0.068 C 
BRANCH   3  17
ATOM     17  C   UNL     1      -5.096 -12.311  18.584  0.00  0.00    +0.158 C 
BRANCH  17  20
ATOM     20  C   UNL     1      -5.677 -11.114  19.342  0.00  0.00    +0.141 C 
BRANCH  20  22
ATOM      7  N   UNL     1      -7.401  -9.757  17.890  0.00  0.00    -0.197 NA
ATOM     22  C   UNL     1      -6.640 -10.356  18.531  0.00  0.00    +0.064 C 
ENDBRANCH  20  22
ENDBRANCH  17  20
ENDBRANCH   3  17
ENDBRANCH   8  11
BRANCH  10   4
ATOM      2  O   UNL     1      -4.689  -8.448  10.283  0.00  0.00    -0.252 OA
ATOM      4  N   UNL     1      -3.932 -10.600  10.660  0.00  0.00    -0.293 N 
ATOM      6  N   UNL     1      -5.300 -10.205   8.852  0.00  0.00    -0.269 N 
ATOM     19  C   UNL     1      -4.655  -9.630   9.950  0.00  0.00    +0.304 C 
ATOM     28  H   UNL     1      -3.997 -11.565  10.346  0.00  0.00    +0.151 HD
ATOM     29  H   UNL     1      -5.167 -11.205   8.717  0.00  0.00    +0.156 HD
BRANCH   6  21
ATOM      1 CL   UNL     1      -8.743  -7.529   4.840  0.00  0.00    -0.084 Cl
ATOM     21  C   UNL     1      -6.121  -9.566   7.895  0.00  0.00    +0.035 A 
ATOM     23  C   UNL     1      -7.111  -8.674   8.308  0.00  0.00    +0.025 A 
ATOM     24  C   UNL     1      -5.943  -9.829   6.536  0.00  0.00    +0.025 A 
ATOM     25  C   UNL     1      -7.921  -8.044   7.364  0.00  0.00    +0.022 A 
ATOM     26  C   UNL     1      -6.753  -9.199   5.591  0.00  0.00    +0.022 A 
ATOM     27  C   UNL     1      -7.743  -8.306   6.005  0.00  0.00    +0.041 A 
ENDBRANCH   6  21
ENDBRANCH  10   4
TORSDOF 6
ENDMDL
MODEL 10
REMARK VINA RESULT:      -5.9      7.941     11.574
REMARK  Name = 25390023
REMARK  8 active torsions:
REMARK  status: ('A' for Active; 'I' for Inactive)
REMARK    1  A    between atoms: N_3  and  C_17
REMARK    2  A    between atoms: N_4  and  C_10
REMARK    3  A    between atoms: N_6  and  C_21
REMARK    4  A    between atoms: C_8  and  C_11
REMARK    5  A    between atoms: C_14  and  C_16
REMARK    6  A    between atoms: C_15  and  C_18
REMARK    7  A    between atoms: C_17  and  C_20
REMARK    8  A    between atoms: C_20  and  C_22
REMARK                            x       y       z     vdW  Elec       q    Type
REMARK                         _______ _______ _______ _____ _____    ______ ____
ROOT
ATOM      8  C   UNL     1     -15.134   4.127  32.760  0.00  0.00    +0.047 C 
ATOM      9  C   UNL     1     -14.068   5.221  32.548  0.00  0.00    +0.039 C 
ATOM     10  C   UNL     1     -14.534   6.426  33.374  0.00  0.00    +0.098 C 
ATOM     12  C   UNL     1     -16.330   4.923  33.196  0.00  0.00    -0.021 C 
ATOM     13  C   UNL     1     -15.997   6.174  33.533  0.00  0.00    -0.009 C 
ENDROOT
BRANCH   8  11
ATOM      3  N   UNL     1     -15.833   2.542  29.532  0.00  0.00    -0.267 N 
ATOM      5  N   UNL     1     -15.473   1.426  30.190  0.00  0.00    -0.176 NA
ATOM     11  C   UNL     1     -15.360   3.267  31.537  0.00  0.00    +0.003 A 
ATOM     14  C   UNL     1     -15.781   3.672  30.294  0.00  0.00    +0.040 A 
ATOM     15  C   UNL     1     -15.186   1.876  31.414  0.00  0.00    +0.064 A 
ATOM     16  C   UNL     1     -16.132   5.006  29.771  0.00  0.00    +0.065 C 
ATOM     18  C   UNL     1     -14.744   0.926  32.450  0.00  0.00    +0.068 C 
BRANCH   3  17
ATOM     17  C   UNL     1     -16.221   2.448  28.143  0.00  0.00    +0.158 C 
BRANCH  17  20
ATOM     20  C   UNL     1     -16.563   1.022  27.703  0.00  0.00    +0.141 C 
BRANCH  20  22
ATOM      7  N   UNL     1     -16.799   0.817  25.090  0.00  0.00    -0.197 NA
ATOM     22  C   UNL     1     -16.695   0.907  26.243  0.00  0.00    +0.064 C 
ENDBRANCH  20  22
ENDBRANCH  17  20
ENDBRANCH   3  17
ENDBRANCH   8  11
BRANCH  10   4
ATOM      2  O   UNL     1     -12.684   8.402  34.313  0.00  0.00    -0.252 OA
ATOM      4  N   UNL     1     -13.920   6.481  34.673  0.00  0.00    -0.293 N 
ATOM      6  N   UNL     1     -12.588   7.280  36.371  0.00  0.00    -0.269 N 
ATOM     19  C   UNL     1     -13.020   7.485  35.058  0.00  0.00    +0.304 C 
ATOM     28  H   UNL     1     -14.106   5.732  35.334  0.00  0.00    +0.151 HD
ATOM     29  H   UNL     1     -12.964   6.468  36.854  0.00  0.00    +0.156 HD
BRANCH   6  21
ATOM      1 CL   UNL     1      -8.799  10.579  39.514  0.00  0.00    -0.084 Cl
ATOM     21  C   UNL     1     -11.684   8.067  37.122  0.00  0.00    +0.035 A 
ATOM     23  C   UNL     1     -12.101   9.282  37.666  0.00  0.00    +0.025 A 
ATOM     24  C   UNL     1     -10.373   7.629  37.316  0.00  0.00    +0.025 A 
ATOM     25  C   UNL     1     -11.209  10.058  38.406  0.00  0.00    +0.022 A 
ATOM     26  C   UNL     1      -9.481   8.406  38.056  0.00  0.00    +0.022 A 
ATOM     27  C   UNL     1      -9.899   9.620  38.601  0.00  0.00    +0.041 A 
ENDBRANCH   6  21
ENDBRANCH  10   4
TORSDOF 6
ENDMDL
