MODEL 1
REMARK VINA RESULT:      -6.6      0.000      0.000
REMARK  Name = 71693321
REMARK  12 active torsions:
REMARK  status: ('A' for Active; 'I' for Inactive)
REMARK    1  A    between atoms: O_2  and  C_11
REMARK    2  A    between atoms: N_5  and  C_9
REMARK    3  A    between atoms: N_6  and  C_21
REMARK    4  A    between atoms: C_7  and  C_11
REMARK    5  A    between atoms: C_8  and  C_13
REMARK    6  A    between atoms: C_9  and  C_10
REMARK    7  A    between atoms: C_10  and  C_15
REMARK    8  A    between atoms: C_10  and  C_16
REMARK    9  A    between atoms: C_22  and  C_23
REMARK   10  A    between atoms: C_22  and  C_25
REMARK   11  A    between atoms: C_22  and  C_26
REMARK   12  A    between atoms: C_23  and  C_24
REMARK                            x       y       z     vdW  Elec       q    Type
REMARK                         _______ _______ _______ _____ _____    ______ ____
ROOT
ATOM      1  O   UNL     1      13.617   6.558  20.787  0.00  0.00    -0.361 OA
ATOM      3  O   UNL     1      10.613   8.474  20.804  0.00  0.00    -0.273 OA
ATOM      5  N   UNL     1      12.764   9.133  20.198  0.00  0.00    -0.291 N 
ATOM      7  C   UNL     1      14.199   8.776  20.071  0.00  0.00    +0.135 C 
ATOM      8  C   UNL     1      14.376   7.268  19.808  0.00  0.00    +0.171 C 
ATOM     12  C   UNL     1      11.791   8.202  20.564  0.00  0.00    +0.242 C 
ATOM     14  C   UNL     1      12.237   6.754  20.588  0.00  0.00    +0.256 C 
ENDROOT
BRANCH   8  13
ATOM     13  C   UNL     1      15.806   6.781  19.917  0.00  0.00    -0.017 A 
ATOM     17  C   UNL     1      16.517   6.965  21.103  0.00  0.00    +0.008 A 
ATOM     18  C   UNL     1      16.412   6.148  18.831  0.00  0.00    +0.008 A 
ATOM     19  C   UNL     1      17.833   6.516  21.203  0.00  0.00    +0.023 A 
ATOM     20  C   UNL     1      17.728   5.699  18.932  0.00  0.00    +0.023 A 
ATOM     21  C   UNL     1      18.439   5.883  20.118  0.00  0.00    +0.033 A 
BRANCH  21   6
ATOM      4  O   UNL     1      20.973   7.400  20.650  0.00  0.00    -0.275 OA
ATOM      6  N   UNL     1      19.757   5.434  20.219  0.00  0.00    -0.285 N 
ATOM     24  C   UNL     1      20.913   6.188  20.482  0.00  0.00    +0.217 C 
ATOM     28  H   UNL     1      19.880   4.437  20.058  0.00  0.00    +0.155 HD
BRANCH  24  23
ATOM     23  C   UNL     1      22.155   5.303  20.506  0.00  0.00    +0.099 C 
BRANCH  23  22
ATOM     22  C   UNL     1      22.046   4.103  21.461  0.00  0.00    -0.008 C 
ATOM     25  C   UNL     1      23.100   3.040  21.141  0.00  0.00    +0.008 C 
ATOM     26  C   UNL     1      22.205   4.568  22.909  0.00  0.00    +0.008 C 
ENDBRANCH  23  22
ENDBRANCH  24  23
ENDBRANCH  21   6
ENDBRANCH   8  13
BRANCH   5   9
ATOM      9  C   UNL     1      12.404  10.549  20.172  0.00  0.00    +0.111 C 
BRANCH   9  10
ATOM     10  C   UNL     1      12.628  11.231  21.526  0.00  0.00    +0.000 C 
ATOM     15  C   UNL     1      11.288  11.674  22.117  0.00  0.00    +0.009 C 
ATOM     16  C   UNL     1      13.567  12.434  21.403  0.00  0.00    +0.009 C 
ENDBRANCH   9  10
ENDBRANCH   5   9
BRANCH   7  11
ATOM     11  C   UNL     1      14.918   9.601  18.994  0.00  0.00    +0.181 C 
BRANCH  11   2
ATOM      2  O   UNL     1      14.488   9.143  17.728  0.00  0.00    -0.393 OA
ATOM     27  H   UNL     1      14.218   8.215  17.834  0.00  0.00    +0.209 HD
ENDBRANCH  11   2
ENDBRANCH   7  11
TORSDOF 8
ENDMDL
MODEL 2
REMARK VINA RESULT:      -6.3      1.871      2.801
REMARK  Name = 71693321
REMARK  12 active torsions:
REMARK  status: ('A' for Active; 'I' for Inactive)
REMARK    1  A    between atoms: O_2  and  C_11
REMARK    2  A    between atoms: N_5  and  C_9
REMARK    3  A    between atoms: N_6  and  C_21
REMARK    4  A    between atoms: C_7  and  C_11
REMARK    5  A    between atoms: C_8  and  C_13
REMARK    6  A    between atoms: C_9  and  C_10
REMARK    7  A    between atoms: C_10  and  C_15
REMARK    8  A    between atoms: C_10  and  C_16
REMARK    9  A    between atoms: C_22  and  C_23
REMARK   10  A    between atoms: C_22  and  C_25
REMARK   11  A    between atoms: C_22  and  C_26
REMARK   12  A    between atoms: C_23  and  C_24
REMARK                            x       y       z     vdW  Elec       q    Type
REMARK                         _______ _______ _______ _____ _____    ______ ____
ROOT
ATOM      1  O   UNL     1      15.212   7.082  18.187  0.00  0.00    -0.361 OA
ATOM      3  O   UNL     1      11.692   7.392  17.730  0.00  0.00    -0.273 OA
ATOM      5  N   UNL     1      12.907   7.311  19.716  0.00  0.00    -0.291 N 
ATOM      7  C   UNL     1      14.227   7.159  20.377  0.00  0.00    +0.135 C 
ATOM      8  C   UNL     1      15.364   7.680  19.475  0.00  0.00    +0.171 C 
ATOM     12  C   UNL     1      12.769   7.392  18.330  0.00  0.00    +0.242 C 
ATOM     14  C   UNL     1      14.054   7.563  17.546  0.00  0.00    +0.256 C 
ENDROOT
BRANCH   8  13
ATOM     13  C   UNL     1      16.754   7.332  19.964  0.00  0.00    -0.017 A 
ATOM     17  C   UNL     1      17.331   6.111  19.617  0.00  0.00    +0.008 A 
ATOM     18  C   UNL     1      17.458   8.235  20.763  0.00  0.00    +0.008 A 
ATOM     19  C   UNL     1      18.612   5.792  20.067  0.00  0.00    +0.023 A 
ATOM     20  C   UNL     1      18.739   7.915  21.212  0.00  0.00    +0.023 A 
ATOM     21  C   UNL     1      19.316   6.694  20.865  0.00  0.00    +0.033 A 
BRANCH  21   6
ATOM      4  O   UNL     1      20.315   6.125  23.637  0.00  0.00    -0.275 OA
ATOM      6  N   UNL     1      20.598   6.374  21.316  0.00  0.00    -0.285 N 
ATOM     24  C   UNL     1      21.014   6.104  22.630  0.00  0.00    +0.217 C 
ATOM     28  H   UNL     1      21.311   6.360  20.591  0.00  0.00    +0.155 HD
BRANCH  24  23
ATOM     23  C   UNL     1      22.507   5.799  22.684  0.00  0.00    +0.099 C 
BRANCH  23  22
ATOM     22  C   UNL     1      22.851   4.326  22.412  0.00  0.00    -0.008 C 
ATOM     25  C   UNL     1      23.545   4.158  21.057  0.00  0.00    +0.008 C 
ATOM     26  C   UNL     1      23.751   3.782  23.523  0.00  0.00    +0.008 C 
ENDBRANCH  23  22
ENDBRANCH  24  23
ENDBRANCH  21   6
ENDBRANCH   8  13
BRANCH   5   9
ATOM      9  C   UNL     1      11.707   7.128  20.530  0.00  0.00    +0.111 C 
BRANCH   9  10
ATOM     10  C   UNL     1      10.963   8.446  20.773  0.00  0.00    +0.000 C 
ATOM     15  C   UNL     1      11.831   9.627  20.336  0.00  0.00    +0.009 C 
ATOM     16  C   UNL     1      10.566   8.606  22.243  0.00  0.00    +0.009 C 
ENDBRANCH   9  10
ENDBRANCH   5   9
BRANCH   7  11
ATOM     11  C   UNL     1      14.278   7.835  21.754  0.00  0.00    +0.181 C 
BRANCH  11   2
ATOM      2  O   UNL     1      14.925   6.957  22.653  0.00  0.00    -0.393 OA
ATOM     27  H   UNL     1      15.868   6.943  22.413  0.00  0.00    +0.209 HD
ENDBRANCH  11   2
ENDBRANCH   7  11
TORSDOF 8
ENDMDL
MODEL 3
REMARK VINA RESULT:      -5.7      2.355      3.862
REMARK  Name = 71693321
REMARK  12 active torsions:
REMARK  status: ('A' for Active; 'I' for Inactive)
REMARK    1  A    between atoms: O_2  and  C_11
REMARK    2  A    between atoms: N_5  and  C_9
REMARK    3  A    between atoms: N_6  and  C_21
REMARK    4  A    between atoms: C_7  and  C_11
REMARK    5  A    between atoms: C_8  and  C_13
REMARK    6  A    between atoms: C_9  and  C_10
REMARK    7  A    between atoms: C_10  and  C_15
REMARK    8  A    between atoms: C_10  and  C_16
REMARK    9  A    between atoms: C_22  and  C_23
REMARK   10  A    between atoms: C_22  and  C_25
REMARK   11  A    between atoms: C_22  and  C_26
REMARK   12  A    between atoms: C_23  and  C_24
REMARK                            x       y       z     vdW  Elec       q    Type
REMARK                         _______ _______ _______ _____ _____    ______ ____
ROOT
ATOM      1  O   UNL     1      17.810   9.513  20.708  0.00  0.00    -0.361 OA
ATOM      3  O   UNL     1      14.801  11.407  20.482  0.00  0.00    -0.273 OA
ATOM      5  N   UNL     1      15.086   9.097  20.376  0.00  0.00    -0.291 N 
ATOM      7  C   UNL     1      16.021   7.945  20.371  0.00  0.00    +0.135 C 
ATOM      8  C   UNL     1      17.300   8.262  21.171  0.00  0.00    +0.171 C 
ATOM     12  C   UNL     1      15.514  10.408  20.591  0.00  0.00    +0.242 C 
ATOM     14  C   UNL     1      16.946  10.567  21.060  0.00  0.00    +0.256 C 
ENDROOT
BRANCH   8  13
ATOM     13  C   UNL     1      18.406   7.242  21.004  0.00  0.00    -0.017 A 
ATOM     17  C   UNL     1      18.248   6.180  20.114  0.00  0.00    +0.008 A 
ATOM     18  C   UNL     1      19.585   7.365  21.741  0.00  0.00    +0.008 A 
ATOM     19  C   UNL     1      19.268   5.241  19.960  0.00  0.00    +0.023 A 
ATOM     20  C   UNL     1      20.605   6.427  21.586  0.00  0.00    +0.023 A 
ATOM     21  C   UNL     1      20.447   5.365  20.696  0.00  0.00    +0.033 A 
BRANCH  21   6
ATOM      4  O   UNL     1      21.751   3.564  22.712  0.00  0.00    -0.275 OA
ATOM      6  N   UNL     1      21.467   4.425  20.542  0.00  0.00    -0.285 N 
ATOM     24  C   UNL     1      22.038   3.595  21.521  0.00  0.00    +0.217 C 
ATOM     28  H   UNL     1      21.848   4.362  19.601  0.00  0.00    +0.155 HD
BRANCH  24  23
ATOM     23  C   UNL     1      23.131   2.713  20.926  0.00  0.00    +0.099 C 
BRANCH  23  22
ATOM     22  C   UNL     1      24.465   3.442  20.700  0.00  0.00    -0.008 C 
ATOM     25  C   UNL     1      25.441   3.187  21.852  0.00  0.00    +0.008 C 
ATOM     26  C   UNL     1      25.095   2.990  19.381  0.00  0.00    +0.008 C 
ENDBRANCH  23  22
ENDBRANCH  24  23
ENDBRANCH  21   6
ENDBRANCH   8  13
BRANCH   5   9
ATOM      9  C   UNL     1      13.720   8.875  19.907  0.00  0.00    +0.111 C 
BRANCH   9  10
ATOM     10  C   UNL     1      13.649   8.704  18.385  0.00  0.00    +0.000 C 
ATOM     15  C   UNL     1      13.055   9.959  17.744  0.00  0.00    +0.009 C 
ATOM     16  C   UNL     1      12.821   7.477  17.994  0.00  0.00    +0.009 C 
ENDBRANCH   9  10
ENDBRANCH   5   9
BRANCH   7  11
ATOM     11  C   UNL     1      15.368   6.653  20.884  0.00  0.00    +0.181 C 
BRANCH  11   2
ATOM      2  O   UNL     1      15.241   6.753  22.288  0.00  0.00    -0.393 OA
ATOM     27  H   UNL     1      14.624   7.482  22.471  0.00  0.00    +0.209 HD
ENDBRANCH  11   2
ENDBRANCH   7  11
TORSDOF 8
ENDMDL
MODEL 4
REMARK VINA RESULT:      -5.6     26.481     29.941
REMARK  Name = 71693321
REMARK  12 active torsions:
REMARK  status: ('A' for Active; 'I' for Inactive)
REMARK    1  A    between atoms: O_2  and  C_11
REMARK    2  A    between atoms: N_5  and  C_9
REMARK    3  A    between atoms: N_6  and  C_21
REMARK    4  A    between atoms: C_7  and  C_11
REMARK    5  A    between atoms: C_8  and  C_13
REMARK    6  A    between atoms: C_9  and  C_10
REMARK    7  A    between atoms: C_10  and  C_15
REMARK    8  A    between atoms: C_10  and  C_16
REMARK    9  A    between atoms: C_22  and  C_23
REMARK   10  A    between atoms: C_22  and  C_25
REMARK   11  A    between atoms: C_22  and  C_26
REMARK   12  A    between atoms: C_23  and  C_24
REMARK                            x       y       z     vdW  Elec       q    Type
REMARK                         _______ _______ _______ _____ _____    ______ ____
ROOT
ATOM      1  O   UNL     1      -2.254  -9.920  12.981  0.00  0.00    -0.361 OA
ATOM      3  O   UNL     1      -1.785 -10.693  16.428  0.00  0.00    -0.273 OA
ATOM      5  N   UNL     1      -3.627 -11.129  15.070  0.00  0.00    -0.291 N 
ATOM      7  C   UNL     1      -4.269 -10.988  13.739  0.00  0.00    +0.135 C 
ATOM      8  C   UNL     1      -3.214 -10.913  12.617  0.00  0.00    +0.171 C 
ATOM     12  C   UNL     1      -2.317 -10.714  15.316  0.00  0.00    +0.242 C 
ATOM     14  C   UNL     1      -1.503 -10.337  14.096  0.00  0.00    +0.256 C 
ENDROOT
BRANCH   8  13
ATOM     13  C   UNL     1      -3.772 -10.517  11.266  0.00  0.00    -0.017 A 
ATOM     17  C   UNL     1      -4.349  -9.260  11.090  0.00  0.00    +0.008 A 
ATOM     18  C   UNL     1      -3.706 -11.411  10.196  0.00  0.00    +0.008 A 
ATOM     19  C   UNL     1      -4.861  -8.895   9.845  0.00  0.00    +0.023 A 
ATOM     20  C   UNL     1      -4.218 -11.046   8.951  0.00  0.00    +0.023 A 
ATOM     21  C   UNL     1      -4.795  -9.789   8.775  0.00  0.00    +0.033 A 
BRANCH  21   6
ATOM      4  O   UNL     1      -7.389 -10.516   7.453  0.00  0.00    -0.275 OA
ATOM      6  N   UNL     1      -5.308  -9.423   7.530  0.00  0.00    -0.285 N 
ATOM     24  C   UNL     1      -6.539  -9.784   6.958  0.00  0.00    +0.217 C 
ATOM     28  H   UNL     1      -4.690  -8.841   6.970  0.00  0.00    +0.155 HD
BRANCH  24  23
ATOM     23  C   UNL     1      -6.707  -9.166   5.574  0.00  0.00    +0.099 C 
BRANCH  23  22
ATOM     22  C   UNL     1      -8.071  -8.492   5.354  0.00  0.00    -0.008 C 
ATOM     25  C   UNL     1      -8.259  -7.299   6.296  0.00  0.00    +0.008 C 
ATOM     26  C   UNL     1      -8.201  -8.028   3.902  0.00  0.00    +0.008 C 
ENDBRANCH  23  22
ENDBRANCH  24  23
ENDBRANCH  21   6
ENDBRANCH   8  13
BRANCH   5   9
ATOM      9  C   UNL     1      -4.473 -11.490  16.205  0.00  0.00    +0.111 C 
BRANCH   9  10
ATOM     10  C   UNL     1      -4.913 -10.266  17.015  0.00  0.00    +0.000 C 
ATOM     15  C   UNL     1      -5.197 -10.670  18.463  0.00  0.00    +0.009 C 
ATOM     16  C   UNL     1      -6.151  -9.602  16.407  0.00  0.00    +0.009 C 
ENDBRANCH   9  10
ENDBRANCH   5   9
BRANCH   7  11
ATOM     11  C   UNL     1      -5.284 -12.104  13.453  0.00  0.00    +0.181 C 
BRANCH  11   2
ATOM      2  O   UNL     1      -6.572 -11.526  13.402  0.00  0.00    -0.393 OA
ATOM     27  H   UNL     1      -7.004 -11.708  14.254  0.00  0.00    +0.209 HD
ENDBRANCH  11   2
ENDBRANCH   7  11
TORSDOF 8
ENDMDL
MODEL 5
REMARK VINA RESULT:      -5.5     28.576     32.176
REMARK  Name = 71693321
REMARK  12 active torsions:
REMARK  status: ('A' for Active; 'I' for Inactive)
REMARK    1  A    between atoms: O_2  and  C_11
REMARK    2  A    between atoms: N_5  and  C_9
REMARK    3  A    between atoms: N_6  and  C_21
REMARK    4  A    between atoms: C_7  and  C_11
REMARK    5  A    between atoms: C_8  and  C_13
REMARK    6  A    between atoms: C_9  and  C_10
REMARK    7  A    between atoms: C_10  and  C_15
REMARK    8  A    between atoms: C_10  and  C_16
REMARK    9  A    between atoms: C_22  and  C_23
REMARK   10  A    between atoms: C_22  and  C_25
REMARK   11  A    between atoms: C_22  and  C_26
REMARK   12  A    between atoms: C_23  and  C_24
REMARK                            x       y       z     vdW  Elec       q    Type
REMARK                         _______ _______ _______ _____ _____    ______ ____
ROOT
ATOM      1  O   UNL     1     -10.397 -10.303  18.704  0.00  0.00    -0.361 OA
ATOM      3  O   UNL     1      -7.930 -12.463  20.100  0.00  0.00    -0.273 OA
ATOM      5  N   UNL     1      -7.795 -11.125  18.196  0.00  0.00    -0.291 N 
ATOM      7  C   UNL     1      -8.474 -10.188  17.269  0.00  0.00    +0.135 C 
ATOM      8  C   UNL     1      -9.569  -9.381  17.995  0.00  0.00    +0.171 C 
ATOM     12  C   UNL     1      -8.399 -11.591  19.366  0.00  0.00    +0.242 C 
ATOM     14  C   UNL     1      -9.688 -10.900  19.764  0.00  0.00    +0.256 C 
ENDROOT
BRANCH   8  13
ATOM     13  C   UNL     1     -10.473  -8.591  17.073  0.00  0.00    -0.017 A 
ATOM     17  C   UNL     1     -10.425  -7.198  17.073  0.00  0.00    +0.008 A 
ATOM     18  C   UNL     1     -11.356  -9.259  16.222  0.00  0.00    +0.008 A 
ATOM     19  C   UNL     1     -11.258  -6.471  16.223  0.00  0.00    +0.023 A 
ATOM     20  C   UNL     1     -12.188  -8.531  15.372  0.00  0.00    +0.023 A 
ATOM     21  C   UNL     1     -12.140  -7.138  15.372  0.00  0.00    +0.033 A 
BRANCH  21   6
ATOM      4  O   UNL     1     -12.277  -7.071  12.375  0.00  0.00    -0.275 OA
ATOM      6  N   UNL     1     -12.973  -6.409  14.521  0.00  0.00    -0.285 N 
ATOM     24  C   UNL     1     -13.005  -6.422  13.117  0.00  0.00    +0.217 C 
ATOM     28  H   UNL     1     -13.616  -5.779  14.995  0.00  0.00    +0.155 HD
BRANCH  24  23
ATOM     23  C   UNL     1     -14.071  -5.472  12.581  0.00  0.00    +0.099 C 
BRANCH  23  22
ATOM     22  C   UNL     1     -13.771  -3.987  12.845  0.00  0.00    -0.008 C 
ATOM     25  C   UNL     1     -12.439  -3.569  12.216  0.00  0.00    +0.008 C 
ATOM     26  C   UNL     1     -14.899  -3.116  12.291  0.00  0.00    +0.008 C 
ENDBRANCH  23  22
ENDBRANCH  24  23
ENDBRANCH  21   6
ENDBRANCH   8  13
BRANCH   5   9
ATOM      9  C   UNL     1      -6.558 -11.761  17.747  0.00  0.00    +0.111 C 
BRANCH   9  10
ATOM     10  C   UNL     1      -5.310 -11.053  18.287  0.00  0.00    +0.000 C 
ATOM     15  C   UNL     1      -4.345 -10.746  17.141  0.00  0.00    +0.009 C 
ATOM     16  C   UNL     1      -4.604 -11.893  19.354  0.00  0.00    +0.009 C 
ENDBRANCH   9  10
ENDBRANCH   5   9
BRANCH   7  11
ATOM     11  C   UNL     1      -7.491  -9.246  16.559  0.00  0.00    +0.181 C 
BRANCH  11   2
ATOM      2  O   UNL     1      -7.627  -9.435  15.165  0.00  0.00    -0.393 OA
ATOM     27  H   UNL     1      -7.392 -10.360  14.975  0.00  0.00    +0.209 HD
ENDBRANCH  11   2
ENDBRANCH   7  11
TORSDOF 8
ENDMDL
MODEL 6
REMARK VINA RESULT:      -5.4     24.953     29.015
REMARK  Name = 71693321
REMARK  12 active torsions:
REMARK  status: ('A' for Active; 'I' for Inactive)
REMARK    1  A    between atoms: O_2  and  C_11
REMARK    2  A    between atoms: N_5  and  C_9
REMARK    3  A    between atoms: N_6  and  C_21
REMARK    4  A    between atoms: C_7  and  C_11
REMARK    5  A    between atoms: C_8  and  C_13
REMARK    6  A    between atoms: C_9  and  C_10
REMARK    7  A    between atoms: C_10  and  C_15
REMARK    8  A    between atoms: C_10  and  C_16
REMARK    9  A    between atoms: C_22  and  C_23
REMARK   10  A    between atoms: C_22  and  C_25
REMARK   11  A    between atoms: C_22  and  C_26
REMARK   12  A    between atoms: C_23  and  C_24
REMARK                            x       y       z     vdW  Elec       q    Type
REMARK                         _______ _______ _______ _____ _____    ______ ____
ROOT
ATOM      1  O   UNL     1     -11.713   7.100  20.896  0.00  0.00    -0.361 OA
ATOM      3  O   UNL     1     -14.263   5.220  22.527  0.00  0.00    -0.273 OA
ATOM      5  N   UNL     1     -14.462   6.734  20.767  0.00  0.00    -0.291 N 
ATOM      7  C   UNL     1     -13.796   7.703  19.862  0.00  0.00    +0.135 C 
ATOM      8  C   UNL     1     -12.322   7.320  19.624  0.00  0.00    +0.171 C 
ATOM     12  C   UNL     1     -13.750   5.944  21.672  0.00  0.00    +0.242 C 
ATOM     14  C   UNL     1     -12.244   5.950  21.512  0.00  0.00    +0.256 C 
ENDROOT
BRANCH   8  13
ATOM     13  C   UNL     1     -11.509   8.388  18.922  0.00  0.00    -0.017 A 
ATOM     17  C   UNL     1     -10.932   8.122  17.680  0.00  0.00    +0.008 A 
ATOM     18  C   UNL     1     -11.337   9.638  19.518  0.00  0.00    +0.008 A 
ATOM     19  C   UNL     1     -10.184   9.106  17.035  0.00  0.00    +0.023 A 
ATOM     20  C   UNL     1     -10.589  10.622  18.871  0.00  0.00    +0.023 A 
ATOM     21  C   UNL     1     -10.013  10.356  17.630  0.00  0.00    +0.033 A 
BRANCH  21   6
ATOM      4  O   UNL     1     -10.882  12.574  15.805  0.00  0.00    -0.275 OA
ATOM      6  N   UNL     1      -9.263  11.340  16.983  0.00  0.00    -0.285 N 
ATOM     24  C   UNL     1      -9.722  12.368  16.143  0.00  0.00    +0.217 C 
ATOM     28  H   UNL     1      -8.259  11.275  17.132  0.00  0.00    +0.155 HD
BRANCH  24  23
ATOM     23  C   UNL     1      -8.566  13.227  15.642  0.00  0.00    +0.099 C 
BRANCH  23  22
ATOM     22  C   UNL     1      -7.548  13.599  16.732  0.00  0.00    -0.008 C 
ATOM     25  C   UNL     1      -6.147  13.788  16.144  0.00  0.00    +0.008 C 
ATOM     26  C   UNL     1      -7.985  14.879  17.446  0.00  0.00    +0.008 C 
ENDBRANCH  23  22
ENDBRANCH  24  23
ENDBRANCH  21   6
ENDBRANCH   8  13
BRANCH   5   9
ATOM      9  C   UNL     1     -15.918   6.787  20.878  0.00  0.00    +0.111 C 
BRANCH   9  10
ATOM     10  C   UNL     1     -16.589   5.522  20.331  0.00  0.00    +0.000 C 
ATOM     15  C   UNL     1     -17.362   5.850  19.052  0.00  0.00    +0.009 C 
ATOM     16  C   UNL     1     -17.530   4.892  21.361  0.00  0.00    +0.009 C 
ENDBRANCH   9  10
ENDBRANCH   5   9
BRANCH   7  11
ATOM     11  C   UNL     1     -14.535   7.865  18.526  0.00  0.00    +0.181 C 
BRANCH  11   2
ATOM      2  O   UNL     1     -14.949   9.212  18.411  0.00  0.00    -0.393 OA
ATOM     27  H   UNL     1     -14.971   9.584  19.310  0.00  0.00    +0.209 HD
ENDBRANCH  11   2
ENDBRANCH   7  11
TORSDOF 8
ENDMDL
MODEL 7
REMARK VINA RESULT:      -5.4     14.047     15.299
REMARK  Name = 71693321
REMARK  12 active torsions:
REMARK  status: ('A' for Active; 'I' for Inactive)
REMARK    1  A    between atoms: O_2  and  C_11
REMARK    2  A    between atoms: N_5  and  C_9
REMARK    3  A    between atoms: N_6  and  C_21
REMARK    4  A    between atoms: C_7  and  C_11
REMARK    5  A    between atoms: C_8  and  C_13
REMARK    6  A    between atoms: C_9  and  C_10
REMARK    7  A    between atoms: C_10  and  C_15
REMARK    8  A    between atoms: C_10  and  C_16
REMARK    9  A    between atoms: C_22  and  C_23
REMARK   10  A    between atoms: C_22  and  C_25
REMARK   11  A    between atoms: C_22  and  C_26
REMARK   12  A    between atoms: C_23  and  C_24
REMARK                            x       y       z     vdW  Elec       q    Type
REMARK                         _______ _______ _______ _____ _____    ______ ____
ROOT
ATOM      1  O   UNL     1      12.215   8.225   3.952  0.00  0.00    -0.361 OA
ATOM      3  O   UNL     1       8.924   6.984   4.519  0.00  0.00    -0.273 OA
ATOM      5  N   UNL     1      10.853   6.643   5.781  0.00  0.00    -0.291 N 
ATOM      7  C   UNL     1      12.311   6.871   5.934  0.00  0.00    +0.135 C 
ATOM      8  C   UNL     1      12.738   8.200   5.281  0.00  0.00    +0.171 C 
ATOM     12  C   UNL     1      10.105   7.238   4.763  0.00  0.00    +0.242 C 
ATOM     14  C   UNL     1      10.811   8.318   3.970  0.00  0.00    +0.256 C 
ENDROOT
BRANCH   8  13
ATOM     13  C   UNL     1      14.237   8.384   5.170  0.00  0.00    -0.017 A 
ATOM     17  C   UNL     1      14.995   7.499   4.404  0.00  0.00    +0.008 A 
ATOM     18  C   UNL     1      14.860   9.441   5.836  0.00  0.00    +0.008 A 
ATOM     19  C   UNL     1      16.375   7.670   4.303  0.00  0.00    +0.023 A 
ATOM     20  C   UNL     1      16.241   9.612   5.733  0.00  0.00    +0.023 A 
ATOM     21  C   UNL     1      16.998   8.727   4.967  0.00  0.00    +0.033 A 
BRANCH  21   6
ATOM      4  O   UNL     1      19.165   8.284   6.995  0.00  0.00    -0.275 OA
ATOM      6  N   UNL     1      18.380   8.897   4.865  0.00  0.00    -0.285 N 
ATOM     24  C   UNL     1      19.358   8.664   5.846  0.00  0.00    +0.217 C 
ATOM     28  H   UNL     1      18.698   9.257   3.968  0.00  0.00    +0.155 HD
BRANCH  24  23
ATOM     23  C   UNL     1      20.754   8.980   5.319  0.00  0.00    +0.099 C 
BRANCH  23  22
ATOM     22  C   UNL     1      21.757   7.827   5.484  0.00  0.00    -0.008 C 
ATOM     25  C   UNL     1      21.300   6.579   4.725  0.00  0.00    +0.008 C 
ATOM     26  C   UNL     1      23.139   8.257   4.987  0.00  0.00    +0.008 C 
ENDBRANCH  23  22
ENDBRANCH  24  23
ENDBRANCH  21   6
ENDBRANCH   8  13
BRANCH   5   9
ATOM      9  C   UNL     1      10.237   5.581   6.573  0.00  0.00    +0.111 C 
BRANCH   9  10
ATOM     10  C   UNL     1       9.945   6.022   8.012  0.00  0.00    +0.000 C 
ATOM     15  C   UNL     1       9.533   4.815   8.857  0.00  0.00    +0.009 C 
ATOM     16  C   UNL     1       8.851   7.092   8.062  0.00  0.00    +0.009 C 
ENDBRANCH   9  10
ENDBRANCH   5   9
BRANCH   7  11
ATOM     11  C   UNL     1      12.765   6.819   7.400  0.00  0.00    +0.181 C 
BRANCH  11   2
ATOM      2  O   UNL     1      13.876   5.950   7.486  0.00  0.00    -0.393 OA
ATOM     27  H   UNL     1      14.394   6.063   6.671  0.00  0.00    +0.209 HD
ENDBRANCH  11   2
ENDBRANCH   7  11
TORSDOF 8
ENDMDL
MODEL 8
REMARK VINA RESULT:      -5.4     22.052     26.156
REMARK  Name = 71693321
REMARK  12 active torsions:
REMARK  status: ('A' for Active; 'I' for Inactive)
REMARK    1  A    between atoms: O_2  and  C_11
REMARK    2  A    between atoms: N_5  and  C_9
REMARK    3  A    between atoms: N_6  and  C_21
REMARK    4  A    between atoms: C_7  and  C_11
REMARK    5  A    between atoms: C_8  and  C_13
REMARK    6  A    between atoms: C_9  and  C_10
REMARK    7  A    between atoms: C_10  and  C_15
REMARK    8  A    between atoms: C_10  and  C_16
REMARK    9  A    between atoms: C_22  and  C_23
REMARK   10  A    between atoms: C_22  and  C_25
REMARK   11  A    between atoms: C_22  and  C_26
REMARK   12  A    between atoms: C_23  and  C_24
REMARK                            x       y       z     vdW  Elec       q    Type
REMARK                         _______ _______ _______ _____ _____    ______ ____
ROOT
ATOM      1  O   UNL     1      -1.323   9.871   3.280  0.00  0.00    -0.361 OA
ATOM      3  O   UNL     1       1.297  12.240   3.751  0.00  0.00    -0.273 OA
ATOM      5  N   UNL     1      -0.371  11.589   5.243  0.00  0.00    -0.291 N 
ATOM      7  C   UNL     1      -1.585  10.773   5.492  0.00  0.00    +0.135 C 
ATOM      8  C   UNL     1      -1.582   9.493   4.633  0.00  0.00    +0.171 C 
ATOM     12  C   UNL     1       0.361  11.499   4.057  0.00  0.00    +0.242 C 
ATOM     14  C   UNL     1      -0.007  10.351   3.139  0.00  0.00    +0.256 C 
ENDROOT
BRANCH   8  13
ATOM     13  C   UNL     1      -2.894   8.738   4.639  0.00  0.00    -0.017 A 
ATOM     17  C   UNL     1      -2.987   7.504   5.282  0.00  0.00    +0.008 A 
ATOM     18  C   UNL     1      -4.012   9.278   4.000  0.00  0.00    +0.008 A 
ATOM     19  C   UNL     1      -4.196   6.810   5.287  0.00  0.00    +0.023 A 
ATOM     20  C   UNL     1      -5.221   8.584   4.007  0.00  0.00    +0.023 A 
ATOM     21  C   UNL     1      -5.314   7.350   4.650  0.00  0.00    +0.033 A 
BRANCH  21   6
ATOM      4  O   UNL     1      -7.947   8.042   5.912  0.00  0.00    -0.275 OA
ATOM      6  N   UNL     1      -6.524   6.654   4.656  0.00  0.00    -0.285 N 
ATOM     24  C   UNL     1      -7.738   7.028   5.256  0.00  0.00    +0.217 C 
ATOM     28  H   UNL     1      -6.499   5.755   4.180  0.00  0.00    +0.155 HD
BRANCH  24  23
ATOM     23  C   UNL     1      -8.816   5.975   5.023  0.00  0.00    +0.099 C 
BRANCH  23  22
ATOM     22  C   UNL     1      -9.035   5.626   3.542  0.00  0.00    -0.008 C 
ATOM     25  C   UNL     1      -9.202   4.117   3.344  0.00  0.00    +0.008 C 
ATOM     26  C   UNL     1     -10.269   6.355   3.007  0.00  0.00    +0.008 C 
ENDBRANCH  23  22
ENDBRANCH  24  23
ENDBRANCH  21   6
ENDBRANCH   8  13
BRANCH   5   9
ATOM      9  C   UNL     1      -0.078  12.684   6.165  0.00  0.00    +0.111 C 
BRANCH   9  10
ATOM     10  C   UNL     1       1.151  12.398   7.036  0.00  0.00    +0.000 C 
ATOM     15  C   UNL     1       0.766  12.438   8.515  0.00  0.00    +0.009 C 
ATOM     16  C   UNL     1       2.280  13.396   6.763  0.00  0.00    +0.009 C 
ENDBRANCH   9  10
ENDBRANCH   5   9
BRANCH   7  11
ATOM     11  C   UNL     1      -1.767  10.427   6.977  0.00  0.00    +0.181 C 
BRANCH  11   2
ATOM      2  O   UNL     1      -0.794   9.464   7.327  0.00  0.00    -0.393 OA
ATOM     27  H   UNL     1      -1.032   9.119   8.205  0.00  0.00    +0.209 HD
ENDBRANCH  11   2
ENDBRANCH   7  11
TORSDOF 8
ENDMDL
MODEL 9
REMARK VINA RESULT:      -5.2     27.055     30.261
REMARK  Name = 71693321
REMARK  12 active torsions:
REMARK  status: ('A' for Active; 'I' for Inactive)
REMARK    1  A    between atoms: O_2  and  C_11
REMARK    2  A    between atoms: N_5  and  C_9
REMARK    3  A    between atoms: N_6  and  C_21
REMARK    4  A    between atoms: C_7  and  C_11
REMARK    5  A    between atoms: C_8  and  C_13
REMARK    6  A    between atoms: C_9  and  C_10
REMARK    7  A    between atoms: C_10  and  C_15
REMARK    8  A    between atoms: C_10  and  C_16
REMARK    9  A    between atoms: C_22  and  C_23
REMARK   10  A    between atoms: C_22  and  C_25
REMARK   11  A    between atoms: C_22  and  C_26
REMARK   12  A    between atoms: C_23  and  C_24
REMARK                            x       y       z     vdW  Elec       q    Type
REMARK                         _______ _______ _______ _____ _____    ______ ____
ROOT
ATOM      1  O   UNL     1      -7.895 -12.689  18.852  0.00  0.00    -0.361 OA
ATOM      3  O   UNL     1     -10.741 -12.795  20.993  0.00  0.00    -0.273 OA
ATOM      5  N   UNL     1     -10.058 -11.096  19.552  0.00  0.00    -0.291 N 
ATOM      7  C   UNL     1      -9.044 -10.595  18.591  0.00  0.00    +0.135 C 
ATOM      8  C   UNL     1      -8.342 -11.760  17.865  0.00  0.00    +0.171 C 
ATOM     12  C   UNL     1     -10.000 -12.379  20.100  0.00  0.00    +0.242 C 
ATOM     14  C   UNL     1      -8.987 -13.318  19.479  0.00  0.00    +0.256 C 
ENDROOT
BRANCH   8  13
ATOM     13  C   UNL     1      -7.128 -11.348  17.060  0.00  0.00    -0.017 A 
ATOM     17  C   UNL     1      -7.114 -11.524  15.676  0.00  0.00    +0.008 A 
ATOM     18  C   UNL     1      -6.021 -10.792  17.703  0.00  0.00    +0.008 A 
ATOM     19  C   UNL     1      -5.996 -11.144  14.936  0.00  0.00    +0.023 A 
ATOM     20  C   UNL     1      -4.902 -10.412  16.962  0.00  0.00    +0.023 A 
ATOM     21  C   UNL     1      -4.889 -10.587  15.579  0.00  0.00    +0.033 A 
BRANCH  21   6
ATOM      4  O   UNL     1      -2.679 -12.246  14.410  0.00  0.00    -0.275 OA
ATOM      6  N   UNL     1      -3.770 -10.207  14.837  0.00  0.00    -0.285 N 
ATOM     24  C   UNL     1      -2.764 -11.029  14.301  0.00  0.00    +0.217 C 
ATOM     28  H   UNL     1      -3.675  -9.204  14.695  0.00  0.00    +0.155 HD
BRANCH  24  23
ATOM     23  C   UNL     1      -1.718 -10.205  13.557  0.00  0.00    +0.099 C 
BRANCH  23  22
ATOM     22  C   UNL     1      -1.772 -10.364  12.029  0.00  0.00    -0.008 C 
ATOM     25  C   UNL     1      -3.217 -10.378  11.522  0.00  0.00    +0.008 C 
ATOM     26  C   UNL     1      -1.000  -9.230  11.354  0.00  0.00    +0.008 C 
ENDBRANCH  23  22
ENDBRANCH  24  23
ENDBRANCH  21   6
ENDBRANCH   8  13
BRANCH   5   9
ATOM      9  C   UNL     1     -11.001 -10.134  20.118  0.00  0.00    +0.111 C 
BRANCH   9  10
ATOM     10  C   UNL     1     -12.457 -10.492  19.799  0.00  0.00    +0.000 C 
ATOM     15  C   UNL     1     -12.961  -9.646  18.629  0.00  0.00    +0.009 C 
ATOM     16  C   UNL     1     -13.366 -10.293  21.015  0.00  0.00    +0.009 C 
ENDBRANCH   9  10
ENDBRANCH   5   9
BRANCH   7  11
ATOM     11  C   UNL     1      -9.632  -9.602  17.578  0.00  0.00    +0.181 C 
BRANCH  11   2
ATOM      2  O   UNL     1      -9.004  -8.351  17.772  0.00  0.00    -0.393 OA
ATOM     27  H   UNL     1      -8.794  -8.278  18.718  0.00  0.00    +0.209 HD
ENDBRANCH  11   2
ENDBRANCH   7  11
TORSDOF 8
ENDMDL
MODEL 10
REMARK VINA RESULT:      -5.2      2.073      3.075
REMARK  Name = 71693321
REMARK  12 active torsions:
REMARK  status: ('A' for Active; 'I' for Inactive)
REMARK    1  A    between atoms: O_2  and  C_11
REMARK    2  A    between atoms: N_5  and  C_9
REMARK    3  A    between atoms: N_6  and  C_21
REMARK    4  A    between atoms: C_7  and  C_11
REMARK    5  A    between atoms: C_8  and  C_13
REMARK    6  A    between atoms: C_9  and  C_10
REMARK    7  A    between atoms: C_10  and  C_15
REMARK    8  A    between atoms: C_10  and  C_16
REMARK    9  A    between atoms: C_22  and  C_23
REMARK   10  A    between atoms: C_22  and  C_25
REMARK   11  A    between atoms: C_22  and  C_26
REMARK   12  A    between atoms: C_23  and  C_24
REMARK                            x       y       z     vdW  Elec       q    Type
REMARK                         _______ _______ _______ _____ _____    ______ ____
ROOT
ATOM      1  O   UNL     1      15.951   9.586  21.905  0.00  0.00    -0.361 OA
ATOM      3  O   UNL     1      12.597  10.767  21.686  0.00  0.00    -0.273 OA
ATOM      5  N   UNL     1      13.601   8.997  20.550  0.00  0.00    -0.291 N 
ATOM      7  C   UNL     1      14.833   8.216  20.278  0.00  0.00    +0.135 C 
ATOM      8  C   UNL     1      15.780   8.228  21.495  0.00  0.00    +0.171 C 
ATOM     12  C   UNL     1      13.553  10.009  21.511  0.00  0.00    +0.242 C 
ATOM     14  C   UNL     1      14.753  10.104  22.431  0.00  0.00    +0.256 C 
ENDROOT
BRANCH   8  13
ATOM     13  C   UNL     1      17.160   7.672  21.214  0.00  0.00    -0.017 A 
ATOM     17  C   UNL     1      18.291   8.354  21.659  0.00  0.00    +0.008 A 
ATOM     18  C   UNL     1      17.298   6.475  20.509  0.00  0.00    +0.008 A 
ATOM     19  C   UNL     1      19.562   7.840  21.400  0.00  0.00    +0.023 A 
ATOM     20  C   UNL     1      18.569   5.962  20.251  0.00  0.00    +0.023 A 
ATOM     21  C   UNL     1      19.701   6.644  20.696  0.00  0.00    +0.033 A 
BRANCH  21   6
ATOM      4  O   UNL     1      21.326   4.625  22.209  0.00  0.00    -0.275 OA
ATOM      6  N   UNL     1      20.973   6.131  20.438  0.00  0.00    -0.285 N 
ATOM     24  C   UNL     1      21.689   5.173  21.175  0.00  0.00    +0.217 C 
ATOM     28  H   UNL     1      21.432   6.527  19.621  0.00  0.00    +0.155 HD
BRANCH  24  23
ATOM     23  C   UNL     1      23.049   4.896  20.544  0.00  0.00    +0.099 C 
BRANCH  23  22
ATOM     22  C   UNL     1      24.044   6.061  20.670  0.00  0.00    -0.008 C 
ATOM     25  C   UNL     1      24.190   6.512  22.126  0.00  0.00    +0.008 C 
ATOM     26  C   UNL     1      25.410   5.650  20.118  0.00  0.00    +0.008 C 
ENDBRANCH  23  22
ENDBRANCH  24  23
ENDBRANCH  21   6
ENDBRANCH   8  13
BRANCH   5   9
ATOM      9  C   UNL     1      12.483   8.862  19.619  0.00  0.00    +0.111 C 
BRANCH   9  10
ATOM     10  C   UNL     1      12.896   9.138  18.169  0.00  0.00    +0.000 C 
ATOM     15  C   UNL     1      13.254  10.616  17.999  0.00  0.00    +0.009 C 
ATOM     16  C   UNL     1      11.789   8.753  17.184  0.00  0.00    +0.009 C 
ENDBRANCH   9  10
ENDBRANCH   5   9
BRANCH   7  11
ATOM     11  C   UNL     1      14.532   6.774  19.843  0.00  0.00    +0.181 C 
BRANCH  11   2
ATOM      2  O   UNL     1      13.906   6.110  20.922  0.00  0.00    -0.393 OA
ATOM     27  H   UNL     1      13.652   6.788  21.570  0.00  0.00    +0.209 HD
ENDBRANCH  11   2
ENDBRANCH   7  11
TORSDOF 8
ENDMDL
