MODEL 1
REMARK VINA RESULT:      -6.8      0.000      0.000
REMARK  Name = 40779453
REMARK  7 active torsions:
REMARK  status: ('A' for Active; 'I' for Inactive)
REMARK    1  A    between atoms: N_3  and  C_17
REMARK    2  A    between atoms: N_4  and  C_14
REMARK    3  A    between atoms: C_7  and  C_13
REMARK    4  A    between atoms: C_8  and  C_14
REMARK    5  A    between atoms: C_16  and  C_19
REMARK    6  A    between atoms: C_18  and  C_20
REMARK    7  A    between atoms: C_31  and  C_35
REMARK                            x       y       z     vdW  Elec       q    Type
REMARK                         _______ _______ _______ _____ _____    ______ ____
ROOT
ATOM      2  N   UNL     1      -6.010 -10.441  18.145  0.00  0.00    -0.297 NA
ATOM      6  C   UNL     1      -4.607 -12.340  17.047  0.00  0.00    +0.002 C 
ATOM      7  C   UNL     1      -4.105 -10.949  16.572  0.00  0.00    +0.055 C 
ATOM      8  C   UNL     1      -6.913 -11.459  17.547  0.00  0.00    +0.074 C 
ATOM      9  C   UNL     1      -6.107 -12.481  16.716  0.00  0.00    +0.024 C 
ATOM     10  C   UNL     1      -4.477 -12.359  18.584  0.00  0.00    +0.019 C 
ATOM     11  C   UNL     1      -5.108  -9.887  17.104  0.00  0.00    +0.094 C 
ATOM     12  C   UNL     1      -5.176 -11.117  19.167  0.00  0.00    +0.085 C 
ENDROOT
BRANCH   7  13
ATOM      3  N   UNL     1      -2.528 -10.640  14.607  0.00  0.00    -0.270 N 
ATOM      5  N   UNL     1      -2.470 -10.482  13.273  0.00  0.00    -0.171 NA
ATOM     13  C   UNL     1      -3.796 -10.762  15.093  0.00  0.00    +0.044 A 
ATOM     15  C   UNL     1      -4.626 -10.679  14.001  0.00  0.00    +0.053 A 
ATOM     16  C   UNL     1      -3.754 -10.507  12.909  0.00  0.00    +0.093 A 
ATOM     17  C   UNL     1      -1.301 -10.661  15.369  0.00  0.00    +0.172 C 
BRANCH  16  19
ATOM     19  C   UNL     1      -4.125 -10.365  11.526  0.00  0.00    +0.003 A 
ATOM     21  C   UNL     1      -3.930 -11.424  10.639  0.00  0.00    +0.018 A 
ATOM     22  C   UNL     1      -4.680  -9.170  11.073  0.00  0.00    +0.011 A 
ATOM     23  C   UNL     1      -4.287 -11.301   9.286  0.00  0.00    -0.017 A 
ATOM     26  C   UNL     1      -5.040  -9.031   9.732  0.00  0.00    +0.009 A 
ATOM     27  C   UNL     1      -4.851 -10.087   8.826  0.00  0.00    -0.018 A 
ATOM     30  C   UNL     1      -4.097 -12.357   8.380  0.00  0.00    +0.008 A 
ATOM     32  C   UNL     1      -5.207  -9.964   7.474  0.00  0.00    +0.008 A 
ATOM     33  C   UNL     1      -4.458 -12.217   7.039  0.00  0.00    +0.001 A 
ATOM     34  C   UNL     1      -5.011 -11.024   6.587  0.00  0.00    +0.001 A 
ENDBRANCH  16  19
ENDBRANCH   7  13
BRANCH   8  14
ATOM     14  C   UNL     1      -8.045 -10.829  16.734  0.00  0.00    +0.123 C 
BRANCH  14   4
ATOM      1  O   UNL     1      -8.723  -9.171  14.490  0.00  0.00    -0.270 OA
ATOM      4  N   UNL     1      -7.936 -11.178  15.351  0.00  0.00    -0.310 N 
ATOM     18  C   UNL     1      -8.289 -10.307  14.320  0.00  0.00    +0.244 C 
ATOM     36  H   UNL     1      -7.667 -12.132  15.142  0.00  0.00    +0.149 HD
BRANCH  18  20
ATOM     20  C   UNL     1      -8.143 -10.829  12.937  0.00  0.00    +0.037 A 
ATOM     24  C   UNL     1      -7.711 -12.138  12.726  0.00  0.00    +0.013 A 
ATOM     25  C   UNL     1      -8.438 -10.008  11.849  0.00  0.00    +0.013 A 
ATOM     28  C   UNL     1      -7.574 -12.626  11.427  0.00  0.00    +0.004 A 
ATOM     29  C   UNL     1      -8.300 -10.496  10.549  0.00  0.00    +0.004 A 
ATOM     31  C   UNL     1      -7.869 -11.805  10.338  0.00  0.00    -0.050 A 
ATOM     35  C   UNL     1      -7.722 -12.328   8.950  0.00  0.00    +0.044 C 
ENDBRANCH  18  20
ENDBRANCH  14   4
ENDBRANCH   8  14
TORSDOF 5
ENDMDL
MODEL 2
REMARK VINA RESULT:      -6.8      2.053      4.202
REMARK  Name = 40779453
REMARK  7 active torsions:
REMARK  status: ('A' for Active; 'I' for Inactive)
REMARK    1  A    between atoms: N_3  and  C_17
REMARK    2  A    between atoms: N_4  and  C_14
REMARK    3  A    between atoms: C_7  and  C_13
REMARK    4  A    between atoms: C_8  and  C_14
REMARK    5  A    between atoms: C_16  and  C_19
REMARK    6  A    between atoms: C_18  and  C_20
REMARK    7  A    between atoms: C_31  and  C_35
REMARK                            x       y       z     vdW  Elec       q    Type
REMARK                         _______ _______ _______ _____ _____    ______ ____
ROOT
ATOM      2  N   UNL     1      -6.906 -12.924  18.561  0.00  0.00    -0.297 NA
ATOM      6  C   UNL     1      -6.741 -10.348  18.216  0.00  0.00    +0.002 C 
ATOM      7  C   UNL     1      -7.736 -10.970  17.198  0.00  0.00    +0.055 C 
ATOM      8  C   UNL     1      -5.481 -12.513  18.475  0.00  0.00    +0.074 C 
ATOM      9  C   UNL     1      -5.365 -11.029  18.067  0.00  0.00    +0.024 C 
ATOM     10  C   UNL     1      -7.269 -10.697  19.624  0.00  0.00    +0.019 C 
ATOM     11  C   UNL     1      -7.628 -12.516  17.331  0.00  0.00    +0.094 C 
ATOM     12  C   UNL     1      -7.516 -12.214  19.712  0.00  0.00    +0.085 C 
ENDROOT
BRANCH   7  13
ATOM      3  N   UNL     1      -8.647  -9.772  15.155  0.00  0.00    -0.270 N 
ATOM      5  N   UNL     1      -8.393  -9.466  13.870  0.00  0.00    -0.171 NA
ATOM     13  C   UNL     1      -7.665 -10.508  15.750  0.00  0.00    +0.044 A 
ATOM     15  C   UNL     1      -6.702 -10.696  14.788  0.00  0.00    +0.053 A 
ATOM     16  C   UNL     1      -7.205 -10.033  13.652  0.00  0.00    +0.093 A 
ATOM     17  C   UNL     1      -9.878  -9.319  15.758  0.00  0.00    +0.172 C 
BRANCH  16  19
ATOM     19  C   UNL     1      -6.571  -9.932  12.364  0.00  0.00    +0.003 A 
ATOM     21  C   UNL     1      -6.594 -11.019  11.488  0.00  0.00    +0.018 A 
ATOM     22  C   UNL     1      -5.936  -8.750  11.990  0.00  0.00    +0.011 A 
ATOM     23  C   UNL     1      -5.981 -10.936  10.227  0.00  0.00    -0.017 A 
ATOM     26  C   UNL     1      -5.322  -8.651  10.742  0.00  0.00    +0.009 A 
ATOM     27  C   UNL     1      -5.336  -9.735   9.849  0.00  0.00    -0.018 A 
ATOM     30  C   UNL     1      -5.994 -12.020   9.335  0.00  0.00    +0.008 A 
ATOM     32  C   UNL     1      -4.722  -9.652   8.588  0.00  0.00    +0.008 A 
ATOM     33  C   UNL     1      -5.380 -11.920   8.085  0.00  0.00    +0.001 A 
ATOM     34  C   UNL     1      -4.745 -10.739   7.714  0.00  0.00    +0.001 A 
ENDBRANCH  16  19
ENDBRANCH   7  13
BRANCH   8  14
ATOM     14  C   UNL     1      -4.666 -13.423  17.554  0.00  0.00    +0.123 C 
BRANCH  14   4
ATOM      1  O   UNL     1      -4.603 -14.287  14.817  0.00  0.00    -0.270 OA
ATOM      4  N   UNL     1      -4.149 -12.691  16.440  0.00  0.00    -0.310 N 
ATOM     18  C   UNL     1      -4.158 -13.188  15.137  0.00  0.00    +0.244 C 
ATOM     36  H   UNL     1      -3.687 -11.813  16.646  0.00  0.00    +0.149 HD
BRANCH  18  20
ATOM     20  C   UNL     1      -3.559 -12.317  14.094  0.00  0.00    +0.037 A 
ATOM     24  C   UNL     1      -3.526 -12.739  12.765  0.00  0.00    +0.013 A 
ATOM     25  C   UNL     1      -3.030 -11.074  14.445  0.00  0.00    +0.013 A 
ATOM     28  C   UNL     1      -2.963 -11.919  11.787  0.00  0.00    +0.004 A 
ATOM     29  C   UNL     1      -2.466 -10.255  13.467  0.00  0.00    +0.004 A 
ATOM     31  C   UNL     1      -2.433 -10.677  12.138  0.00  0.00    -0.050 A 
ATOM     35  C   UNL     1      -1.832  -9.802  11.091  0.00  0.00    +0.044 C 
ENDBRANCH  18  20
ENDBRANCH  14   4
ENDBRANCH   8  14
TORSDOF 5
ENDMDL
MODEL 3
REMARK VINA RESULT:      -6.7      3.225      6.226
REMARK  Name = 40779453
REMARK  7 active torsions:
REMARK  status: ('A' for Active; 'I' for Inactive)
REMARK    1  A    between atoms: N_3  and  C_17
REMARK    2  A    between atoms: N_4  and  C_14
REMARK    3  A    between atoms: C_7  and  C_13
REMARK    4  A    between atoms: C_8  and  C_14
REMARK    5  A    between atoms: C_16  and  C_19
REMARK    6  A    between atoms: C_18  and  C_20
REMARK    7  A    between atoms: C_31  and  C_35
REMARK                            x       y       z     vdW  Elec       q    Type
REMARK                         _______ _______ _______ _____ _____    ______ ____
ROOT
ATOM      2  N   UNL     1     -11.802  -9.509  17.154  0.00  0.00    -0.297 NA
ATOM      6  C   UNL     1     -10.471  -7.769  15.746  0.00  0.00    +0.002 C 
ATOM      7  C   UNL     1     -10.678  -9.079  14.937  0.00  0.00    +0.055 C 
ATOM      8  C   UNL     1     -10.670  -8.969  17.951  0.00  0.00    +0.074 C 
ATOM      9  C   UNL     1      -9.751  -8.095  17.070  0.00  0.00    +0.024 C 
ATOM     10  C   UNL     1     -11.877  -7.245  16.110  0.00  0.00    +0.019 C 
ATOM     11  C   UNL     1     -11.294 -10.129  15.904  0.00  0.00    +0.094 C 
ATOM     12  C   UNL     1     -12.680  -8.374  16.782  0.00  0.00    +0.085 C 
ENDROOT
BRANCH   7  13
ATOM      3  N   UNL     1      -9.590 -10.056  12.862  0.00  0.00    -0.270 N 
ATOM      5  N   UNL     1      -8.432 -10.514  12.355  0.00  0.00    -0.171 NA
ATOM     13  C   UNL     1      -9.495  -9.636  14.156  0.00  0.00    +0.044 A 
ATOM     15  C   UNL     1      -8.186  -9.834  14.521  0.00  0.00    +0.053 A 
ATOM     16  C   UNL     1      -7.579 -10.376  13.372  0.00  0.00    +0.093 A 
ATOM     17  C   UNL     1     -10.771 -10.053  12.032  0.00  0.00    +0.172 C 
BRANCH  16  19
ATOM     19  C   UNL     1      -6.200 -10.765  13.229  0.00  0.00    +0.003 A 
ATOM     21  C   UNL     1      -5.741 -11.939  13.828  0.00  0.00    +0.018 A 
ATOM     22  C   UNL     1      -5.325  -9.970  12.494  0.00  0.00    +0.011 A 
ATOM     23  C   UNL     1      -4.400 -12.333  13.697  0.00  0.00    -0.017 A 
ATOM     26  C   UNL     1      -3.989 -10.346  12.354  0.00  0.00    +0.009 A 
ATOM     27  C   UNL     1      -3.511 -11.525  12.949  0.00  0.00    -0.018 A 
ATOM     30  C   UNL     1      -3.921 -13.511  14.294  0.00  0.00    +0.008 A 
ATOM     32  C   UNL     1      -2.169 -11.918  12.820  0.00  0.00    +0.008 A 
ATOM     33  C   UNL     1      -2.584 -13.886  14.153  0.00  0.00    +0.001 A 
ATOM     34  C   UNL     1      -1.711 -13.092  13.418  0.00  0.00    +0.001 A 
ENDBRANCH  16  19
ENDBRANCH   7  13
BRANCH   8  14
ATOM     14  C   UNL     1      -9.890 -10.069  18.674  0.00  0.00    +0.123 C 
BRANCH  14   4
ATOM      1  O   UNL     1      -7.656 -11.332  19.963  0.00  0.00    -0.270 OA
ATOM      4  N   UNL     1      -8.554 -10.163  18.170  0.00  0.00    -0.310 N 
ATOM     18  C   UNL     1      -7.525 -10.797  18.865  0.00  0.00    +0.244 C 
ATOM     36  H   UNL     1      -8.356  -9.667  17.308  0.00  0.00    +0.149 HD
BRANCH  18  20
ATOM     20  C   UNL     1      -6.188 -10.787  18.219  0.00  0.00    +0.037 A 
ATOM     24  C   UNL     1      -5.180 -11.630  18.686  0.00  0.00    +0.013 A 
ATOM     25  C   UNL     1      -5.941  -9.933  17.143  0.00  0.00    +0.013 A 
ATOM     28  C   UNL     1      -3.924 -11.618  18.078  0.00  0.00    +0.004 A 
ATOM     29  C   UNL     1      -4.686  -9.922  16.535  0.00  0.00    +0.004 A 
ATOM     31  C   UNL     1      -3.677 -10.764  17.002  0.00  0.00    -0.050 A 
ATOM     35  C   UNL     1      -2.335 -10.753  16.354  0.00  0.00    +0.044 C 
ENDBRANCH  18  20
ENDBRANCH  14   4
ENDBRANCH   8  14
TORSDOF 5
ENDMDL
MODEL 4
REMARK VINA RESULT:      -6.4     22.338     25.581
REMARK  Name = 40779453
REMARK  7 active torsions:
REMARK  status: ('A' for Active; 'I' for Inactive)
REMARK    1  A    between atoms: N_3  and  C_17
REMARK    2  A    between atoms: N_4  and  C_14
REMARK    3  A    between atoms: C_7  and  C_13
REMARK    4  A    between atoms: C_8  and  C_14
REMARK    5  A    between atoms: C_16  and  C_19
REMARK    6  A    between atoms: C_18  and  C_20
REMARK    7  A    between atoms: C_31  and  C_35
REMARK                            x       y       z     vdW  Elec       q    Type
REMARK                         _______ _______ _______ _____ _____    ______ ____
ROOT
ATOM      2  N   UNL     1      -6.953  -7.169  41.376  0.00  0.00    -0.297 NA
ATOM      6  C   UNL     1      -8.229  -6.433  39.229  0.00  0.00    +0.002 C 
ATOM      7  C   UNL     1      -9.144  -7.304  40.133  0.00  0.00    +0.055 C 
ATOM      8  C   UNL     1      -6.132  -7.460  40.172  0.00  0.00    +0.074 C 
ATOM      9  C   UNL     1      -6.950  -7.224  38.884  0.00  0.00    +0.024 C 
ATOM     10  C   UNL     1      -7.797  -5.216  40.074  0.00  0.00    +0.019 C 
ATOM     11  C   UNL     1      -8.260  -7.867  41.282  0.00  0.00    +0.094 C 
ATOM     12  C   UNL     1      -7.210  -5.709  41.410  0.00  0.00    +0.085 C 
ENDROOT
BRANCH   7  13
ATOM      3  N   UNL     1     -11.235  -8.725  39.909  0.00  0.00    -0.270 N 
ATOM      5  N   UNL     1     -11.814  -9.702  39.190  0.00  0.00    -0.171 NA
ATOM     13  C   UNL     1      -9.989  -8.384  39.472  0.00  0.00    +0.044 A 
ATOM     15  C   UNL     1      -9.736  -9.194  38.392  0.00  0.00    +0.053 A 
ATOM     16  C   UNL     1     -10.894  -9.984  38.265  0.00  0.00    +0.093 A 
ATOM     17  C   UNL     1     -11.949  -8.154  41.028  0.00  0.00    +0.172 C 
BRANCH  16  19
ATOM     19  C   UNL     1     -11.137 -11.004  37.278  0.00  0.00    +0.003 A 
ATOM     21  C   UNL     1     -12.201 -10.872  36.387  0.00  0.00    +0.018 A 
ATOM     22  C   UNL     1     -10.308 -12.121  37.214  0.00  0.00    +0.011 A 
ATOM     23  C   UNL     1     -12.451 -11.857  35.418  0.00  0.00    -0.017 A 
ATOM     26  C   UNL     1     -10.542 -13.110  36.258  0.00  0.00    +0.009 A 
ATOM     27  C   UNL     1     -11.609 -12.993  35.353  0.00  0.00    -0.018 A 
ATOM     30  C   UNL     1     -13.519 -11.741  34.513  0.00  0.00    +0.008 A 
ATOM     32  C   UNL     1     -11.859 -13.979  34.384  0.00  0.00    +0.008 A 
ATOM     33  C   UNL     1     -13.752 -12.730  33.556  0.00  0.00    +0.001 A 
ATOM     34  C   UNL     1     -12.924 -13.846  33.493  0.00  0.00    +0.001 A 
ENDBRANCH  16  19
ENDBRANCH   7  13
BRANCH   8  14
ATOM     14  C   UNL     1      -5.520  -8.862  40.210  0.00  0.00    +0.123 C 
BRANCH  14   4
ATOM      1  O   UNL     1      -4.703 -11.537  39.562  0.00  0.00    -0.270 OA
ATOM      4  N   UNL     1      -5.943  -9.634  39.082  0.00  0.00    -0.310 N 
ATOM     18  C   UNL     1      -5.494 -10.932  38.842  0.00  0.00    +0.244 C 
ATOM     36  H   UNL     1      -6.528  -9.164  38.401  0.00  0.00    +0.149 HD
BRANCH  18  20
ATOM     20  C   UNL     1      -6.006 -11.591  37.614  0.00  0.00    +0.037 A 
ATOM     24  C   UNL     1      -5.637 -12.903  37.318  0.00  0.00    +0.013 A 
ATOM     25  C   UNL     1      -6.858 -10.896  36.755  0.00  0.00    +0.013 A 
ATOM     28  C   UNL     1      -6.118 -13.519  36.163  0.00  0.00    +0.004 A 
ATOM     29  C   UNL     1      -7.339 -11.512  35.600  0.00  0.00    +0.004 A 
ATOM     31  C   UNL     1      -6.970 -12.824  35.304  0.00  0.00    -0.050 A 
ATOM     35  C   UNL     1      -7.484 -13.485  34.070  0.00  0.00    +0.044 C 
ENDBRANCH  18  20
ENDBRANCH  14   4
ENDBRANCH   8  14
TORSDOF 5
ENDMDL
MODEL 5
REMARK VINA RESULT:      -6.4     26.134     28.628
REMARK  Name = 40779453
REMARK  7 active torsions:
REMARK  status: ('A' for Active; 'I' for Inactive)
REMARK    1  A    between atoms: N_3  and  C_17
REMARK    2  A    between atoms: N_4  and  C_14
REMARK    3  A    between atoms: C_7  and  C_13
REMARK    4  A    between atoms: C_8  and  C_14
REMARK    5  A    between atoms: C_16  and  C_19
REMARK    6  A    between atoms: C_18  and  C_20
REMARK    7  A    between atoms: C_31  and  C_35
REMARK                            x       y       z     vdW  Elec       q    Type
REMARK                         _______ _______ _______ _____ _____    ______ ____
ROOT
ATOM      2  N   UNL     1      17.842  -3.290  32.282  0.00  0.00    -0.297 NA
ATOM      6  C   UNL     1      15.548  -3.663  31.107  0.00  0.00    +0.002 C 
ATOM      7  C   UNL     1      16.495  -4.868  30.847  0.00  0.00    +0.055 C 
ATOM      8  C   UNL     1      17.477  -2.089  31.488  0.00  0.00    +0.074 C 
ATOM      9  C   UNL     1      16.229  -2.366  30.623  0.00  0.00    +0.024 C 
ATOM     10  C   UNL     1      15.387  -3.547  32.638  0.00  0.00    +0.019 C 
ATOM     11  C   UNL     1      17.896  -4.485  31.403  0.00  0.00    +0.094 C 
ATOM     12  C   UNL     1      16.779  -3.508  33.293  0.00  0.00    +0.085 C 
ENDROOT
BRANCH   7  13
ATOM      3  N   UNL     1      15.708  -6.384  28.970  0.00  0.00    -0.270 N 
ATOM      5  N   UNL     1      15.940  -6.750  27.698  0.00  0.00    -0.171 NA
ATOM     13  C   UNL     1      16.567  -5.433  29.436  0.00  0.00    +0.044 A 
ATOM     15  C   UNL     1      17.422  -5.158  28.396  0.00  0.00    +0.053 A 
ATOM     16  C   UNL     1      16.988  -5.998  27.353  0.00  0.00    +0.093 A 
ATOM     17  C   UNL     1      14.623  -7.003  29.695  0.00  0.00    +0.172 C 
BRANCH  16  19
ATOM     19  C   UNL     1      17.557  -6.097  26.034  0.00  0.00    +0.003 A 
ATOM     21  C   UNL     1      18.924  -5.887  25.846  0.00  0.00    +0.018 A 
ATOM     22  C   UNL     1      16.743  -6.401  24.946  0.00  0.00    +0.011 A 
ATOM     23  C   UNL     1      19.494  -5.980  24.566  0.00  0.00    -0.017 A 
ATOM     26  C   UNL     1      17.293  -6.498  23.667  0.00  0.00    +0.009 A 
ATOM     27  C   UNL     1      18.666  -6.290  23.461  0.00  0.00    -0.018 A 
ATOM     30  C   UNL     1      20.867  -5.771  24.359  0.00  0.00    +0.008 A 
ATOM     32  C   UNL     1      19.236  -6.382  22.180  0.00  0.00    +0.008 A 
ATOM     33  C   UNL     1      21.416  -5.868  23.080  0.00  0.00    +0.001 A 
ATOM     34  C   UNL     1      20.603  -6.172  21.994  0.00  0.00    +0.001 A 
ENDBRANCH  16  19
ENDBRANCH   7  13
BRANCH   8  14
ATOM     14  C   UNL     1      18.646  -1.566  30.651  0.00  0.00    +0.123 C 
BRANCH  14   4
ATOM      1  O   UNL     1      20.620  -2.133  28.643  0.00  0.00    -0.270 OA
ATOM      4  N   UNL     1      18.409  -1.776  29.256  0.00  0.00    -0.310 N 
ATOM     18  C   UNL     1      19.431  -2.047  28.346  0.00  0.00    +0.244 C 
ATOM     36  H   UNL     1      17.461  -1.633  28.928  0.00  0.00    +0.149 HD
BRANCH  18  20
ATOM     20  C   UNL     1      19.024  -2.213  26.928  0.00  0.00    +0.037 A 
ATOM     24  C   UNL     1      19.990  -2.226  25.921  0.00  0.00    +0.013 A 
ATOM     25  C   UNL     1      17.675  -2.357  26.602  0.00  0.00    +0.013 A 
ATOM     28  C   UNL     1      19.606  -2.381  24.589  0.00  0.00    +0.004 A 
ATOM     29  C   UNL     1      17.292  -2.513  25.270  0.00  0.00    +0.004 A 
ATOM     31  C   UNL     1      18.257  -2.525  24.263  0.00  0.00    -0.050 A 
ATOM     35  C   UNL     1      17.848  -2.692  22.839  0.00  0.00    +0.044 C 
ENDBRANCH  18  20
ENDBRANCH  14   4
ENDBRANCH   8  14
TORSDOF 5
ENDMDL
MODEL 6
REMARK VINA RESULT:      -6.4     22.198     25.813
REMARK  Name = 40779453
REMARK  7 active torsions:
REMARK  status: ('A' for Active; 'I' for Inactive)
REMARK    1  A    between atoms: N_3  and  C_17
REMARK    2  A    between atoms: N_4  and  C_14
REMARK    3  A    between atoms: C_7  and  C_13
REMARK    4  A    between atoms: C_8  and  C_14
REMARK    5  A    between atoms: C_16  and  C_19
REMARK    6  A    between atoms: C_18  and  C_20
REMARK    7  A    between atoms: C_31  and  C_35
REMARK                            x       y       z     vdW  Elec       q    Type
REMARK                         _______ _______ _______ _____ _____    ______ ____
ROOT
ATOM      2  N   UNL     1       5.855  -3.762  38.469  0.00  0.00    -0.297 NA
ATOM      6  C   UNL     1       8.140  -5.012  38.483  0.00  0.00    +0.002 C 
ATOM      7  C   UNL     1       7.857  -4.410  37.078  0.00  0.00    +0.055 C 
ATOM      8  C   UNL     1       5.688  -5.119  39.050  0.00  0.00    +0.074 C 
ATOM      9  C   UNL     1       6.979  -5.948  38.879  0.00  0.00    +0.024 C 
ATOM     10  C   UNL     1       8.134  -3.834  39.480  0.00  0.00    +0.019 C 
ATOM     11  C   UNL     1       6.402  -3.862  37.093  0.00  0.00    +0.094 C 
ATOM     12  C   UNL     1       6.835  -3.026  39.304  0.00  0.00    +0.085 C 
ENDROOT
BRANCH   7  13
ATOM      3  N   UNL     1       9.348  -5.305  35.230  0.00  0.00    -0.270 N 
ATOM      5  N   UNL     1       9.390  -6.132  34.170  0.00  0.00    -0.171 NA
ATOM     13  C   UNL     1       8.137  -5.274  35.857  0.00  0.00    +0.044 A 
ATOM     15  C   UNL     1       7.331  -6.140  35.158  0.00  0.00    +0.053 A 
ATOM     16  C   UNL     1       8.155  -6.638  34.132  0.00  0.00    +0.093 A 
ATOM     17  C   UNL     1      10.531  -4.559  35.589  0.00  0.00    +0.172 C 
BRANCH  16  19
ATOM     19  C   UNL     1       7.784  -7.587  33.115  0.00  0.00    +0.003 A 
ATOM     21  C   UNL     1       8.616  -8.672  32.837  0.00  0.00    +0.018 A 
ATOM     22  C   UNL     1       6.595  -7.423  32.410  0.00  0.00    +0.011 A 
ATOM     23  C   UNL     1       8.269  -9.607  31.848  0.00  0.00    -0.017 A 
ATOM     26  C   UNL     1       6.234  -8.342  31.424  0.00  0.00    +0.009 A 
ATOM     27  C   UNL     1       7.060  -9.440  31.132  0.00  0.00    -0.018 A 
ATOM     30  C   UNL     1       9.095 -10.704  31.555  0.00  0.00    +0.008 A 
ATOM     32  C   UNL     1       6.713 -10.375  30.143  0.00  0.00    +0.008 A 
ATOM     33  C   UNL     1       8.734 -11.624  30.570  0.00  0.00    +0.001 A 
ATOM     34  C   UNL     1       7.546 -11.459  29.865  0.00  0.00    +0.001 A 
ENDBRANCH  16  19
ENDBRANCH   7  13
BRANCH   8  14
ATOM     14  C   UNL     1       4.465  -5.847  38.490  0.00  0.00    +0.123 C 
BRANCH  14   4
ATOM      1  O   UNL     1       3.212  -8.410  38.161  0.00  0.00    -0.270 OA
ATOM      4  N   UNL     1       4.857  -6.879  37.580  0.00  0.00    -0.310 N 
ATOM     18  C   UNL     1       4.189  -8.100  37.485  0.00  0.00    +0.244 C 
ATOM     36  H   UNL     1       5.709  -6.723  37.053  0.00  0.00    +0.149 HD
BRANCH  18  20
ATOM     20  C   UNL     1       4.736  -9.077  36.509  0.00  0.00    +0.037 A 
ATOM     24  C   UNL     1       6.111  -9.301  36.441  0.00  0.00    +0.013 A 
ATOM     25  C   UNL     1       3.873  -9.771  35.661  0.00  0.00    +0.013 A 
ATOM     28  C   UNL     1       6.622 -10.219  35.523  0.00  0.00    +0.004 A 
ATOM     29  C   UNL     1       4.384 -10.688  34.743  0.00  0.00    +0.004 A 
ATOM     31  C   UNL     1       5.759 -10.913  34.675  0.00  0.00    -0.050 A 
ATOM     35  C   UNL     1       6.308 -11.894  33.695  0.00  0.00    +0.044 C 
ENDBRANCH  18  20
ENDBRANCH  14   4
ENDBRANCH   8  14
TORSDOF 5
ENDMDL
MODEL 7
REMARK VINA RESULT:      -6.3     24.609     27.638
REMARK  Name = 40779453
REMARK  7 active torsions:
REMARK  status: ('A' for Active; 'I' for Inactive)
REMARK    1  A    between atoms: N_3  and  C_17
REMARK    2  A    between atoms: N_4  and  C_14
REMARK    3  A    between atoms: C_7  and  C_13
REMARK    4  A    between atoms: C_8  and  C_14
REMARK    5  A    between atoms: C_16  and  C_19
REMARK    6  A    between atoms: C_18  and  C_20
REMARK    7  A    between atoms: C_31  and  C_35
REMARK                            x       y       z     vdW  Elec       q    Type
REMARK                         _______ _______ _______ _____ _____    ______ ____
ROOT
ATOM      2  N   UNL     1      15.020   3.953  -0.295  0.00  0.00    -0.297 NA
ATOM      6  C   UNL     1      14.996   6.556  -0.341  0.00  0.00    +0.002 C 
ATOM      7  C   UNL     1      15.430   6.041   1.059  0.00  0.00    +0.055 C 
ATOM      8  C   UNL     1      13.730   4.439  -0.849  0.00  0.00    +0.074 C 
ATOM      9  C   UNL     1      13.613   5.971  -0.695  0.00  0.00    +0.024 C 
ATOM     10  C   UNL     1      16.005   5.983  -1.358  0.00  0.00    +0.019 C 
ATOM     11  C   UNL     1      15.226   4.500   1.069  0.00  0.00    +0.094 C 
ATOM     12  C   UNL     1      16.109   4.459  -1.165  0.00  0.00    +0.085 C 
ENDROOT
BRANCH   7  13
ATOM      3  N   UNL     1      15.514   7.616   3.047  0.00  0.00    -0.270 N 
ATOM      5  N   UNL     1      14.810   8.091   4.089  0.00  0.00    -0.171 NA
ATOM     13  C   UNL     1      14.832   6.712   2.288  0.00  0.00    +0.044 A 
ATOM     15  C   UNL     1      13.596   6.586   2.874  0.00  0.00    +0.053 A 
ATOM     16  C   UNL     1      13.640   7.458   3.978  0.00  0.00    +0.093 A 
ATOM     17  C   UNL     1      16.865   8.083   2.838  0.00  0.00    +0.172 C 
BRANCH  16  19
ATOM     19  C   UNL     1      12.585   7.697   4.928  0.00  0.00    +0.003 A 
ATOM     21  C   UNL     1      12.133   6.659   5.744  0.00  0.00    +0.018 A 
ATOM     22  C   UNL     1      12.017   8.964   5.034  0.00  0.00    +0.011 A 
ATOM     23  C   UNL     1      11.105   6.876   6.676  0.00  0.00    -0.017 A 
ATOM     26  C   UNL     1      10.996   9.197   5.955  0.00  0.00    +0.009 A 
ATOM     27  C   UNL     1      10.529   8.164   6.783  0.00  0.00    -0.018 A 
ATOM     30  C   UNL     1      10.638   5.842   7.504  0.00  0.00    +0.008 A 
ATOM     32  C   UNL     1       9.501   8.381   7.715  0.00  0.00    +0.008 A 
ATOM     33  C   UNL     1       9.616   6.076   8.425  0.00  0.00    +0.001 A 
ATOM     34  C   UNL     1       9.049   7.342   8.530  0.00  0.00    +0.001 A 
ENDBRANCH  16  19
ENDBRANCH   7  13
BRANCH   8  14
ATOM     14  C   UNL     1      12.526   3.712  -0.248  0.00  0.00    +0.123 C 
BRANCH  14   4
ATOM      1  O   UNL     1      11.573   3.333   2.434  0.00  0.00    -0.270 OA
ATOM      4  N   UNL     1      11.707   4.613   0.502  0.00  0.00    -0.310 N 
ATOM     18  C   UNL     1      11.288   4.350   1.806  0.00  0.00    +0.244 C 
ATOM     36  H   UNL     1      11.364   5.432   0.013  0.00  0.00    +0.149 HD
BRANCH  18  20
ATOM     20  C   UNL     1      10.419   5.374   2.439  0.00  0.00    +0.037 A 
ATOM     24  C   UNL     1       9.786   5.101   3.651  0.00  0.00    +0.013 A 
ATOM     25  C   UNL     1      10.237   6.611   1.821  0.00  0.00    +0.013 A 
ATOM     28  C   UNL     1       8.969   6.064   4.244  0.00  0.00    +0.004 A 
ATOM     29  C   UNL     1       9.420   7.575   2.414  0.00  0.00    +0.004 A 
ATOM     31  C   UNL     1       8.787   7.301   3.626  0.00  0.00    -0.050 A 
ATOM     35  C   UNL     1       7.914   8.329   4.261  0.00  0.00    +0.044 C 
ENDBRANCH  18  20
ENDBRANCH  14   4
ENDBRANCH   8  14
TORSDOF 5
ENDMDL
MODEL 8
REMARK VINA RESULT:      -6.3      2.256      8.017
REMARK  Name = 40779453
REMARK  7 active torsions:
REMARK  status: ('A' for Active; 'I' for Inactive)
REMARK    1  A    between atoms: N_3  and  C_17
REMARK    2  A    between atoms: N_4  and  C_14
REMARK    3  A    between atoms: C_7  and  C_13
REMARK    4  A    between atoms: C_8  and  C_14
REMARK    5  A    between atoms: C_16  and  C_19
REMARK    6  A    between atoms: C_18  and  C_20
REMARK    7  A    between atoms: C_31  and  C_35
REMARK                            x       y       z     vdW  Elec       q    Type
REMARK                         _______ _______ _______ _____ _____    ______ ____
ROOT
ATOM      2  N   UNL     1      -3.685  -9.002  10.150  0.00  0.00    -0.297 NA
ATOM      6  C   UNL     1      -5.573 -10.786   9.953  0.00  0.00    +0.002 C 
ATOM      7  C   UNL     1      -6.104  -9.507  10.659  0.00  0.00    +0.055 C 
ATOM      8  C   UNL     1      -3.198 -10.315  10.647  0.00  0.00    +0.074 C 
ATOM      9  C   UNL     1      -4.357 -11.331  10.732  0.00  0.00    +0.024 C 
ATOM     10  C   UNL     1      -5.063 -10.347   8.564  0.00  0.00    +0.019 C 
ATOM     11  C   UNL     1      -4.883  -8.580  10.918  0.00  0.00    +0.094 C 
ATOM     12  C   UNL     1      -4.083  -9.172   8.731  0.00  0.00    +0.085 C 
ENDROOT
BRANCH   7  13
ATOM      3  N   UNL     1      -8.336  -9.690  11.852  0.00  0.00    -0.270 N 
ATOM      5  N   UNL     1      -8.917  -9.851  13.054  0.00  0.00    -0.171 NA
ATOM     13  C   UNL     1      -6.973  -9.678  11.897  0.00  0.00    +0.044 A 
ATOM     15  C   UNL     1      -6.640  -9.843  13.219  0.00  0.00    +0.053 A 
ATOM     16  C   UNL     1      -7.876  -9.944  13.884  0.00  0.00    +0.093 A 
ATOM     17  C   UNL     1      -9.168  -9.547  10.680  0.00  0.00    +0.172 C 
BRANCH  16  19
ATOM     19  C   UNL     1      -8.081 -10.127  15.297  0.00  0.00    +0.003 A 
ATOM     21  C   UNL     1      -9.029 -11.044  15.752  0.00  0.00    +0.018 A 
ATOM     22  C   UNL     1      -7.333  -9.388  16.210  0.00  0.00    +0.011 A 
ATOM     23  C   UNL     1      -9.240 -11.235  17.127  0.00  0.00    -0.017 A 
ATOM     26  C   UNL     1      -7.530  -9.564  17.580  0.00  0.00    +0.009 A 
ATOM     27  C   UNL     1      -8.479 -10.484  18.054  0.00  0.00    -0.018 A 
ATOM     30  C   UNL     1     -10.191 -12.153  17.601  0.00  0.00    +0.008 A 
ATOM     32  C   UNL     1      -8.691 -10.673  19.430  0.00  0.00    +0.008 A 
ATOM     33  C   UNL     1     -10.387 -12.329  18.972  0.00  0.00    +0.001 A 
ATOM     34  C   UNL     1      -9.640 -11.591  19.883  0.00  0.00    +0.001 A 
ENDBRANCH  16  19
ENDBRANCH   7  13
BRANCH   8  14
ATOM     14  C   UNL     1      -2.448 -10.193  11.975  0.00  0.00    +0.123 C 
BRANCH  14   4
ATOM      1  O   UNL     1      -1.776 -10.143  14.766  0.00  0.00    -0.270 OA
ATOM      4  N   UNL     1      -3.218 -10.741  13.048  0.00  0.00    -0.310 N 
ATOM     18  C   UNL     1      -2.816 -10.672  14.382  0.00  0.00    +0.244 C 
ATOM     36  H   UNL     1      -4.045 -11.269  12.793  0.00  0.00    +0.149 HD
BRANCH  18  20
ATOM     20  C   UNL     1      -3.714 -11.313  15.376  0.00  0.00    +0.037 A 
ATOM     24  C   UNL     1      -3.610 -10.982  16.727  0.00  0.00    +0.013 A 
ATOM     25  C   UNL     1      -4.663 -12.247  14.958  0.00  0.00    +0.013 A 
ATOM     28  C   UNL     1      -4.454 -11.585  17.659  0.00  0.00    +0.004 A 
ATOM     29  C   UNL     1      -5.506 -12.850  15.890  0.00  0.00    +0.004 A 
ATOM     31  C   UNL     1      -5.403 -12.519  17.241  0.00  0.00    -0.050 A 
ATOM     35  C   UNL     1      -6.304 -13.163  18.239  0.00  0.00    +0.044 C 
ENDBRANCH  18  20
ENDBRANCH  14   4
ENDBRANCH   8  14
TORSDOF 5
ENDMDL
MODEL 9
REMARK VINA RESULT:      -6.2     24.513     27.148
REMARK  Name = 40779453
REMARK  7 active torsions:
REMARK  status: ('A' for Active; 'I' for Inactive)
REMARK    1  A    between atoms: N_3  and  C_17
REMARK    2  A    between atoms: N_4  and  C_14
REMARK    3  A    between atoms: C_7  and  C_13
REMARK    4  A    between atoms: C_8  and  C_14
REMARK    5  A    between atoms: C_16  and  C_19
REMARK    6  A    between atoms: C_18  and  C_20
REMARK    7  A    between atoms: C_31  and  C_35
REMARK                            x       y       z     vdW  Elec       q    Type
REMARK                         _______ _______ _______ _____ _____    ______ ____
ROOT
ATOM      2  N   UNL     1      11.835   9.300   7.331  0.00  0.00    -0.297 NA
ATOM      6  C   UNL     1       9.910   8.993   5.604  0.00  0.00    +0.002 C 
ATOM      7  C   UNL     1      10.382   7.615   6.144  0.00  0.00    +0.055 C 
ATOM      8  C   UNL     1      12.134  10.069   6.095  0.00  0.00    +0.074 C 
ATOM      9  C   UNL     1      11.113   9.737   4.986  0.00  0.00    +0.024 C 
ATOM     10  C   UNL     1       9.447   9.815   6.825  0.00  0.00    +0.019 C 
ATOM     11  C   UNL     1      11.652   7.864   7.005  0.00  0.00    +0.094 C 
ATOM     12  C   UNL     1      10.561   9.813   7.889  0.00  0.00    +0.085 C 
ENDROOT
BRANCH   7  13
ATOM      3  N   UNL     1      10.293   5.177   5.441  0.00  0.00    -0.270 N 
ATOM      5  N   UNL     1      10.530   4.329   4.425  0.00  0.00    -0.171 NA
ATOM     13  C   UNL     1      10.572   6.480   5.147  0.00  0.00    +0.044 A 
ATOM     15  C   UNL     1      11.022   6.483   3.850  0.00  0.00    +0.053 A 
ATOM     16  C   UNL     1      10.975   5.133   3.457  0.00  0.00    +0.093 A 
ATOM     17  C   UNL     1       9.792   4.658   6.692  0.00  0.00    +0.172 C 
BRANCH  16  19
ATOM     19  C   UNL     1      11.348   4.596   2.174  0.00  0.00    +0.003 A 
ATOM     21  C   UNL     1      10.627   4.949   1.033  0.00  0.00    +0.018 A 
ATOM     22  C   UNL     1      12.429   3.724   2.072  0.00  0.00    +0.011 A 
ATOM     23  C   UNL     1      10.979   4.434  -0.225  0.00  0.00    -0.017 A 
ATOM     26  C   UNL     1      12.793   3.203   0.830  0.00  0.00    +0.009 A 
ATOM     27  C   UNL     1      12.077   3.549  -0.328  0.00  0.00    -0.018 A 
ATOM     30  C   UNL     1      10.263   4.779  -1.383  0.00  0.00    +0.008 A 
ATOM     32  C   UNL     1      12.428   3.033  -1.586  0.00  0.00    +0.008 A 
ATOM     33  C   UNL     1      10.627   4.258  -2.626  0.00  0.00    +0.001 A 
ATOM     34  C   UNL     1      11.706   3.387  -2.727  0.00  0.00    +0.001 A 
ENDBRANCH  16  19
ENDBRANCH   7  13
BRANCH   8  14
ATOM     14  C   UNL     1      13.575   9.871   5.621  0.00  0.00    +0.123 C 
BRANCH  14   4
ATOM      1  O   UNL     1      14.711   7.329   4.921  0.00  0.00    -0.270 OA
ATOM      4  N   UNL     1      13.608   9.280   4.318  0.00  0.00    -0.310 N 
ATOM     18  C   UNL     1      14.182   8.034   4.066  0.00  0.00    +0.244 C 
ATOM     36  H   UNL     1      13.266   9.847   3.551  0.00  0.00    +0.149 HD
BRANCH  18  20
ATOM     20  C   UNL     1      14.159   7.571   2.656  0.00  0.00    +0.037 A 
ATOM     24  C   UNL     1      15.042   6.578   2.232  0.00  0.00    +0.013 A 
ATOM     25  C   UNL     1      13.252   8.129   1.754  0.00  0.00    +0.013 A 
ATOM     28  C   UNL     1      15.020   6.144   0.906  0.00  0.00    +0.004 A 
ATOM     29  C   UNL     1      13.229   7.695   0.428  0.00  0.00    +0.004 A 
ATOM     31  C   UNL     1      14.113   6.703   0.004  0.00  0.00    -0.050 A 
ATOM     35  C   UNL     1      14.090   6.237  -1.412  0.00  0.00    +0.044 C 
ENDBRANCH  18  20
ENDBRANCH  14   4
ENDBRANCH   8  14
TORSDOF 5
ENDMDL
MODEL 10
REMARK VINA RESULT:      -6.2     26.076     29.100
REMARK  Name = 40779453
REMARK  7 active torsions:
REMARK  status: ('A' for Active; 'I' for Inactive)
REMARK    1  A    between atoms: N_3  and  C_17
REMARK    2  A    between atoms: N_4  and  C_14
REMARK    3  A    between atoms: C_7  and  C_13
REMARK    4  A    between atoms: C_8  and  C_14
REMARK    5  A    between atoms: C_16  and  C_19
REMARK    6  A    between atoms: C_18  and  C_20
REMARK    7  A    between atoms: C_31  and  C_35
REMARK                            x       y       z     vdW  Elec       q    Type
REMARK                         _______ _______ _______ _____ _____    ______ ____
ROOT
ATOM      2  N   UNL     1      18.317  -3.272  22.883  0.00  0.00    -0.297 NA
ATOM      6  C   UNL     1      16.743  -1.960  24.490  0.00  0.00    +0.002 C 
ATOM      7  C   UNL     1      18.194  -1.981  25.047  0.00  0.00    +0.055 C 
ATOM      8  C   UNL     1      17.102  -4.076  23.172  0.00  0.00    +0.074 C 
ATOM      9  C   UNL     1      16.257  -3.409  24.279  0.00  0.00    +0.024 C 
ATOM     10  C   UNL     1      16.811  -1.297  23.098  0.00  0.00    +0.019 C 
ATOM     11  C   UNL     1      19.021  -2.943  24.148  0.00  0.00    +0.094 C 
ATOM     12  C   UNL     1      17.884  -2.003  22.251  0.00  0.00    +0.085 C 
ENDROOT
BRANCH   7  13
ATOM      3  N   UNL     1      19.506  -1.886  27.217  0.00  0.00    -0.270 N 
ATOM      5  N   UNL     1      19.485  -2.230  28.516  0.00  0.00    -0.171 NA
ATOM     13  C   UNL     1      18.390  -2.263  26.530  0.00  0.00    +0.044 A 
ATOM     15  C   UNL     1      17.584  -2.899  27.442  0.00  0.00    +0.053 A 
ATOM     16  C   UNL     1      18.310  -2.848  28.648  0.00  0.00    +0.093 A 
ATOM     17  C   UNL     1      20.654  -1.185  26.691  0.00  0.00    +0.172 C 
BRANCH  16  19
ATOM     19  C   UNL     1      17.900  -3.380  29.921  0.00  0.00    +0.003 A 
ATOM     21  C   UNL     1      16.547  -3.427  30.256  0.00  0.00    +0.018 A 
ATOM     22  C   UNL     1      18.856  -3.848  30.820  0.00  0.00    +0.011 A 
ATOM     23  C   UNL     1      16.131  -3.943  31.494  0.00  0.00    -0.017 A 
ATOM     26  C   UNL     1      18.462  -4.364  32.054  0.00  0.00    +0.009 A 
ATOM     27  C   UNL     1      17.103  -4.419  32.406  0.00  0.00    -0.018 A 
ATOM     30  C   UNL     1      14.773  -3.997  31.846  0.00  0.00    +0.008 A 
ATOM     32  C   UNL     1      16.688  -4.934  33.645  0.00  0.00    +0.008 A 
ATOM     33  C   UNL     1      14.379  -4.514  33.081  0.00  0.00    +0.001 A 
ATOM     34  C   UNL     1      15.334  -4.981  33.978  0.00  0.00    +0.001 A 
ENDBRANCH  16  19
ENDBRANCH   7  13
BRANCH   8  14
ATOM     14  C   UNL     1      17.431  -5.532  23.506  0.00  0.00    +0.123 C 
BRANCH  14   4
ATOM      1  O   UNL     1      19.131  -6.114  25.746  0.00  0.00    -0.270 OA
ATOM      4  N   UNL     1      17.012  -5.859  24.834  0.00  0.00    -0.310 N 
ATOM     18  C   UNL     1      17.909  -6.129  25.867  0.00  0.00    +0.244 C 
ATOM     36  H   UNL     1      16.016  -5.974  24.982  0.00  0.00    +0.149 HD
BRANCH  18  20
ATOM     20  C   UNL     1      17.315  -6.478  27.183  0.00  0.00    +0.037 A 
ATOM     24  C   UNL     1      15.929  -6.515  27.336  0.00  0.00    +0.013 A 
ATOM     25  C   UNL     1      18.145  -6.769  28.266  0.00  0.00    +0.013 A 
ATOM     28  C   UNL     1      15.373  -6.843  28.572  0.00  0.00    +0.004 A 
ATOM     29  C   UNL     1      17.589  -7.097  29.502  0.00  0.00    +0.004 A 
ATOM     31  C   UNL     1      16.203  -7.134  29.656  0.00  0.00    -0.050 A 
ATOM     35  C   UNL     1      15.607  -7.485  30.977  0.00  0.00    +0.044 C 
ENDBRANCH  18  20
ENDBRANCH  14   4
ENDBRANCH   8  14
TORSDOF 5
ENDMDL
