REMARK  Name = 40533563
REMARK  2 active torsions:
REMARK  status: ('A' for Active; 'I' for Inactive)
REMARK    1  A    between atoms: N_6  and  C_21
REMARK    2  A    between atoms: C_18  and  C_20
REMARK                            x       y       z     vdW  Elec       q    Type
REMARK                         _______ _______ _______ _____ _____    ______ ____
ROOT
ATOM      2  O   UNL     1      -1.738   0.130   1.982  0.00  0.00    -0.267 OA
ATOM      3  O   UNL     1       2.224  -0.977  -2.115  0.00  0.00    -0.252 OA
ATOM      4  N   UNL     1       1.811  -2.491  -0.415  0.00  0.00    -0.284 N 
ATOM      5  N   UNL     1      -1.072  -1.718   0.725  0.00  0.00    -0.311 N 
ATOM      6  N   UNL     1       3.154  -0.591  -0.026  0.00  0.00    -0.269 N 
ATOM      8  C   UNL     1       0.627  -3.428   1.586  0.00  0.00    +0.027 C 
ATOM      9  C   UNL     1      -0.352  -3.702  -0.650  0.00  0.00    +0.054 C 
ATOM     10  C   UNL     1      -0.102  -4.410   0.678  0.00  0.00    +0.018 C 
ATOM     11  C   UNL     1       1.966  -2.985   0.963  0.00  0.00    +0.114 C 
ATOM     12  C   UNL     1      -0.297  -2.236   1.862  0.00  0.00    +0.130 C 
ATOM     13  C   UNL     1       0.999  -3.343  -1.293  0.00  0.00    +0.119 C 
ATOM     14  C   UNL     1      -1.182  -2.446  -0.462  0.00  0.00    +0.027 A 
ATOM     15  C   UNL     1      -1.991  -2.015  -1.442  0.00  0.00    +0.022 A 
ATOM     16  C   UNL     1      -1.780  -0.519   0.935  0.00  0.00    +0.259 A 
ATOM     17  C   UNL     1       2.385  -1.312  -0.939  0.00  0.00    +0.306 C 
ATOM     18  C   UNL     1      -2.647  -0.041  -0.198  0.00  0.00    +0.048 A 
ATOM     19  C   UNL     1      -2.729  -0.792  -1.307  0.00  0.00    +0.015 A 
ATOM     31  H   UNL     1       3.639  -1.107   0.701  0.00  0.00    +0.156 HD
ENDROOT
BRANCH   6  21
ATOM      1 CL   UNL     1       4.019   5.272   0.093  0.00  0.00    -0.084 Cl
ATOM     21  C   UNL     1       3.361   0.810   0.002  0.00  0.00    +0.035 A 
ATOM     24  C   UNL     1       4.234   1.368   0.937  0.00  0.00    +0.025 A 
ATOM     25  C   UNL     1       2.692   1.632  -0.905  0.00  0.00    +0.025 A 
ATOM     28  C   UNL     1       4.437   2.747   0.965  0.00  0.00    +0.022 A 
ATOM     29  C   UNL     1       2.896   3.012  -0.877  0.00  0.00    +0.022 A 
ATOM     30  C   UNL     1       3.768   3.569   0.058  0.00  0.00    +0.041 A 
ENDBRANCH   6  21
BRANCH  18  20
ATOM      7  N   UNL     1      -5.512   2.386  -0.138  0.00  0.00    -0.263 NA
ATOM     20  C   UNL     1      -3.389   1.229  -0.107  0.00  0.00    +0.005 A 
ATOM     22  C   UNL     1      -2.726   2.435   0.086  0.00  0.00    +0.011 A 
ATOM     23  C   UNL     1      -4.771   1.258  -0.212  0.00  0.00    +0.119 A 
ATOM     26  C   UNL     1      -3.454   3.617   0.168  0.00  0.00    +0.020 A 
ATOM     27  C   UNL     1      -4.832   3.540   0.050  0.00  0.00    +0.111 A 
ENDBRANCH  18  20
TORSDOF 2
