REMARK  Name = 11911962
REMARK  2 active torsions:
REMARK  status: ('A' for Active; 'I' for Inactive)
REMARK    1  A    between atoms: C_13  and  C_14
REMARK    2  A    between atoms: C_22  and  C_24
REMARK                            x       y       z     vdW  Elec       q    Type
REMARK                         _______ _______ _______ _____ _____    ______ ____
ROOT
ATOM      2  O   UNL     1       3.530  -0.883  -2.201  0.00  0.00    -0.275 OA
ATOM      3  O   UNL     1      -1.048   1.807  -1.574  0.00  0.00    -0.267 OA
ATOM      4  N   UNL     1       3.683   0.590  -0.410  0.00  0.00    -0.300 N 
ATOM      5  N   UNL     1       0.797   1.932  -0.151  0.00  0.00    -0.311 N 
ATOM      6  C   UNL     1       3.029   2.955  -0.875  0.00  0.00    +0.027 C 
ATOM      7  C   UNL     1       2.783   2.046   1.396  0.00  0.00    +0.054 C 
ATOM      8  C   UNL     1       3.201   3.282   0.603  0.00  0.00    +0.018 C 
ATOM      9  C   UNL     1       3.908   1.755  -1.268  0.00  0.00    +0.113 C 
ATOM     10  C   UNL     1       3.705   0.865   1.035  0.00  0.00    +0.117 C 
ATOM     11  C   UNL     1       1.544   2.699  -1.157  0.00  0.00    +0.130 C 
ATOM     12  C   UNL     1       1.339   1.675   1.111  0.00  0.00    +0.027 A 
ATOM     14  C   UNL     1       3.546  -0.674  -0.985  0.00  0.00    +0.219 C 
ATOM     17  C   UNL     1       0.595   1.078   2.057  0.00  0.00    +0.022 A 
ATOM     20  C   UNL     1      -0.523   1.568  -0.485  0.00  0.00    +0.260 A 
ATOM     22  C   UNL     1      -1.314   0.867   0.584  0.00  0.00    +0.053 A 
ATOM     23  C   UNL     1      -0.752   0.664   1.784  0.00  0.00    +0.016 A 
ENDROOT
BRANCH  22  24
ATOM      1  S   UNL     1      -2.918  -1.146  -0.285  0.00  0.00    -0.088 S 
ATOM     24  C   UNL     1      -2.649   0.425   0.330  0.00  0.00    +0.026 A 
ATOM     25  C   UNL     1      -3.834   1.107   0.513  0.00  0.00    +0.024 A 
ATOM     26  C   UNL     1      -4.990   0.339   0.147  0.00  0.00    -0.010 A 
ATOM     27  C   UNL     1      -4.629  -0.931  -0.314  0.00  0.00    +0.020 A 
ATOM     28  C   UNL     1      -6.366   0.670   0.185  0.00  0.00    +0.009 A 
ATOM     29  C   UNL     1      -5.596  -1.866  -0.732  0.00  0.00    +0.015 A 
ATOM     30  C   UNL     1      -7.328  -0.255  -0.229  0.00  0.00    +0.001 A 
ATOM     31  C   UNL     1      -6.945  -1.509  -0.682  0.00  0.00    +0.001 A 
ENDBRANCH  22  24
BRANCH  14  13
ATOM     13  C   UNL     1       3.404  -1.830  -0.040  0.00  0.00    +0.075 C 
ATOM     15  C   UNL     1       1.929  -2.041   0.308  0.00  0.00    +0.013 C 
ATOM     16  C   UNL     1       4.019  -3.088  -0.659  0.00  0.00    +0.013 C 
ATOM     18  C   UNL     1       1.728  -3.268   1.194  0.00  0.00    +0.001 C 
ATOM     19  C   UNL     1       3.813  -4.312   0.229  0.00  0.00    +0.001 C 
ATOM     21  C   UNL     1       2.341  -4.519   0.571  0.00  0.00    +0.000 C 
ENDBRANCH  14  13
TORSDOF 2
