REMARK  Name = 26744766
REMARK  4 active torsions:
REMARK  status: ('A' for Active; 'I' for Inactive)
REMARK    1  A    between atoms: N_3  and  C_13
REMARK    2  A    between atoms: C_8  and  C_14
REMARK    3  A    between atoms: C_13  and  C_15
REMARK    4  A    between atoms: C_18  and  C_20
REMARK                            x       y       z     vdW  Elec       q    Type
REMARK                         _______ _______ _______ _____ _____    ______ ____
ROOT
ATOM      3  N   UNL     1       1.915   0.015   0.392  0.00  0.00    -0.281 NA
ATOM      4  N   UNL     1       1.514   3.260  -1.390  0.00  0.00    -0.347 N 
ATOM      5  N   UNL     1       0.749   3.999   0.577  0.00  0.00    -0.240 NA
ATOM      8  C   UNL     1       0.847   0.258   1.409  0.00  0.00    +0.152 C 
ATOM      9  C   UNL     1       0.755   1.776   1.803  0.00  0.00    +0.086 C 
ATOM     10  C   UNL     1       1.768   0.765  -0.873  0.00  0.00    +0.140 C 
ATOM     11  C   UNL     1       1.445   2.176  -0.569  0.00  0.00    +0.053 A 
ATOM     12  C   UNL     1       0.970   2.652   0.627  0.00  0.00    +0.065 A 
ATOM     16  C   UNL     1       1.084   4.336  -0.653  0.00  0.00    +0.197 A 
ATOM     27  H   UNL     1       1.816   3.275  -2.355  0.00  0.00    +0.167 HD
ENDROOT
BRANCH   8  14
ATOM      2  O   UNL     1      -0.686  -1.662   1.457  0.00  0.00    -0.336 OA
ATOM      6  N   UNL     1      -1.556   0.171   0.507  0.00  0.00    -0.190 NA
ATOM      7  N   UNL     1      -1.987  -2.005   1.067  0.00  0.00    -0.056 NA
ATOM     14  C   UNL     1      -0.513  -0.365   1.091  0.00  0.00    +0.245 A 
ATOM     18  C   UNL     1      -2.434  -0.873   0.516  0.00  0.00    +0.202 A 
BRANCH  18  20
ATOM     20  C   UNL     1      -3.753  -0.752  -0.035  0.00  0.00    +0.022 A 
ATOM     22  C   UNL     1      -4.165   0.457  -0.597  0.00  0.00    +0.012 A 
ATOM     23  C   UNL     1      -4.624  -1.841  -0.008  0.00  0.00    +0.012 A 
ATOM     24  C   UNL     1      -5.448   0.576  -1.132  0.00  0.00    +0.001 A 
ATOM     25  C   UNL     1      -5.907  -1.722  -0.543  0.00  0.00    +0.001 A 
ATOM     26  C   UNL     1      -6.319  -0.514  -1.105  0.00  0.00    +0.000 A 
ENDBRANCH  18  20
ENDBRANCH   8  14
BRANCH   3  13
ATOM     13  C   UNL     1       2.194  -1.396   0.148  0.00  0.00    +0.128 C 
BRANCH  13  15
ATOM      1  S   UNL     1       4.058  -2.360  -1.678  0.00  0.00    -0.100 S 
ATOM     15  C   UNL     1       3.644  -1.631  -0.184  0.00  0.00    +0.004 A 
ATOM     17  C   UNL     1       4.756  -1.334   0.572  0.00  0.00    +0.012 A 
ATOM     19  C   UNL     1       5.965  -1.709  -0.083  0.00  0.00    +0.008 A 
ATOM     21  C   UNL     1       5.730  -2.279  -1.315  0.00  0.00    +0.045 A 
ENDBRANCH  13  15
ENDBRANCH   3  13
TORSDOF 4
