REMARK  Name = 11912219
REMARK  6 active torsions:
REMARK  status: ('A' for Active; 'I' for Inactive)
REMARK    1  A    between atoms: N_4  and  C_15
REMARK    2  A    between atoms: C_5  and  C_13
REMARK    3  A    between atoms: C_6  and  C_16
REMARK    4  A    between atoms: C_7  and  C_14
REMARK    5  A    between atoms: C_13  and  C_19
REMARK    6  A    between atoms: C_16  and  C_20
REMARK                            x       y       z     vdW  Elec       q    Type
REMARK                         _______ _______ _______ _____ _____    ______ ____
ROOT
ATOM      1  O   UNL     1       4.326  -0.932   0.969  0.00  0.00    -0.275 OA
ATOM      3  N   UNL     1       2.334  -0.722  -0.218  0.00  0.00    -0.301 N 
ATOM      5  C   UNL     1      -0.473  -1.431  -0.209  0.00  0.00    +0.004 C 
ATOM      6  C   UNL     1      -0.022   0.040  -0.401  0.00  0.00    +0.010 C 
ATOM      8  C   UNL     1       1.391   0.078  -1.009  0.00  0.00    +0.111 C 
ATOM      9  C   UNL     1       0.568  -2.244   0.581  0.00  0.00    +0.023 C 
ATOM     12  C   UNL     1       1.956  -2.123  -0.043  0.00  0.00    +0.108 C 
ATOM     14  C   UNL     1       3.531  -0.249   0.328  0.00  0.00    +0.219 C 
ENDROOT
BRANCH  14   7
ATOM      7  C   UNL     1       3.859   1.193   0.116  0.00  0.00    +0.075 C 
ATOM     10  C   UNL     1       5.289   1.607   0.157  0.00  0.00    +0.013 C 
ATOM     11  C   UNL     1       4.546   1.583  -1.147  0.00  0.00    +0.013 C 
ENDBRANCH  14   7
BRANCH   6  16
ATOM     16  C   UNL     1      -0.073   0.879   0.882  0.00  0.00    +0.002 C 
ATOM     20  C   UNL     1       0.250   2.330   0.598  0.00  0.00    +0.004 C 
ENDBRANCH   6  16
BRANCH   5  13
ATOM     13  C   UNL     1      -1.854  -1.558   0.432  0.00  0.00    +0.099 C 
BRANCH  13  19
ATOM      2  O   UNL     1      -2.888  -0.713  -1.588  0.00  0.00    -0.276 OA
ATOM      4  N   UNL     1      -3.932  -0.365   0.457  0.00  0.00    -0.312 N 
ATOM     19  C   UNL     1      -2.923  -0.844  -0.367  0.00  0.00    +0.214 C 
ATOM     21  H   UNL     1      -3.893  -0.531   1.459  0.00  0.00    +0.149 HD
BRANCH   4  15
ATOM     15  C   UNL     1      -5.067   0.352  -0.051  0.00  0.00    +0.073 C 
ATOM     17  C   UNL     1      -5.829   1.296   0.821  0.00  0.00    +0.024 C 
ATOM     18  C   UNL     1      -4.990   1.822  -0.306  0.00  0.00    +0.024 C 
ENDBRANCH   4  15
ENDBRANCH  13  19
ENDBRANCH   5  13
TORSDOF 5
