MODEL 1
REMARK VINA RESULT:      -7.3      0.000      0.000
REMARK  Name = 75536398
REMARK  10 active torsions:
REMARK  status: ('A' for Active; 'I' for Inactive)
REMARK    1  A    between atoms: O_2  and  C_11
REMARK    2  A    between atoms: O_5  and  C_31
REMARK    3  A    between atoms: O_5  and  C_32
REMARK    4  A    between atoms: N_6  and  C_10
REMARK    5  A    between atoms: N_6  and  C_13
REMARK    6  A    between atoms: C_9  and  C_13
REMARK    7  A    between atoms: C_12  and  C_20
REMARK    8  A    between atoms: C_20  and  C_21
REMARK    9  A    between atoms: C_22  and  C_24
REMARK   10  A    between atoms: C_25  and  C_26
REMARK                            x       y       z     vdW  Elec       q    Type
REMARK                         _______ _______ _______ _____ _____    ______ ____
ROOT
ATOM      1  O   UNL     1      12.856  11.295  23.387  0.00  0.00    -0.369 OA
ATOM      9  C   UNL     1      11.500  11.036  23.770  0.00  0.00    +0.161 C 
ATOM     11  C   UNL     1      10.665  12.323  23.776  0.00  0.00    +0.145 C 
ATOM     12  C   UNL     1      13.019  11.957  22.131  0.00  0.00    +0.125 C 
ATOM     14  C   UNL     1      10.824  13.125  22.486  0.00  0.00    +0.036 C 
ATOM     15  C   UNL     1      12.298  13.304  22.134  0.00  0.00    +0.034 C 
ENDROOT
BRANCH  11   2
ATOM      2  O   UNL     1      11.100  13.149  24.859  0.00  0.00    -0.389 OA
ATOM     34  H   UNL     1      11.615  12.591  25.466  0.00  0.00    +0.210 HD
ENDBRANCH  11   2
BRANCH   9  13
ATOM     13  C   UNL     1      10.887   9.932  22.910  0.00  0.00    +0.115 C 
BRANCH  13   6
ATOM      6  N   UNL     1      11.796   8.803  22.778  0.00  0.00    -0.311 NA
ATOM     33  H   UNL     1      11.591   8.128  23.516  0.00  0.00    +0.122 HD
BRANCH   6  10
ATOM      3  O   UNL     1      14.260   7.455  17.308  0.00  0.00    -0.276 OA
ATOM      7  N   UNL     1      12.453   7.880  18.707  0.00  0.00    -0.302 N 
ATOM     10  C   UNL     1      11.645   8.166  21.473  0.00  0.00    +0.057 C 
ATOM     16  C   UNL     1      11.275   9.214  20.415  0.00  0.00    +0.037 C 
ATOM     17  C   UNL     1      12.945   7.448  21.084  0.00  0.00    +0.037 C 
ATOM     18  C   UNL     1      11.206   8.586  19.023  0.00  0.00    +0.109 C 
ATOM     19  C   UNL     1      12.841   6.856  19.680  0.00  0.00    +0.109 C 
ATOM     22  C   UNL     1      13.233   8.088  17.570  0.00  0.00    +0.212 C 
ATOM     24  C   UNL     1      12.768   9.161  16.619  0.00  0.00    +0.109 C 
ENDBRANCH   6  10
ENDBRANCH  13   6
ENDBRANCH   9  13
BRANCH  12  20
ATOM     20  C   UNL     1      14.514  12.142  21.899  0.00  0.00    +0.090 C 
BRANCH  20  21
ATOM      4  O   UNL     1      15.474   9.442  19.714  0.00  0.00    -0.354 OA
ATOM      8  N   UNL     1      14.713  10.563  20.021  0.00  0.00    -0.083 NA
ATOM     21  C   UNL     1      15.128  10.939  21.235  0.00  0.00    +0.087 A 
ATOM     23  C   UNL     1      16.138  10.101  21.737  0.00  0.00    +0.076 A 
ATOM     25  C   UNL     1      16.318   9.177  20.742  0.00  0.00    +0.167 A 
BRANCH  25  26
ATOM     26  C   UNL     1      17.175   8.039  20.567  0.00  0.00    +0.020 A 
ATOM     27  C   UNL     1      16.760   6.968  19.776  0.00  0.00    +0.015 A 
ATOM     28  C   UNL     1      18.423   8.005  21.188  0.00  0.00    +0.015 A 
ATOM     29  C   UNL     1      17.594   5.863  19.605  0.00  0.00    +0.046 A 
ATOM     30  C   UNL     1      19.257   6.900  21.018  0.00  0.00    +0.046 A 
ATOM     31  C   UNL     1      18.842   5.829  20.227  0.00  0.00    +0.120 A 
BRANCH  31   5
ATOM      5  O   UNL     1      19.657   4.753  20.058  0.00  0.00    -0.495 OA
ATOM     32  C   UNL     1      20.971   4.840  20.611  0.00  0.00    +0.277 C 
ENDBRANCH  31   5
ENDBRANCH  25  26
ENDBRANCH  20  21
ENDBRANCH  12  20
TORSDOF 8
ENDMDL
MODEL 2
REMARK VINA RESULT:      -7.0      3.904      6.972
REMARK  Name = 75536398
REMARK  10 active torsions:
REMARK  status: ('A' for Active; 'I' for Inactive)
REMARK    1  A    between atoms: O_2  and  C_11
REMARK    2  A    between atoms: O_5  and  C_31
REMARK    3  A    between atoms: O_5  and  C_32
REMARK    4  A    between atoms: N_6  and  C_10
REMARK    5  A    between atoms: N_6  and  C_13
REMARK    6  A    between atoms: C_9  and  C_13
REMARK    7  A    between atoms: C_12  and  C_20
REMARK    8  A    between atoms: C_20  and  C_21
REMARK    9  A    between atoms: C_22  and  C_24
REMARK   10  A    between atoms: C_25  and  C_26
REMARK                            x       y       z     vdW  Elec       q    Type
REMARK                         _______ _______ _______ _____ _____    ______ ____
ROOT
ATOM      1  O   UNL     1      10.720   8.272  19.700  0.00  0.00    -0.369 OA
ATOM      9  C   UNL     1      10.926   8.119  21.110  0.00  0.00    +0.161 C 
ATOM     11  C   UNL     1      11.757   6.868  21.421  0.00  0.00    +0.145 C 
ATOM     12  C   UNL     1      11.911   8.302  18.911  0.00  0.00    +0.125 C 
ATOM     14  C   UNL     1      13.026   6.789  20.577  0.00  0.00    +0.036 C 
ATOM     15  C   UNL     1      12.715   7.015  19.101  0.00  0.00    +0.034 C 
ENDROOT
BRANCH  11   2
ATOM      2  O   UNL     1      10.970   5.709  21.133  0.00  0.00    -0.389 OA
ATOM     34  H   UNL     1      11.403   5.232  20.405  0.00  0.00    +0.210 HD
ENDBRANCH  11   2
BRANCH   9  13
ATOM     13  C   UNL     1      11.510   9.390  21.722  0.00  0.00    +0.115 C 
BRANCH  13   6
ATOM      6  N   UNL     1      11.226   9.466  23.148  0.00  0.00    -0.311 NA
ATOM     33  H   UNL     1      12.082   9.264  23.665  0.00  0.00    +0.122 HD
BRANCH   6  10
ATOM      3  O   UNL     1      12.342  15.492  23.648  0.00  0.00    -0.276 OA
ATOM      7  N   UNL     1      11.241  13.542  24.267  0.00  0.00    -0.302 N 
ATOM     10  C   UNL     1      10.735  10.794  23.508  0.00  0.00    +0.057 C 
ATOM     16  C   UNL     1      11.205  11.164  24.921  0.00  0.00    +0.037 C 
ATOM     17  C   UNL     1      11.227  11.832  22.490  0.00  0.00    +0.037 C 
ATOM     18  C   UNL     1      10.782  12.587  25.284  0.00  0.00    +0.109 C 
ATOM     19  C   UNL     1      10.804  13.241  22.902  0.00  0.00    +0.109 C 
ATOM     22  C   UNL     1      11.999  14.685  24.516  0.00  0.00    +0.212 C 
ATOM     24  C   UNL     1      12.412  14.923  25.946  0.00  0.00    +0.109 C 
ENDBRANCH   6  10
ENDBRANCH  13   6
ENDBRANCH   9  13
BRANCH  12  20
ATOM     20  C   UNL     1      11.493   8.471  17.455  0.00  0.00    +0.090 C 
BRANCH  20  21
ATOM      4  O   UNL     1      13.567   9.977  14.922  0.00  0.00    -0.354 OA
ATOM      8  N   UNL     1      12.488   9.200  15.325  0.00  0.00    -0.083 NA
ATOM     21  C   UNL     1      12.529   9.220  16.661  0.00  0.00    +0.087 A 
ATOM     23  C   UNL     1      13.601   9.986  17.150  0.00  0.00    +0.076 A 
ATOM     25  C   UNL     1      14.221  10.438  16.017  0.00  0.00    +0.167 A 
BRANCH  25  26
ATOM     26  C   UNL     1      15.366  11.264  15.756  0.00  0.00    +0.020 A 
ATOM     27  C   UNL     1      16.067  11.126  14.557  0.00  0.00    +0.015 A 
ATOM     28  C   UNL     1      15.777  12.204  16.700  0.00  0.00    +0.015 A 
ATOM     29  C   UNL     1      17.179  11.929  14.304  0.00  0.00    +0.046 A 
ATOM     30  C   UNL     1      16.889  13.007  16.447  0.00  0.00    +0.046 A 
ATOM     31  C   UNL     1      17.590  12.869  15.250  0.00  0.00    +0.120 A 
BRANCH  31   5
ATOM      5  O   UNL     1      18.672  13.655  15.001  0.00  0.00    -0.495 OA
ATOM     32  C   UNL     1      19.915  12.993  14.765  0.00  0.00    +0.277 C 
ENDBRANCH  31   5
ENDBRANCH  25  26
ENDBRANCH  20  21
ENDBRANCH  12  20
TORSDOF 8
ENDMDL
MODEL 3
REMARK VINA RESULT:      -6.4     26.902     30.193
REMARK  Name = 75536398
REMARK  10 active torsions:
REMARK  status: ('A' for Active; 'I' for Inactive)
REMARK    1  A    between atoms: O_2  and  C_11
REMARK    2  A    between atoms: O_5  and  C_31
REMARK    3  A    between atoms: O_5  and  C_32
REMARK    4  A    between atoms: N_6  and  C_10
REMARK    5  A    between atoms: N_6  and  C_13
REMARK    6  A    between atoms: C_9  and  C_13
REMARK    7  A    between atoms: C_12  and  C_20
REMARK    8  A    between atoms: C_20  and  C_21
REMARK    9  A    between atoms: C_22  and  C_24
REMARK   10  A    between atoms: C_25  and  C_26
REMARK                            x       y       z     vdW  Elec       q    Type
REMARK                         _______ _______ _______ _____ _____    ______ ____
ROOT
ATOM      1  O   UNL     1      -5.615 -11.351  18.729  0.00  0.00    -0.369 OA
ATOM      9  C   UNL     1      -4.532 -11.607  17.827  0.00  0.00    +0.161 C 
ATOM     11  C   UNL     1      -4.647 -12.999  17.193  0.00  0.00    +0.145 C 
ATOM     12  C   UNL     1      -6.921 -11.495  18.167  0.00  0.00    +0.125 C 
ATOM     14  C   UNL     1      -6.036 -13.260  16.616  0.00  0.00    +0.036 C 
ATOM     15  C   UNL     1      -7.123 -12.911  17.628  0.00  0.00    +0.034 C 
ENDROOT
BRANCH  11   2
ATOM      2  O   UNL     1      -4.402 -13.984  18.200  0.00  0.00    -0.389 OA
ATOM     34  H   UNL     1      -3.824 -13.582  18.870  0.00  0.00    +0.210 HD
ENDBRANCH  11   2
BRANCH   9  13
ATOM     13  C   UNL     1      -4.402 -10.490  16.792  0.00  0.00    +0.115 C 
BRANCH  13   6
ATOM      6  N   UNL     1      -3.067 -10.462  16.213  0.00  0.00    -0.311 NA
ATOM     33  H   UNL     1      -2.455 -11.063  16.766  0.00  0.00    +0.122 HD
BRANCH   6  10
ATOM      3  O   UNL     1      -2.477  -9.111  10.244  0.00  0.00    -0.276 OA
ATOM      7  N   UNL     1      -3.338 -10.369  11.997  0.00  0.00    -0.302 N 
ATOM     10  C   UNL     1      -3.092 -10.924  14.828  0.00  0.00    +0.057 C 
ATOM     16  C   UNL     1      -4.447 -10.596  14.189  0.00  0.00    +0.037 C 
ATOM     17  C   UNL     1      -1.953 -10.271  14.034  0.00  0.00    +0.037 C 
ATOM     18  C   UNL     1      -4.464 -10.985  12.711  0.00  0.00    +0.109 C 
ATOM     19  C   UNL     1      -2.020 -10.667  12.560  0.00  0.00    +0.109 C 
ATOM     22  C   UNL     1      -3.442  -9.588  10.847  0.00  0.00    +0.212 C 
ATOM     24  C   UNL     1      -4.834  -9.326  10.332  0.00  0.00    +0.109 C 
ENDBRANCH   6  10
ENDBRANCH  13   6
ENDBRANCH   9  13
BRANCH  12  20
ATOM     20  C   UNL     1      -7.931 -11.184  19.266  0.00  0.00    +0.090 C 
BRANCH  20  21
ATOM      4  O   UNL     1     -11.110  -9.621  18.604  0.00  0.00    -0.354 OA
ATOM      8  N   UNL     1     -10.293 -10.494  19.312  0.00  0.00    -0.083 NA
ATOM     21  C   UNL     1      -9.087 -10.372  18.748  0.00  0.00    +0.087 A 
ATOM     23  C   UNL     1      -9.084  -9.448  17.690  0.00  0.00    +0.076 A 
ATOM     25  C   UNL     1     -10.379  -9.005  17.642  0.00  0.00    +0.167 A 
BRANCH  25  26
ATOM     26  C   UNL     1     -11.092  -8.066  16.825  0.00  0.00    +0.020 A 
ATOM     27  C   UNL     1     -10.417  -6.992  16.244  0.00  0.00    +0.015 A 
ATOM     28  C   UNL     1     -12.461  -8.226  16.610  0.00  0.00    +0.015 A 
ATOM     29  C   UNL     1     -11.110  -6.080  15.449  0.00  0.00    +0.046 A 
ATOM     30  C   UNL     1     -13.155  -7.314  15.816  0.00  0.00    +0.046 A 
ATOM     31  C   UNL     1     -12.480  -6.241  15.235  0.00  0.00    +0.120 A 
BRANCH  31   5
ATOM      5  O   UNL     1     -13.156  -5.353  14.457  0.00  0.00    -0.495 OA
ATOM     32  C   UNL     1     -12.419  -4.706  13.419  0.00  0.00    +0.277 C 
ENDBRANCH  31   5
ENDBRANCH  25  26
ENDBRANCH  20  21
ENDBRANCH  12  20
TORSDOF 8
ENDMDL
MODEL 4
REMARK VINA RESULT:      -6.2      3.680      6.822
REMARK  Name = 75536398
REMARK  10 active torsions:
REMARK  status: ('A' for Active; 'I' for Inactive)
REMARK    1  A    between atoms: O_2  and  C_11
REMARK    2  A    between atoms: O_5  and  C_31
REMARK    3  A    between atoms: O_5  and  C_32
REMARK    4  A    between atoms: N_6  and  C_10
REMARK    5  A    between atoms: N_6  and  C_13
REMARK    6  A    between atoms: C_9  and  C_13
REMARK    7  A    between atoms: C_12  and  C_20
REMARK    8  A    between atoms: C_20  and  C_21
REMARK    9  A    between atoms: C_22  and  C_24
REMARK   10  A    between atoms: C_25  and  C_26
REMARK                            x       y       z     vdW  Elec       q    Type
REMARK                         _______ _______ _______ _____ _____    ______ ____
ROOT
ATOM      1  O   UNL     1      10.672   8.120  19.674  0.00  0.00    -0.369 OA
ATOM      9  C   UNL     1      10.728   7.905  21.089  0.00  0.00    +0.161 C 
ATOM     11  C   UNL     1      11.661   6.740  21.441  0.00  0.00    +0.145 C 
ATOM     12  C   UNL     1      11.935   8.333  19.040  0.00  0.00    +0.125 C 
ATOM     14  C   UNL     1      13.021   6.859  20.758  0.00  0.00    +0.036 C 
ATOM     15  C   UNL     1      12.860   7.138  19.267  0.00  0.00    +0.034 C 
ENDROOT
BRANCH  11   2
ATOM      2  O   UNL     1      11.059   5.519  21.004  0.00  0.00    -0.389 OA
ATOM     34  H   UNL     1      11.310   4.824  21.636  0.00  0.00    +0.210 HD
ENDBRANCH  11   2
BRANCH   9  13
ATOM     13  C   UNL     1      11.079   9.195  21.828  0.00  0.00    +0.115 C 
BRANCH  13   6
ATOM      6  N   UNL     1      12.264   9.021  22.656  0.00  0.00    -0.311 NA
ATOM     33  H   UNL     1      12.773   8.198  22.333  0.00  0.00    +0.122 HD
BRANCH   6  10
ATOM      3  O   UNL     1      15.550  12.869  19.162  0.00  0.00    -0.276 OA
ATOM      7  N   UNL     1      15.094  11.783  21.165  0.00  0.00    -0.302 N 
ATOM     10  C   UNL     1      13.127  10.197  22.578  0.00  0.00    +0.057 C 
ATOM     16  C   UNL     1      14.597   9.767  22.497  0.00  0.00    +0.037 C 
ATOM     17  C   UNL     1      12.748  11.048  21.359  0.00  0.00    +0.037 C 
ATOM     18  C   UNL     1      15.513  10.977  22.319  0.00  0.00    +0.109 C 
ATOM     19  C   UNL     1      13.701  12.232  21.205  0.00  0.00    +0.109 C 
ATOM     22  C   UNL     1      15.916  12.160  20.103  0.00  0.00    +0.212 C 
ATOM     24  C   UNL     1      17.335  11.654  20.134  0.00  0.00    +0.109 C 
ENDBRANCH   6  10
ENDBRANCH  13   6
ENDBRANCH   9  13
BRANCH  12  20
ATOM     20  C   UNL     1      11.673   8.543  17.553  0.00  0.00    +0.090 C 
BRANCH  20  21
ATOM      4  O   UNL     1      13.977  11.232  16.888  0.00  0.00    -0.354 OA
ATOM      8  N   UNL     1      13.189  10.473  17.743  0.00  0.00    -0.083 NA
ATOM     21  C   UNL     1      12.613   9.556  16.959  0.00  0.00    +0.087 A 
ATOM     23  C   UNL     1      12.997   9.688  15.613  0.00  0.00    +0.076 A 
ATOM     25  C   UNL     1      13.855  10.756  15.624  0.00  0.00    +0.167 A 
BRANCH  25  26
ATOM     26  C   UNL     1      14.618  11.444  14.622  0.00  0.00    +0.020 A 
ATOM     27  C   UNL     1      13.969  12.212  13.655  0.00  0.00    +0.015 A 
ATOM     28  C   UNL     1      16.009  11.345  14.616  0.00  0.00    +0.015 A 
ATOM     29  C   UNL     1      14.712  12.880  12.682  0.00  0.00    +0.046 A 
ATOM     30  C   UNL     1      16.752  12.013  13.644  0.00  0.00    +0.046 A 
ATOM     31  C   UNL     1      16.104  12.781  12.677  0.00  0.00    +0.120 A 
BRANCH  31   5
ATOM      5  O   UNL     1      16.829  13.436  11.730  0.00  0.00    -0.495 OA
ATOM     32  C   UNL     1      17.811  12.678  11.024  0.00  0.00    +0.277 C 
ENDBRANCH  31   5
ENDBRANCH  25  26
ENDBRANCH  20  21
ENDBRANCH  12  20
TORSDOF 8
ENDMDL
MODEL 5
REMARK VINA RESULT:      -6.2     27.235     30.339
REMARK  Name = 75536398
REMARK  10 active torsions:
REMARK  status: ('A' for Active; 'I' for Inactive)
REMARK    1  A    between atoms: O_2  and  C_11
REMARK    2  A    between atoms: O_5  and  C_31
REMARK    3  A    between atoms: O_5  and  C_32
REMARK    4  A    between atoms: N_6  and  C_10
REMARK    5  A    between atoms: N_6  and  C_13
REMARK    6  A    between atoms: C_9  and  C_13
REMARK    7  A    between atoms: C_12  and  C_20
REMARK    8  A    between atoms: C_20  and  C_21
REMARK    9  A    between atoms: C_22  and  C_24
REMARK   10  A    between atoms: C_25  and  C_26
REMARK                            x       y       z     vdW  Elec       q    Type
REMARK                         _______ _______ _______ _____ _____    ______ ____
ROOT
ATOM      1  O   UNL     1     -16.480   2.589  22.690  0.00  0.00    -0.369 OA
ATOM      9  C   UNL     1     -17.705   2.062  22.166  0.00  0.00    +0.161 C 
ATOM     11  C   UNL     1     -18.507   1.329  23.248  0.00  0.00    +0.145 C 
ATOM     12  C   UNL     1     -16.622   3.450  23.822  0.00  0.00    +0.125 C 
ATOM     14  C   UNL     1     -18.660   2.159  24.520  0.00  0.00    +0.036 C 
ATOM     15  C   UNL     1     -17.315   2.718  24.971  0.00  0.00    +0.034 C 
ENDROOT
BRANCH  11   2
ATOM      2  O   UNL     1     -17.820   0.124  23.594  0.00  0.00    -0.389 OA
ATOM     34  H   UNL     1     -17.270  -0.130  22.833  0.00  0.00    +0.210 HD
ENDBRANCH  11   2
BRANCH   9  13
ATOM     13  C   UNL     1     -18.512   3.149  21.458  0.00  0.00    +0.115 C 
BRANCH  13   6
ATOM      6  N   UNL     1     -18.035   3.358  20.099  0.00  0.00    -0.311 NA
ATOM     33  H   UNL     1     -18.657   2.870  19.453  0.00  0.00    +0.122 HD
BRANCH   6  10
ATOM      3  O   UNL     1     -16.265   7.794  16.226  0.00  0.00    -0.276 OA
ATOM      7  N   UNL     1     -16.835   7.007  18.337  0.00  0.00    -0.302 N 
ATOM     10  C   UNL     1     -18.004   4.782  19.773  0.00  0.00    +0.057 C 
ATOM     16  C   UNL     1     -16.658   5.388  20.189  0.00  0.00    +0.037 C 
ATOM     17  C   UNL     1     -18.242   4.983  18.270  0.00  0.00    +0.037 C 
ATOM     18  C   UNL     1     -16.565   6.855  19.772  0.00  0.00    +0.109 C 
ATOM     19  C   UNL     1     -18.118   6.458  17.893  0.00  0.00    +0.109 C 
ATOM     22  C   UNL     1     -15.999   7.647  17.422  0.00  0.00    +0.212 C 
ATOM     24  C   UNL     1     -14.695   8.182  17.957  0.00  0.00    +0.109 C 
ENDBRANCH   6  10
ENDBRANCH  13   6
ENDBRANCH   9  13
BRANCH  12  20
ATOM     20  C   UNL     1     -15.227   3.906  24.231  0.00  0.00    +0.090 C 
BRANCH  20  21
ATOM      4  O   UNL     1     -14.841   7.122  22.653  0.00  0.00    -0.354 OA
ATOM      8  N   UNL     1     -15.528   6.223  23.459  0.00  0.00    -0.083 NA
ATOM     21  C   UNL     1     -14.783   5.114  23.451  0.00  0.00    +0.087 A 
ATOM     23  C   UNL     1     -13.627   5.253  22.665  0.00  0.00    +0.076 A 
ATOM     25  C   UNL     1     -13.712   6.533  22.186  0.00  0.00    +0.167 A 
BRANCH  25  26
ATOM     26  C   UNL     1     -12.892   7.347  21.335  0.00  0.00    +0.020 A 
ATOM     27  C   UNL     1     -13.016   8.736  21.366  0.00  0.00    +0.015 A 
ATOM     28  C   UNL     1     -11.970   6.748  20.476  0.00  0.00    +0.015 A 
ATOM     29  C   UNL     1     -12.219   9.526  20.539  0.00  0.00    +0.046 A 
ATOM     30  C   UNL     1     -11.172   7.538  19.648  0.00  0.00    +0.046 A 
ATOM     31  C   UNL     1     -11.297   8.927  19.680  0.00  0.00    +0.120 A 
BRANCH  31   5
ATOM      5  O   UNL     1     -10.516   9.698  18.875  0.00  0.00    -0.495 OA
ATOM     32  C   UNL     1     -10.249   9.204  17.562  0.00  0.00    +0.277 C 
ENDBRANCH  31   5
ENDBRANCH  25  26
ENDBRANCH  20  21
ENDBRANCH  12  20
TORSDOF 8
ENDMDL
MODEL 6
REMARK VINA RESULT:      -6.1     27.185     29.562
REMARK  Name = 75536398
REMARK  10 active torsions:
REMARK  status: ('A' for Active; 'I' for Inactive)
REMARK    1  A    between atoms: O_2  and  C_11
REMARK    2  A    between atoms: O_5  and  C_31
REMARK    3  A    between atoms: O_5  and  C_32
REMARK    4  A    between atoms: N_6  and  C_10
REMARK    5  A    between atoms: N_6  and  C_13
REMARK    6  A    between atoms: C_9  and  C_13
REMARK    7  A    between atoms: C_12  and  C_20
REMARK    8  A    between atoms: C_20  and  C_21
REMARK    9  A    between atoms: C_22  and  C_24
REMARK   10  A    between atoms: C_25  and  C_26
REMARK                            x       y       z     vdW  Elec       q    Type
REMARK                         _______ _______ _______ _____ _____    ______ ____
ROOT
ATOM      1  O   UNL     1      -4.472 -12.289  17.640  0.00  0.00    -0.369 OA
ATOM      9  C   UNL     1      -5.744 -12.683  18.170  0.00  0.00    +0.161 C 
ATOM     11  C   UNL     1      -6.511 -11.480  18.733  0.00  0.00    +0.145 C 
ATOM     12  C   UNL     1      -4.517 -11.264  16.645  0.00  0.00    +0.125 C 
ATOM     14  C   UNL     1      -6.561 -10.312  17.752  0.00  0.00    +0.036 C 
ATOM     15  C   UNL     1      -5.171 -10.001  17.204  0.00  0.00    +0.034 C 
ENDROOT
BRANCH  11   2
ATOM      2  O   UNL     1      -5.851 -11.026  19.918  0.00  0.00    -0.389 OA
ATOM     34  H   UNL     1      -6.533 -10.871  20.593  0.00  0.00    +0.210 HD
ENDBRANCH  11   2
BRANCH   9  13
ATOM     13  C   UNL     1      -6.547 -13.474  17.140  0.00  0.00    +0.115 C 
BRANCH  13   6
ATOM      6  N   UNL     1      -6.328 -14.905  17.288  0.00  0.00    -0.311 NA
ATOM     33  H   UNL     1      -7.230 -15.364  17.421  0.00  0.00    +0.122 HD
BRANCH   6  10
ATOM      3  O   UNL     1      -1.168 -15.495  13.997  0.00  0.00    -0.276 OA
ATOM      7  N   UNL     1      -3.481 -15.417  14.207  0.00  0.00    -0.302 N 
ATOM     10  C   UNL     1      -5.665 -15.453  16.107  0.00  0.00    +0.057 C 
ATOM     16  C   UNL     1      -5.570 -14.382  15.013  0.00  0.00    +0.037 C 
ATOM     17  C   UNL     1      -4.267 -15.966  16.479  0.00  0.00    +0.037 C 
ATOM     18  C   UNL     1      -4.795 -14.903  13.803  0.00  0.00    +0.109 C 
ATOM     19  C   UNL     1      -3.520 -16.454  15.239  0.00  0.00    +0.109 C 
ATOM     22  C   UNL     1      -2.258 -15.022  13.665  0.00  0.00    +0.212 C 
ATOM     24  C   UNL     1      -2.302 -13.947  12.610  0.00  0.00    +0.109 C 
ENDBRANCH   6  10
ENDBRANCH  13   6
ENDBRANCH   9  13
BRANCH  12  20
ATOM     20  C   UNL     1      -3.085 -10.986  16.207  0.00  0.00    +0.090 C 
BRANCH  20  21
ATOM      4  O   UNL     1      -2.088 -10.255  12.822  0.00  0.00    -0.354 OA
ATOM      8  N   UNL     1      -1.817 -10.421  14.174  0.00  0.00    -0.083 NA
ATOM     21  C   UNL     1      -2.994 -10.732  14.726  0.00  0.00    +0.087 A 
ATOM     23  C   UNL     1      -4.032 -10.776  13.780  0.00  0.00    +0.076 A 
ATOM     25  C   UNL     1      -3.409 -10.469  12.600  0.00  0.00    +0.167 A 
BRANCH  25  26
ATOM     26  C   UNL     1      -3.841 -10.334  11.238  0.00  0.00    +0.020 A 
ATOM     27  C   UNL     1      -3.597  -9.150  10.543  0.00  0.00    +0.015 A 
ATOM     28  C   UNL     1      -4.505 -11.388  10.610  0.00  0.00    +0.015 A 
ATOM     29  C   UNL     1      -4.017  -9.020   9.219  0.00  0.00    +0.046 A 
ATOM     30  C   UNL     1      -4.926 -11.258   9.287  0.00  0.00    +0.046 A 
ATOM     31  C   UNL     1      -4.682 -10.074   8.591  0.00  0.00    +0.120 A 
BRANCH  31   5
ATOM      5  O   UNL     1      -5.088  -9.949   7.299  0.00  0.00    -0.495 OA
ATOM     32  C   UNL     1      -6.480  -9.723   7.075  0.00  0.00    +0.277 C 
ENDBRANCH  31   5
ENDBRANCH  25  26
ENDBRANCH  20  21
ENDBRANCH  12  20
TORSDOF 8
ENDMDL
MODEL 7
REMARK VINA RESULT:      -6.1     27.676     29.742
REMARK  Name = 75536398
REMARK  10 active torsions:
REMARK  status: ('A' for Active; 'I' for Inactive)
REMARK    1  A    between atoms: O_2  and  C_11
REMARK    2  A    between atoms: O_5  and  C_31
REMARK    3  A    between atoms: O_5  and  C_32
REMARK    4  A    between atoms: N_6  and  C_10
REMARK    5  A    between atoms: N_6  and  C_13
REMARK    6  A    between atoms: C_9  and  C_13
REMARK    7  A    between atoms: C_12  and  C_20
REMARK    8  A    between atoms: C_20  and  C_21
REMARK    9  A    between atoms: C_22  and  C_24
REMARK   10  A    between atoms: C_25  and  C_26
REMARK                            x       y       z     vdW  Elec       q    Type
REMARK                         _______ _______ _______ _____ _____    ______ ____
ROOT
ATOM      1  O   UNL     1      -6.494 -11.443  17.146  0.00  0.00    -0.369 OA
ATOM      9  C   UNL     1      -7.599 -10.764  17.755  0.00  0.00    +0.161 C 
ATOM     11  C   UNL     1      -7.534 -10.848  19.285  0.00  0.00    +0.145 C 
ATOM     12  C   UNL     1      -5.202 -11.010  17.577  0.00  0.00    +0.125 C 
ATOM     14  C   UNL     1      -6.163 -10.455  19.830  0.00  0.00    +0.036 C 
ATOM     15  C   UNL     1      -5.050 -11.188  19.088  0.00  0.00    +0.034 C 
ENDROOT
BRANCH  11   2
ATOM      2  O   UNL     1      -7.791 -12.198  19.683  0.00  0.00    -0.389 OA
ATOM     34  H   UNL     1      -7.354 -12.782  19.041  0.00  0.00    +0.210 HD
ENDBRANCH  11   2
BRANCH   9  13
ATOM     13  C   UNL     1      -7.714  -9.330  17.241  0.00  0.00    +0.115 C 
BRANCH  13   6
ATOM      6  N   UNL     1      -8.906  -8.678  17.764  0.00  0.00    -0.311 NA
ATOM     33  H   UNL     1      -8.686  -7.701  17.960  0.00  0.00    +0.122 HD
BRANCH   6  10
ATOM      3  O   UNL     1     -13.413  -5.784  14.744  0.00  0.00    -0.276 OA
ATOM      7  N   UNL     1     -12.449  -7.675  15.689  0.00  0.00    -0.302 N 
ATOM     10  C   UNL     1     -10.003  -8.753  16.802  0.00  0.00    +0.057 C 
ATOM     16  C   UNL     1     -11.342  -8.873  17.539  0.00  0.00    +0.037 C 
ATOM     17  C   UNL     1      -9.997  -7.511  15.900  0.00  0.00    +0.037 C 
ATOM     18  C   UNL     1     -12.512  -8.858  16.556  0.00  0.00    +0.109 C 
ATOM     19  C   UNL     1     -11.194  -7.524  14.950  0.00  0.00    +0.109 C 
ATOM     22  C   UNL     1     -13.477  -6.751  15.506  0.00  0.00    +0.212 C 
ATOM     24  C   UNL     1     -14.736  -6.975  16.306  0.00  0.00    +0.109 C 
ENDBRANCH   6  10
ENDBRANCH  13   6
ENDBRANCH   9  13
BRANCH  12  20
ATOM     20  C   UNL     1      -4.166 -11.838  16.826  0.00  0.00    +0.090 C 
BRANCH  20  21
ATOM      4  O   UNL     1      -2.795 -10.299  13.870  0.00  0.00    -0.354 OA
ATOM      8  N   UNL     1      -2.715 -10.695  15.199  0.00  0.00    -0.083 NA
ATOM     21  C   UNL     1      -3.890 -11.278  15.457  0.00  0.00    +0.087 A 
ATOM     23  C   UNL     1      -4.742 -11.278  14.340  0.00  0.00    +0.076 A 
ATOM     25  C   UNL     1      -4.006 -10.651  13.370  0.00  0.00    +0.167 A 
BRANCH  25  26
ATOM     26  C   UNL     1      -4.237 -10.306  11.996  0.00  0.00    +0.020 A 
ATOM     27  C   UNL     1      -3.177  -9.875  11.198  0.00  0.00    +0.015 A 
ATOM     28  C   UNL     1      -5.520 -10.403  11.459  0.00  0.00    +0.015 A 
ATOM     29  C   UNL     1      -3.401  -9.541   9.863  0.00  0.00    +0.046 A 
ATOM     30  C   UNL     1      -5.744 -10.068  10.123  0.00  0.00    +0.046 A 
ATOM     31  C   UNL     1      -4.685  -9.637   9.326  0.00  0.00    +0.120 A 
BRANCH  31   5
ATOM      5  O   UNL     1      -4.903  -9.315   8.022  0.00  0.00    -0.495 OA
ATOM     32  C   UNL     1      -5.379 -10.355   7.166  0.00  0.00    +0.277 C 
ENDBRANCH  31   5
ENDBRANCH  25  26
ENDBRANCH  20  21
ENDBRANCH  12  20
TORSDOF 8
ENDMDL
MODEL 8
REMARK VINA RESULT:      -6.1     13.807     18.801
REMARK  Name = 75536398
REMARK  10 active torsions:
REMARK  status: ('A' for Active; 'I' for Inactive)
REMARK    1  A    between atoms: O_2  and  C_11
REMARK    2  A    between atoms: O_5  and  C_31
REMARK    3  A    between atoms: O_5  and  C_32
REMARK    4  A    between atoms: N_6  and  C_10
REMARK    5  A    between atoms: N_6  and  C_13
REMARK    6  A    between atoms: C_9  and  C_13
REMARK    7  A    between atoms: C_12  and  C_20
REMARK    8  A    between atoms: C_20  and  C_21
REMARK    9  A    between atoms: C_22  and  C_24
REMARK   10  A    between atoms: C_25  and  C_26
REMARK                            x       y       z     vdW  Elec       q    Type
REMARK                         _______ _______ _______ _____ _____    ______ ____
ROOT
ATOM      1  O   UNL     1      13.241   4.944   1.652  0.00  0.00    -0.369 OA
ATOM      9  C   UNL     1      14.606   5.366   1.549  0.00  0.00    +0.161 C 
ATOM     11  C   UNL     1      15.453   4.339   0.787  0.00  0.00    +0.145 C 
ATOM     12  C   UNL     1      12.600   4.648   0.409  0.00  0.00    +0.125 C 
ATOM     14  C   UNL     1      14.811   3.921  -0.533  0.00  0.00    +0.036 C 
ATOM     15  C   UNL     1      13.348   3.540  -0.332  0.00  0.00    +0.034 C 
ENDROOT
BRANCH  11   2
ATOM      2  O   UNL     1      15.591   3.167   1.595  0.00  0.00    -0.389 OA
ATOM     34  H   UNL     1      14.754   2.676   1.546  0.00  0.00    +0.210 HD
ENDBRANCH  11   2
BRANCH   9  13
ATOM     13  C   UNL     1      14.704   6.773   0.961  0.00  0.00    +0.115 C 
BRANCH  13   6
ATOM      6  N   UNL     1      13.871   7.711   1.699  0.00  0.00    -0.311 NA
ATOM     33  H   UNL     1      12.894   7.433   1.598  0.00  0.00    +0.122 HD
BRANCH   6  10
ATOM      3  O   UNL     1      12.648   9.700   7.388  0.00  0.00    -0.276 OA
ATOM      7  N   UNL     1      14.098   8.956   5.731  0.00  0.00    -0.302 N 
ATOM     10  C   UNL     1      14.236   7.727   3.114  0.00  0.00    +0.057 C 
ATOM     16  C   UNL     1      15.015   9.007   3.442  0.00  0.00    +0.037 C 
ATOM     17  C   UNL     1      12.975   7.628   3.983  0.00  0.00    +0.037 C 
ATOM     18  C   UNL     1      15.325   9.092   4.936  0.00  0.00    +0.109 C 
ATOM     19  C   UNL     1      13.327   7.740   5.466  0.00  0.00    +0.109 C 
ATOM     22  C   UNL     1      13.665   9.854   6.706  0.00  0.00    +0.212 C 
ATOM     24  C   UNL     1      14.512  11.083   6.917  0.00  0.00    +0.109 C 
ENDBRANCH   6  10
ENDBRANCH  13   6
ENDBRANCH   9  13
BRANCH  12  20
ATOM     20  C   UNL     1      11.170   4.223   0.720  0.00  0.00    +0.090 C 
BRANCH  20  21
ATOM      4  O   UNL     1       9.755   6.327   3.281  0.00  0.00    -0.354 OA
ATOM      8  N   UNL     1      10.096   6.057   1.962  0.00  0.00    -0.083 NA
ATOM     21  C   UNL     1      10.666   4.848   1.993  0.00  0.00    +0.087 A 
ATOM     23  C   UNL     1      10.711   4.313   3.291  0.00  0.00    +0.076 A 
ATOM     25  C   UNL     1      10.125   5.282   4.063  0.00  0.00    +0.167 A 
BRANCH  25  26
ATOM     26  C   UNL     1       9.833   5.415   5.461  0.00  0.00    +0.020 A 
ATOM     27  C   UNL     1      10.092   4.356   6.332  0.00  0.00    +0.015 A 
ATOM     28  C   UNL     1       9.291   6.604   5.949  0.00  0.00    +0.015 A 
ATOM     29  C   UNL     1       9.808   4.487   7.691  0.00  0.00    +0.046 A 
ATOM     30  C   UNL     1       9.007   6.734   7.309  0.00  0.00    +0.046 A 
ATOM     31  C   UNL     1       9.265   5.676   8.179  0.00  0.00    +0.120 A 
BRANCH  31   5
ATOM      5  O   UNL     1       8.992   5.805   9.506  0.00  0.00    -0.495 OA
ATOM     32  C   UNL     1       8.923   4.604  10.275  0.00  0.00    +0.277 C 
ENDBRANCH  31   5
ENDBRANCH  25  26
ENDBRANCH  20  21
ENDBRANCH  12  20
TORSDOF 8
ENDMDL
MODEL 9
REMARK VINA RESULT:      -6.1     27.576     29.911
REMARK  Name = 75536398
REMARK  10 active torsions:
REMARK  status: ('A' for Active; 'I' for Inactive)
REMARK    1  A    between atoms: O_2  and  C_11
REMARK    2  A    between atoms: O_5  and  C_31
REMARK    3  A    between atoms: O_5  and  C_32
REMARK    4  A    between atoms: N_6  and  C_10
REMARK    5  A    between atoms: N_6  and  C_13
REMARK    6  A    between atoms: C_9  and  C_13
REMARK    7  A    between atoms: C_12  and  C_20
REMARK    8  A    between atoms: C_20  and  C_21
REMARK    9  A    between atoms: C_22  and  C_24
REMARK   10  A    between atoms: C_25  and  C_26
REMARK                            x       y       z     vdW  Elec       q    Type
REMARK                         _______ _______ _______ _____ _____    ______ ____
ROOT
ATOM      1  O   UNL     1      -2.777 -11.179  15.338  0.00  0.00    -0.369 OA
ATOM      9  C   UNL     1      -2.328 -11.512  14.019  0.00  0.00    +0.161 C 
ATOM     11  C   UNL     1      -2.630 -12.976  13.678  0.00  0.00    +0.145 C 
ATOM     12  C   UNL     1      -4.160 -11.436  15.593  0.00  0.00    +0.125 C 
ATOM     14  C   UNL     1      -4.079 -13.354  13.975  0.00  0.00    +0.036 C 
ATOM     15  C   UNL     1      -4.481 -12.915  15.379  0.00  0.00    +0.034 C 
ENDROOT
BRANCH  11   2
ATOM      2  O   UNL     1      -1.789 -13.817  14.472  0.00  0.00    -0.389 OA
ATOM     34  H   UNL     1      -1.304 -13.246  15.091  0.00  0.00    +0.210 HD
ENDBRANCH  11   2
BRANCH   9  13
ATOM     13  C   UNL     1      -2.882 -10.532  12.986  0.00  0.00    +0.115 C 
BRANCH  13   6
ATOM      6  N   UNL     1      -2.272 -10.743  11.681  0.00  0.00    -0.311 NA
ATOM     33  H   UNL     1      -1.818 -11.657  11.673  0.00  0.00    +0.122 HD
BRANCH   6  10
ATOM      3  O   UNL     1      -6.806  -7.611   8.952  0.00  0.00    -0.276 OA
ATOM      7  N   UNL     1      -5.728  -9.583   9.543  0.00  0.00    -0.302 N 
ATOM     10  C   UNL     1      -3.278 -10.684  10.623  0.00  0.00    +0.057 C 
ATOM     16  C   UNL     1      -4.651 -11.082  11.179  0.00  0.00    +0.037 C 
ATOM     17  C   UNL     1      -3.331  -9.271  10.025  0.00  0.00    +0.037 C 
ATOM     18  C   UNL     1      -5.737 -10.936  10.113  0.00  0.00    +0.109 C 
ATOM     19  C   UNL     1      -4.442  -9.162   8.983  0.00  0.00    +0.109 C 
ATOM     22  C   UNL     1      -6.830  -8.731   9.470  0.00  0.00    +0.212 C 
ATOM     24  C   UNL     1      -8.116  -9.236  10.071  0.00  0.00    +0.109 C 
ENDBRANCH   6  10
ENDBRANCH  13   6
ENDBRANCH   9  13
BRANCH  12  20
ATOM     20  C   UNL     1      -4.446 -11.021  17.031  0.00  0.00    +0.090 C 
BRANCH  20  21
ATOM      4  O   UNL     1      -7.609  -9.704  18.147  0.00  0.00    -0.354 OA
ATOM      8  N   UNL     1      -6.384 -10.317  18.376  0.00  0.00    -0.083 NA
ATOM     21  C   UNL     1      -5.810 -10.399  17.172  0.00  0.00    +0.087 A 
ATOM     23  C   UNL     1      -6.618  -9.860  16.157  0.00  0.00    +0.076 A 
ATOM     25  C   UNL     1      -7.737  -9.437  16.823  0.00  0.00    +0.167 A 
BRANCH  25  26
ATOM     26  C   UNL     1      -8.960  -8.797  16.433  0.00  0.00    +0.020 A 
ATOM     27  C   UNL     1      -9.654  -8.001  17.345  0.00  0.00    +0.015 A 
ATOM     28  C   UNL     1      -9.456  -8.969  15.140  0.00  0.00    +0.015 A 
ATOM     29  C   UNL     1     -10.843  -7.379  16.965  0.00  0.00    +0.046 A 
ATOM     30  C   UNL     1     -10.644  -8.347  14.760  0.00  0.00    +0.046 A 
ATOM     31  C   UNL     1     -11.338  -7.552  15.672  0.00  0.00    +0.120 A 
BRANCH  31   5
ATOM      5  O   UNL     1     -12.496  -6.942  15.299  0.00  0.00    -0.495 OA
ATOM     32  C   UNL     1     -12.382  -5.683  14.636  0.00  0.00    +0.277 C 
ENDBRANCH  31   5
ENDBRANCH  25  26
ENDBRANCH  20  21
ENDBRANCH  12  20
TORSDOF 8
ENDMDL
MODEL 10
REMARK VINA RESULT:      -6.0     27.242     29.683
REMARK  Name = 75536398
REMARK  10 active torsions:
REMARK  status: ('A' for Active; 'I' for Inactive)
REMARK    1  A    between atoms: O_2  and  C_11
REMARK    2  A    between atoms: O_5  and  C_31
REMARK    3  A    between atoms: O_5  and  C_32
REMARK    4  A    between atoms: N_6  and  C_10
REMARK    5  A    between atoms: N_6  and  C_13
REMARK    6  A    between atoms: C_9  and  C_13
REMARK    7  A    between atoms: C_12  and  C_20
REMARK    8  A    between atoms: C_20  and  C_21
REMARK    9  A    between atoms: C_22  and  C_24
REMARK   10  A    between atoms: C_25  and  C_26
REMARK                            x       y       z     vdW  Elec       q    Type
REMARK                         _______ _______ _______ _____ _____    ______ ____
ROOT
ATOM      1  O   UNL     1      -4.297  -9.167  11.529  0.00  0.00    -0.369 OA
ATOM      9  C   UNL     1      -5.484  -9.001  10.744  0.00  0.00    +0.161 C 
ATOM     11  C   UNL     1      -5.267  -9.465   9.298  0.00  0.00    +0.145 C 
ATOM     12  C   UNL     1      -3.756 -10.489  11.544  0.00  0.00    +0.125 C 
ATOM     14  C   UNL     1      -4.637 -10.853   9.221  0.00  0.00    +0.036 C 
ATOM     15  C   UNL     1      -3.414 -10.948  10.127  0.00  0.00    +0.034 C 
ENDROOT
BRANCH  11   2
ATOM      2  O   UNL     1      -4.382  -8.548   8.649  0.00  0.00    -0.389 OA
ATOM     34  H   UNL     1      -3.530  -8.999   8.527  0.00  0.00    +0.210 HD
ENDBRANCH  11   2
BRANCH   9  13
ATOM     13  C   UNL     1      -6.682  -9.673  11.412  0.00  0.00    +0.115 C 
BRANCH  13   6
ATOM      6  N   UNL     1      -6.958  -9.083  12.714  0.00  0.00    -0.311 NA
ATOM     33  H   UNL     1      -7.436  -8.192  12.577  0.00  0.00    +0.122 HD
BRANCH   6  10
ATOM      3  O   UNL     1     -11.746  -9.729  16.517  0.00  0.00    -0.276 OA
ATOM      7  N   UNL     1      -9.678 -10.376  15.678  0.00  0.00    -0.302 N 
ATOM     10  C   UNL     1      -7.792  -9.971  13.519  0.00  0.00    +0.057 C 
ATOM     16  C   UNL     1      -7.355  -9.915  14.989  0.00  0.00    +0.037 C 
ATOM     17  C   UNL     1      -9.268  -9.574  13.383  0.00  0.00    +0.037 C 
ATOM     18  C   UNL     1      -8.274 -10.763  15.867  0.00  0.00    +0.109 C 
ATOM     19  C   UNL     1     -10.148 -10.430  14.293  0.00  0.00    +0.109 C 
ATOM     22  C   UNL     1     -10.560 -10.016  16.697  0.00  0.00    +0.212 C 
ATOM     24  C   UNL     1      -9.998  -9.981  18.095  0.00  0.00    +0.109 C 
ENDBRANCH   6  10
ENDBRANCH  13   6
ENDBRANCH   9  13
BRANCH  12  20
ATOM     20  C   UNL     1      -2.511 -10.467  12.423  0.00  0.00    +0.090 C 
BRANCH  20  21
ATOM      4  O   UNL     1      -2.538 -10.805  16.011  0.00  0.00    -0.354 OA
ATOM      8  N   UNL     1      -1.896 -10.558  14.804  0.00  0.00    -0.083 NA
ATOM     21  C   UNL     1      -2.849 -10.672  13.875  0.00  0.00    +0.087 A 
ATOM     23  C   UNL     1      -4.101 -10.987  14.431  0.00  0.00    +0.076 A 
ATOM     25  C   UNL     1      -3.850 -11.059  15.775  0.00  0.00    +0.167 A 
BRANCH  25  26
ATOM     26  C   UNL     1      -4.649 -11.333  16.935  0.00  0.00    +0.020 A 
ATOM     27  C   UNL     1      -5.054 -12.639  17.212  0.00  0.00    +0.015 A 
ATOM     28  C   UNL     1      -5.021 -10.293  17.787  0.00  0.00    +0.015 A 
ATOM     29  C   UNL     1      -5.831 -12.904  18.339  0.00  0.00    +0.046 A 
ATOM     30  C   UNL     1      -5.797 -10.558  18.915  0.00  0.00    +0.046 A 
ATOM     31  C   UNL     1      -6.202 -11.864  19.191  0.00  0.00    +0.120 A 
BRANCH  31   5
ATOM      5  O   UNL     1      -6.956 -12.123  20.294  0.00  0.00    -0.495 OA
ATOM     32  C   UNL     1      -8.248 -12.691  20.078  0.00  0.00    +0.277 C 
ENDBRANCH  31   5
ENDBRANCH  25  26
ENDBRANCH  20  21
ENDBRANCH  12  20
TORSDOF 8
ENDMDL
