REMARK  Name = 26763134
REMARK  9 active torsions:
REMARK  status: ('A' for Active; 'I' for Inactive)
REMARK    1  A    between atoms: S_1  and  C_19
REMARK    2  A    between atoms: S_1  and  C_25
REMARK    3  A    between atoms: N_9  and  C_13
REMARK    4  A    between atoms: N_10  and  C_21
REMARK    5  A    between atoms: N_10  and  C_22
REMARK    6  A    between atoms: N_11  and  C_24
REMARK    7  A    between atoms: C_14  and  C_17
REMARK    8  A    between atoms: C_18  and  C_19
REMARK    9  A    between atoms: C_21  and  C_23
REMARK                            x       y       z     vdW  Elec       q    Type
REMARK                         _______ _______ _______ _____ _____    ______ ____
ROOT
ATOM      5  O   UNL     1      -4.541   0.903   0.576  0.00  0.00    -0.275 OA
ATOM      8  N   UNL     1      -2.586   1.070  -0.652  0.00  0.00    -0.287 N 
ATOM     13  C   UNL     1      -0.514   0.831  -1.789  0.00  0.00    +0.094 C 
ATOM     14  C   UNL     1      -2.372  -0.361  -0.808  0.00  0.00    +0.164 C 
ATOM     15  C   UNL     1      -1.287  -0.487  -1.876  0.00  0.00    +0.056 C 
ATOM     16  C   UNL     1      -1.580   1.843  -1.381  0.00  0.00    +0.131 C 
ATOM     18  C   UNL     1      -3.713   1.585  -0.031  0.00  0.00    +0.226 C 
ENDROOT
BRANCH  13   9
ATOM      6  O   UNL     1       2.210   0.112  -2.304  0.00  0.00    -0.252 OA
ATOM      9  N   UNL     1       0.556   0.763  -0.826  0.00  0.00    -0.295 N 
ATOM     11  N   UNL     1       2.683   0.421  -0.026  0.00  0.00    -0.267 N 
ATOM     20  C   UNL     1       1.867   0.401  -1.161  0.00  0.00    +0.304 C 
ATOM     31  H   UNL     1       0.338   0.928   0.152  0.00  0.00    +0.151 HD
ATOM     32  H   UNL     1       2.242   0.684   0.852  0.00  0.00    +0.156 HD
BRANCH  11  24
ATOM      2  F   UNL     1       4.061   0.548   2.393  0.00  0.00    -0.203 F 
ATOM      3  F   UNL     1       8.090  -0.761   0.287  0.00  0.00    -0.205 F 
ATOM     24  C   UNL     1       4.063   0.120   0.057  0.00  0.00    +0.070 A 
ATOM     26  C   UNL     1       4.723   0.193   1.283  0.00  0.00    +0.147 A 
ATOM     27  C   UNL     1       4.763  -0.250  -1.092  0.00  0.00    +0.029 A 
ATOM     28  C   UNL     1       6.083  -0.105   1.361  0.00  0.00    +0.078 A 
ATOM     29  C   UNL     1       6.123  -0.548  -1.014  0.00  0.00    +0.040 A 
ATOM     30  C   UNL     1       6.784  -0.475   0.213  0.00  0.00    +0.126 A 
ENDBRANCH  11  24
ENDBRANCH  13   9
BRANCH  14  17
ATOM      4  O   UNL     1      -1.283  -0.211   1.282  0.00  0.00    -0.274 OA
ATOM     10  N   UNL     1      -2.257  -2.257   0.762  0.00  0.00    -0.294 N 
ATOM     17  C   UNL     1      -1.919  -0.927   0.504  0.00  0.00    +0.236 C 
ATOM     22  C   UNL     1      -1.880  -2.931   1.998  0.00  0.00    +0.132 C 
BRANCH  10  21
ATOM     21  C   UNL     1      -3.013  -3.069  -0.187  0.00  0.00    +0.202 C 
BRANCH  21  23
ATOM      7  O   UNL     1      -4.959  -2.269   1.011  0.00  0.00    -0.274 OA
ATOM     12  N   UNL     1      -5.260  -3.662  -0.793  0.00  0.00    -0.328 N 
ATOM     23  C   UNL     1      -4.493  -2.927   0.085  0.00  0.00    +0.228 C 
ATOM     33  H   UNL     1      -4.851  -4.210  -1.543  0.00  0.00    +0.145 HD
ATOM     34  H   UNL     1      -6.272  -3.672  -0.720  0.00  0.00    +0.145 HD
ENDBRANCH  21  23
ENDBRANCH  10  21
ENDBRANCH  14  17
BRANCH  18  19
ATOM     19  C   UNL     1      -3.881   3.081  -0.125  0.00  0.00    +0.164 C 
BRANCH  19   1
ATOM      1  S   UNL     1      -3.063   3.814   1.300  0.00  0.00    -0.155 S 
ATOM     25  C   UNL     1      -3.405   5.557   0.952  0.00  0.00    +0.085 C 
ENDBRANCH  19   1
ENDBRANCH  18  19
TORSDOF 7
