MODEL 1
REMARK VINA RESULT:      -6.9      0.000      0.000
REMARK  Name = 26744030
REMARK  8 active torsions:
REMARK  status: ('A' for Active; 'I' for Inactive)
REMARK    1  A    between atoms: S_1  and  C_18
REMARK    2  A    between atoms: S_1  and  C_22
REMARK    3  A    between atoms: O_2  and  C_12
REMARK    4  A    between atoms: N_6  and  C_14
REMARK    5  A    between atoms: C_10  and  C_15
REMARK    6  A    between atoms: C_14  and  C_16
REMARK    7  A    between atoms: C_17  and  C_18
REMARK    8  A    between atoms: C_26  and  C_29
REMARK                            x       y       z     vdW  Elec       q    Type
REMARK                         _______ _______ _______ _____ _____    ______ ____
ROOT
ATOM      3  O   UNL     1      -5.333 -11.705  17.090  0.00  0.00    -0.336 OA
ATOM      7  N   UNL     1      -5.588  -9.828  15.894  0.00  0.00    -0.193 NA
ATOM      8  N   UNL     1      -6.550 -11.143  17.500  0.00  0.00    -0.060 NA
ATOM     15  C   UNL     1      -4.833 -10.868  16.145  0.00  0.00    +0.245 A 
ATOM     17  C   UNL     1      -6.629 -10.040  16.750  0.00  0.00    +0.193 A 
ENDROOT
BRANCH  15  10
ATOM      6  N   UNL     1      -3.237 -10.559  14.259  0.00  0.00    -0.285 NA
ATOM     10  C   UNL     1      -3.503 -11.258  15.532  0.00  0.00    +0.149 C 
ATOM     11  C   UNL     1      -2.306 -10.906  16.433  0.00  0.00    +0.061 C 
ATOM     12  C   UNL     1      -1.398 -10.044  15.565  0.00  0.00    +0.130 C 
ATOM     13  C   UNL     1      -1.785 -10.436  14.151  0.00  0.00    +0.116 C 
BRANCH  12   2
ATOM      2  O   UNL     1      -0.038 -10.319  15.833  0.00  0.00    -0.390 OA
ATOM     30  H   UNL     1       0.025 -10.606  16.760  0.00  0.00    +0.210 HD
ENDBRANCH  12   2
BRANCH   6  14
ATOM     14  C   UNL     1      -3.817 -11.229  13.103  0.00  0.00    +0.122 C 
BRANCH  14  16
ATOM      9  N   UNL     1      -5.667  -8.642  11.049  0.00  0.00    -0.263 NA
ATOM     16  C   UNL     1      -4.141 -10.259  11.997  0.00  0.00    -0.015 A 
ATOM     19  C   UNL     1      -3.268 -10.072  10.931  0.00  0.00    +0.008 A 
ATOM     20  C   UNL     1      -5.317  -9.527  12.009  0.00  0.00    +0.115 A 
ATOM     21  C   UNL     1      -3.594  -9.170   9.924  0.00  0.00    +0.020 A 
ATOM     23  C   UNL     1      -4.794  -8.486  10.028  0.00  0.00    +0.111 A 
ENDBRANCH  14  16
ENDBRANCH   6  14
ENDBRANCH  15  10
BRANCH  17  18
ATOM     18  C   UNL     1      -7.766  -9.118  16.841  0.00  0.00    +0.251 C 
BRANCH  18   1
ATOM      1  S   UNL     1      -9.190  -9.900  16.133  0.00  0.00    +0.004 S 
ATOM      4  O   UNL     1      -9.900 -10.569  17.207  0.00  0.00    -0.169 OA
ATOM      5  O   UNL     1      -8.773 -10.638  14.955  0.00  0.00    -0.169 OA
BRANCH   1  22
ATOM     22  C   UNL     1     -10.182  -8.550  15.577  0.00  0.00    +0.089 A 
ATOM     24  C   UNL     1     -11.061  -8.724  14.508  0.00  0.00    +0.027 A 
ATOM     25  C   UNL     1     -10.086  -7.308  16.205  0.00  0.00    +0.027 A 
ATOM     26  C   UNL     1     -11.746  -6.415  14.694  0.00  0.00    -0.050 A 
ATOM     27  C   UNL     1     -11.842  -7.657  14.066  0.00  0.00    +0.005 A 
ATOM     28  C   UNL     1     -10.868  -6.240  15.763  0.00  0.00    +0.005 A 
ATOM     29  C   UNL     1     -12.583  -5.274  14.221  0.00  0.00    +0.044 C 
ENDBRANCH   1  22
ENDBRANCH  18   1
ENDBRANCH  17  18
TORSDOF 7
ENDMDL
MODEL 2
REMARK VINA RESULT:      -6.8      3.136      3.799
REMARK  Name = 26744030
REMARK  8 active torsions:
REMARK  status: ('A' for Active; 'I' for Inactive)
REMARK    1  A    between atoms: S_1  and  C_18
REMARK    2  A    between atoms: S_1  and  C_22
REMARK    3  A    between atoms: O_2  and  C_12
REMARK    4  A    between atoms: N_6  and  C_14
REMARK    5  A    between atoms: C_10  and  C_15
REMARK    6  A    between atoms: C_14  and  C_16
REMARK    7  A    between atoms: C_17  and  C_18
REMARK    8  A    between atoms: C_26  and  C_29
REMARK                            x       y       z     vdW  Elec       q    Type
REMARK                         _______ _______ _______ _____ _____    ______ ____
ROOT
ATOM      3  O   UNL     1      -5.213  -9.627  16.204  0.00  0.00    -0.336 OA
ATOM      7  N   UNL     1      -5.913 -11.741  16.452  0.00  0.00    -0.193 NA
ATOM      8  N   UNL     1      -6.507  -9.550  16.735  0.00  0.00    -0.060 NA
ATOM     15  C   UNL     1      -4.942 -10.951  16.068  0.00  0.00    +0.245 A 
ATOM     17  C   UNL     1      -6.852 -10.836  16.853  0.00  0.00    +0.193 A 
ENDROOT
BRANCH  15  10
ATOM      6  N   UNL     1      -3.276 -10.587  14.253  0.00  0.00    -0.285 NA
ATOM     10  C   UNL     1      -3.580 -11.308  15.506  0.00  0.00    +0.149 C 
ATOM     11  C   UNL     1      -2.429 -10.943  16.460  0.00  0.00    +0.061 C 
ATOM     12  C   UNL     1      -1.504 -10.052  15.641  0.00  0.00    +0.130 C 
ATOM     13  C   UNL     1      -1.824 -10.433  14.208  0.00  0.00    +0.116 C 
BRANCH  12   2
ATOM      2  O   UNL     1      -0.150 -10.302  15.961  0.00  0.00    -0.390 OA
ATOM     30  H   UNL     1       0.083 -11.169  15.585  0.00  0.00    +0.210 HD
ENDBRANCH  12   2
BRANCH   6  14
ATOM     14  C   UNL     1      -3.794 -11.255  13.067  0.00  0.00    +0.122 C 
BRANCH  14  16
ATOM      9  N   UNL     1      -5.636  -8.645  11.034  0.00  0.00    -0.263 NA
ATOM     16  C   UNL     1      -4.116 -10.275  11.968  0.00  0.00    -0.015 A 
ATOM     19  C   UNL     1      -3.243 -10.085  10.902  0.00  0.00    +0.008 A 
ATOM     20  C   UNL     1      -5.288  -9.538  11.988  0.00  0.00    +0.115 A 
ATOM     21  C   UNL     1      -3.567  -9.174   9.902  0.00  0.00    +0.020 A 
ATOM     23  C   UNL     1      -4.764  -8.486  10.013  0.00  0.00    +0.111 A 
ENDBRANCH  14  16
ENDBRANCH   6  14
ENDBRANCH  15  10
BRANCH  17  18
ATOM     18  C   UNL     1      -8.157 -11.245  17.381  0.00  0.00    +0.251 C 
BRANCH  18   1
ATOM      1  S   UNL     1      -7.994 -11.558  19.117  0.00  0.00    +0.004 S 
ATOM      4  O   UNL     1      -7.275 -10.440  19.697  0.00  0.00    -0.169 OA
ATOM      5  O   UNL     1      -7.514 -12.916  19.298  0.00  0.00    -0.169 OA
BRANCH   1  22
ATOM     22  C   UNL     1      -9.656 -11.511  19.714  0.00  0.00    +0.089 A 
ATOM     24  C   UNL     1     -10.259 -12.675  20.192  0.00  0.00    +0.027 A 
ATOM     25  C   UNL     1     -10.366 -10.311  19.706  0.00  0.00    +0.027 A 
ATOM     26  C   UNL     1     -12.282 -11.438  20.651  0.00  0.00    -0.050 A 
ATOM     27  C   UNL     1     -11.571 -12.638  20.660  0.00  0.00    +0.005 A 
ATOM     28  C   UNL     1     -11.680 -10.274  20.174  0.00  0.00    +0.005 A 
ATOM     29  C   UNL     1     -13.687 -11.400  21.153  0.00  0.00    +0.044 C 
ENDBRANCH   1  22
ENDBRANCH  18   1
ENDBRANCH  17  18
TORSDOF 7
ENDMDL
MODEL 3
REMARK VINA RESULT:      -6.7      2.028      2.631
REMARK  Name = 26744030
REMARK  8 active torsions:
REMARK  status: ('A' for Active; 'I' for Inactive)
REMARK    1  A    between atoms: S_1  and  C_18
REMARK    2  A    between atoms: S_1  and  C_22
REMARK    3  A    between atoms: O_2  and  C_12
REMARK    4  A    between atoms: N_6  and  C_14
REMARK    5  A    between atoms: C_10  and  C_15
REMARK    6  A    between atoms: C_14  and  C_16
REMARK    7  A    between atoms: C_17  and  C_18
REMARK    8  A    between atoms: C_26  and  C_29
REMARK                            x       y       z     vdW  Elec       q    Type
REMARK                         _______ _______ _______ _____ _____    ______ ____
ROOT
ATOM      3  O   UNL     1      -5.266 -11.825  17.160  0.00  0.00    -0.336 OA
ATOM      7  N   UNL     1      -5.477  -9.847  16.131  0.00  0.00    -0.193 NA
ATOM      8  N   UNL     1      -6.456 -11.261  17.639  0.00  0.00    -0.060 NA
ATOM     15  C   UNL     1      -4.753 -10.928  16.278  0.00  0.00    +0.245 A 
ATOM     17  C   UNL     1      -6.510 -10.097  16.986  0.00  0.00    +0.193 A 
ENDROOT
BRANCH  15  10
ATOM      6  N   UNL     1      -3.238 -10.597  14.331  0.00  0.00    -0.285 NA
ATOM     10  C   UNL     1      -3.449 -11.308  15.609  0.00  0.00    +0.149 C 
ATOM     11  C   UNL     1      -2.217 -10.958  16.463  0.00  0.00    +0.061 C 
ATOM     12  C   UNL     1      -1.349 -10.086  15.566  0.00  0.00    +0.130 C 
ATOM     13  C   UNL     1      -1.791 -10.467  14.166  0.00  0.00    +0.116 C 
BRANCH  12   2
ATOM      2  O   UNL     1       0.023 -10.357  15.776  0.00  0.00    -0.390 OA
ATOM     30  H   UNL     1       0.395 -10.652  14.926  0.00  0.00    +0.210 HD
ENDBRANCH  12   2
BRANCH   6  14
ATOM     14  C   UNL     1      -3.862 -11.260  13.195  0.00  0.00    +0.122 C 
BRANCH  14  16
ATOM      9  N   UNL     1      -5.706  -8.672  11.137  0.00  0.00    -0.263 NA
ATOM     16  C   UNL     1      -4.183 -10.291  12.088  0.00  0.00    -0.015 A 
ATOM     19  C   UNL     1      -3.309 -10.106  11.022  0.00  0.00    +0.008 A 
ATOM     20  C   UNL     1      -5.358  -9.557  12.098  0.00  0.00    +0.115 A 
ATOM     21  C   UNL     1      -3.632  -9.205  10.014  0.00  0.00    +0.020 A 
ATOM     23  C   UNL     1      -4.832  -8.519  10.117  0.00  0.00    +0.111 A 
ENDBRANCH  14  16
ENDBRANCH   6  14
ENDBRANCH  15  10
BRANCH  17  18
ATOM     18  C   UNL     1      -7.614  -9.149  17.177  0.00  0.00    +0.251 C 
BRANCH  18   1
ATOM      1  S   UNL     1      -9.043  -9.765  16.331  0.00  0.00    +0.004 S 
ATOM      4  O   UNL     1      -8.767 -11.136  15.947  0.00  0.00    -0.169 OA
ATOM      5  O   UNL     1      -9.446  -8.788  15.336  0.00  0.00    -0.169 OA
BRANCH   1  22
ATOM     22  C   UNL     1     -10.296  -9.786  17.575  0.00  0.00    +0.089 A 
ATOM     24  C   UNL     1      -9.987 -10.203  18.870  0.00  0.00    +0.027 A 
ATOM     25  C   UNL     1     -11.596  -9.388  17.264  0.00  0.00    +0.027 A 
ATOM     26  C   UNL     1     -12.277  -9.825  19.539  0.00  0.00    -0.050 A 
ATOM     27  C   UNL     1     -10.977 -10.223  19.851  0.00  0.00    +0.005 A 
ATOM     28  C   UNL     1     -12.587  -9.408  18.245  0.00  0.00    +0.005 A 
ATOM     29  C   UNL     1     -13.335  -9.846  20.591  0.00  0.00    +0.044 C 
ENDBRANCH   1  22
ENDBRANCH  18   1
ENDBRANCH  17  18
TORSDOF 7
ENDMDL
MODEL 4
REMARK VINA RESULT:      -6.5     27.228     29.826
REMARK  Name = 26744030
REMARK  8 active torsions:
REMARK  status: ('A' for Active; 'I' for Inactive)
REMARK    1  A    between atoms: S_1  and  C_18
REMARK    2  A    between atoms: S_1  and  C_22
REMARK    3  A    between atoms: O_2  and  C_12
REMARK    4  A    between atoms: N_6  and  C_14
REMARK    5  A    between atoms: C_10  and  C_15
REMARK    6  A    between atoms: C_14  and  C_16
REMARK    7  A    between atoms: C_17  and  C_18
REMARK    8  A    between atoms: C_26  and  C_29
REMARK                            x       y       z     vdW  Elec       q    Type
REMARK                         _______ _______ _______ _____ _____    ______ ____
ROOT
ATOM      3  O   UNL     1      14.843  10.149  19.257  0.00  0.00    -0.336 OA
ATOM      7  N   UNL     1      13.183  10.445  17.782  0.00  0.00    -0.193 NA
ATOM      8  N   UNL     1      15.323  11.060  18.307  0.00  0.00    -0.060 NA
ATOM     15  C   UNL     1      13.577   9.838  18.872  0.00  0.00    +0.245 A 
ATOM     17  C   UNL     1      14.288  11.183  17.471  0.00  0.00    +0.193 A 
ENDROOT
BRANCH  15  10
ATOM      6  N   UNL     1      13.728   8.018  20.564  0.00  0.00    -0.285 NA
ATOM     10  C   UNL     1      12.827   8.857  19.749  0.00  0.00    +0.149 C 
ATOM     11  C   UNL     1      11.907   9.553  20.769  0.00  0.00    +0.061 C 
ATOM     12  C   UNL     1      12.336   9.008  22.125  0.00  0.00    +0.130 C 
ATOM     13  C   UNL     1      12.993   7.684  21.783  0.00  0.00    +0.116 C 
BRANCH  12   2
ATOM      2  O   UNL     1      11.219   8.836  22.974  0.00  0.00    -0.390 OA
ATOM     30  H   UNL     1      11.069   9.680  23.434  0.00  0.00    +0.210 HD
ENDBRANCH  12   2
BRANCH   6  14
ATOM     14  C   UNL     1      14.198   6.830  19.865  0.00  0.00    +0.122 C 
BRANCH  14  16
ATOM      9  N   UNL     1      17.765   5.863  19.045  0.00  0.00    -0.263 NA
ATOM     16  C   UNL     1      15.688   6.655  19.994  0.00  0.00    -0.015 A 
ATOM     19  C   UNL     1      16.364   7.094  21.128  0.00  0.00    +0.008 A 
ATOM     20  C   UNL     1      16.427   6.051  18.991  0.00  0.00    +0.115 A 
ATOM     21  C   UNL     1      17.740   6.919  21.220  0.00  0.00    +0.020 A 
ATOM     23  C   UNL     1      18.389   6.303  20.162  0.00  0.00    +0.111 A 
ENDBRANCH  14  16
ENDBRANCH   6  14
ENDBRANCH  15  10
BRANCH  17  18
ATOM     18  C   UNL     1      14.338  12.059  16.296  0.00  0.00    +0.251 C 
BRANCH  18   1
ATOM      1  S   UNL     1      14.332  11.053  14.838  0.00  0.00    +0.004 S 
ATOM      4  O   UNL     1      13.147  11.397  14.074  0.00  0.00    -0.169 OA
ATOM      5  O   UNL     1      14.585   9.678  15.225  0.00  0.00    -0.169 OA
BRANCH   1  22
ATOM     22  C   UNL     1      15.746  11.607  13.935  0.00  0.00    +0.089 A 
ATOM     24  C   UNL     1      16.948  11.845  14.600  0.00  0.00    +0.027 A 
ATOM     25  C   UNL     1      15.659  11.808  12.558  0.00  0.00    +0.027 A 
ATOM     26  C   UNL     1      17.977  12.487  12.511  0.00  0.00    -0.050 A 
ATOM     27  C   UNL     1      18.063  12.286  13.889  0.00  0.00    +0.005 A 
ATOM     28  C   UNL     1      16.775  12.249  11.845  0.00  0.00    +0.005 A 
ATOM     29  C   UNL     1      19.171  12.958  11.750  0.00  0.00    +0.044 C 
ENDBRANCH   1  22
ENDBRANCH  18   1
ENDBRANCH  17  18
TORSDOF 7
ENDMDL
MODEL 5
REMARK VINA RESULT:      -6.5      1.616      2.200
REMARK  Name = 26744030
REMARK  8 active torsions:
REMARK  status: ('A' for Active; 'I' for Inactive)
REMARK    1  A    between atoms: S_1  and  C_18
REMARK    2  A    between atoms: S_1  and  C_22
REMARK    3  A    between atoms: O_2  and  C_12
REMARK    4  A    between atoms: N_6  and  C_14
REMARK    5  A    between atoms: C_10  and  C_15
REMARK    6  A    between atoms: C_14  and  C_16
REMARK    7  A    between atoms: C_17  and  C_18
REMARK    8  A    between atoms: C_26  and  C_29
REMARK                            x       y       z     vdW  Elec       q    Type
REMARK                         _______ _______ _______ _____ _____    ______ ____
ROOT
ATOM      3  O   UNL     1      -5.886 -10.795  14.866  0.00  0.00    -0.336 OA
ATOM      7  N   UNL     1      -5.667 -12.129  16.652  0.00  0.00    -0.193 NA
ATOM      8  N   UNL     1      -7.150 -10.852  15.467  0.00  0.00    -0.060 NA
ATOM     15  C   UNL     1      -5.073 -11.575  15.625  0.00  0.00    +0.245 A 
ATOM     17  C   UNL     1      -6.940 -11.657  16.513  0.00  0.00    +0.193 A 
ENDROOT
BRANCH  15  10
ATOM      6  N   UNL     1      -3.318 -10.791  14.043  0.00  0.00    -0.285 NA
ATOM     10  C   UNL     1      -3.629 -11.680  15.180  0.00  0.00    +0.149 C 
ATOM     11  C   UNL     1      -2.635 -11.272  16.283  0.00  0.00    +0.061 C 
ATOM     12  C   UNL     1      -1.778 -10.180  15.658  0.00  0.00    +0.130 C 
ATOM     13  C   UNL     1      -1.905 -10.439  14.168  0.00  0.00    +0.116 C 
BRANCH  12   2
ATOM      2  O   UNL     1      -0.437 -10.280  16.095  0.00  0.00    -0.390 OA
ATOM     30  H   UNL     1      -0.129 -11.180  15.888  0.00  0.00    +0.210 HD
ENDBRANCH  12   2
BRANCH   6  14
ATOM     14  C   UNL     1      -3.623 -11.385  12.749  0.00  0.00    +0.122 C 
BRANCH  14  16
ATOM      9  N   UNL     1      -5.586  -8.680  10.971  0.00  0.00    -0.263 NA
ATOM     16  C   UNL     1      -4.006 -10.344  11.730  0.00  0.00    -0.015 A 
ATOM     19  C   UNL     1      -3.186 -10.074  10.639  0.00  0.00    +0.008 A 
ATOM     20  C   UNL     1      -5.184  -9.626  11.850  0.00  0.00    +0.115 A 
ATOM     21  C   UNL     1      -3.566  -9.108   9.714  0.00  0.00    +0.020 A 
ATOM     23  C   UNL     1      -4.764  -8.445   9.923  0.00  0.00    +0.111 A 
ENDBRANCH  14  16
ENDBRANCH   6  14
ENDBRANCH  15  10
BRANCH  17  18
ATOM     18  C   UNL     1      -8.011 -12.008  17.451  0.00  0.00    +0.251 C 
BRANCH  18   1
ATOM      1  S   UNL     1      -8.184 -10.698  18.631  0.00  0.00    +0.004 S 
ATOM      4  O   UNL     1      -6.930  -9.968  18.660  0.00  0.00    -0.169 OA
ATOM      5  O   UNL     1      -8.744 -11.247  19.852  0.00  0.00    -0.169 OA
BRANCH   1  22
ATOM     22  C   UNL     1      -9.414  -9.647  17.922  0.00  0.00    +0.089 A 
ATOM     24  C   UNL     1      -9.033  -8.513  17.205  0.00  0.00    +0.027 A 
ATOM     25  C   UNL     1     -10.766  -9.950  18.082  0.00  0.00    +0.027 A 
ATOM     26  C   UNL     1     -11.356  -7.985  16.808  0.00  0.00    -0.050 A 
ATOM     27  C   UNL     1     -10.004  -7.682  16.648  0.00  0.00    +0.005 A 
ATOM     28  C   UNL     1     -11.738  -9.119  17.525  0.00  0.00    +0.005 A 
ATOM     29  C   UNL     1     -12.395  -7.095  16.211  0.00  0.00    +0.044 C 
ENDBRANCH   1  22
ENDBRANCH  18   1
ENDBRANCH  17  18
TORSDOF 7
ENDMDL
MODEL 6
REMARK VINA RESULT:      -6.4      2.715      6.770
REMARK  Name = 26744030
REMARK  8 active torsions:
REMARK  status: ('A' for Active; 'I' for Inactive)
REMARK    1  A    between atoms: S_1  and  C_18
REMARK    2  A    between atoms: S_1  and  C_22
REMARK    3  A    between atoms: O_2  and  C_12
REMARK    4  A    between atoms: N_6  and  C_14
REMARK    5  A    between atoms: C_10  and  C_15
REMARK    6  A    between atoms: C_14  and  C_16
REMARK    7  A    between atoms: C_17  and  C_18
REMARK    8  A    between atoms: C_26  and  C_29
REMARK                            x       y       z     vdW  Elec       q    Type
REMARK                         _______ _______ _______ _____ _____    ______ ____
ROOT
ATOM      3  O   UNL     1      -4.508 -11.451  18.636  0.00  0.00    -0.336 OA
ATOM      7  N   UNL     1      -4.810 -10.180  16.817  0.00  0.00    -0.193 NA
ATOM      8  N   UNL     1      -3.331 -11.560  17.884  0.00  0.00    -0.060 NA
ATOM     15  C   UNL     1      -5.326 -10.621  17.937  0.00  0.00    +0.245 A 
ATOM     17  C   UNL     1      -3.587 -10.783  16.828  0.00  0.00    +0.193 A 
ENDROOT
BRANCH  15  10
ATOM      6  N   UNL     1      -7.777 -10.409  17.560  0.00  0.00    -0.285 NA
ATOM     10  C   UNL     1      -6.682 -10.335  18.548  0.00  0.00    +0.149 C 
ATOM     11  C   UNL     1      -7.068 -11.348  19.641  0.00  0.00    +0.061 C 
ATOM     12  C   UNL     1      -8.416 -11.907  19.204  0.00  0.00    +0.130 C 
ATOM     13  C   UNL     1      -8.970 -10.825  18.296  0.00  0.00    +0.116 C 
BRANCH  12   2
ATOM      2  O   UNL     1      -9.252 -12.133  20.321  0.00  0.00    -0.390 OA
ATOM     30  H   UNL     1      -8.953 -12.955  20.748  0.00  0.00    +0.210 HD
ENDBRANCH  12   2
BRANCH   6  14
ATOM     14  C   UNL     1      -7.986  -9.161  16.839  0.00  0.00    +0.122 C 
BRANCH  14  16
ATOM      9  N   UNL     1     -10.426  -9.207  13.945  0.00  0.00    -0.263 NA
ATOM     16  C   UNL     1      -8.557  -9.397  15.465  0.00  0.00    -0.015 A 
ATOM     19  C   UNL     1      -7.796  -9.998  14.467  0.00  0.00    +0.008 A 
ATOM     20  C   UNL     1      -9.854  -9.024  15.156  0.00  0.00    +0.115 A 
ATOM     21  C   UNL     1      -8.350 -10.203  13.209  0.00  0.00    +0.020 A 
ATOM     23  C   UNL     1      -9.657  -9.794  13.000  0.00  0.00    +0.111 A 
ENDBRANCH  14  16
ENDBRANCH   6  14
ENDBRANCH  15  10
BRANCH  17  18
ATOM     18  C   UNL     1      -2.611 -10.591  15.750  0.00  0.00    +0.251 C 
BRANCH  18   1
ATOM      1  S   UNL     1      -2.844 -11.863  14.540  0.00  0.00    +0.004 S 
ATOM      4  O   UNL     1      -4.028 -12.613  14.917  0.00  0.00    -0.169 OA
ATOM      5  O   UNL     1      -1.578 -12.541  14.332  0.00  0.00    -0.169 OA
BRANCH   1  22
ATOM     22  C   UNL     1      -3.207 -10.975  13.057  0.00  0.00    +0.089 A 
ATOM     24  C   UNL     1      -4.522 -10.614  12.764  0.00  0.00    +0.027 A 
ATOM     25  C   UNL     1      -2.179 -10.637  12.177  0.00  0.00    +0.027 A 
ATOM     26  C   UNL     1      -3.781  -9.578  10.711  0.00  0.00    -0.050 A 
ATOM     27  C   UNL     1      -4.809  -9.916  11.591  0.00  0.00    +0.005 A 
ATOM     28  C   UNL     1      -2.466  -9.939  11.003  0.00  0.00    +0.005 A 
ATOM     29  C   UNL     1      -4.089  -8.831   9.457  0.00  0.00    +0.044 C 
ENDBRANCH   1  22
ENDBRANCH  18   1
ENDBRANCH  17  18
TORSDOF 7
ENDMDL
MODEL 7
REMARK VINA RESULT:      -6.3     25.002     27.730
REMARK  Name = 26744030
REMARK  8 active torsions:
REMARK  status: ('A' for Active; 'I' for Inactive)
REMARK    1  A    between atoms: S_1  and  C_18
REMARK    2  A    between atoms: S_1  and  C_22
REMARK    3  A    between atoms: O_2  and  C_12
REMARK    4  A    between atoms: N_6  and  C_14
REMARK    5  A    between atoms: C_10  and  C_15
REMARK    6  A    between atoms: C_14  and  C_16
REMARK    7  A    between atoms: C_17  and  C_18
REMARK    8  A    between atoms: C_26  and  C_29
REMARK                            x       y       z     vdW  Elec       q    Type
REMARK                         _______ _______ _______ _____ _____    ______ ____
ROOT
ATOM      3  O   UNL     1       9.826   5.933   2.483  0.00  0.00    -0.336 OA
ATOM      7  N   UNL     1      11.010   4.573   3.810  0.00  0.00    -0.193 NA
ATOM      8  N   UNL     1      10.510   5.055   1.632  0.00  0.00    -0.060 NA
ATOM     15  C   UNL     1      10.178   5.581   3.747  0.00  0.00    +0.245 A 
ATOM     17  C   UNL     1      11.185   4.285   2.488  0.00  0.00    +0.193 A 
ENDROOT
BRANCH  15  10
ATOM      6  N   UNL     1      10.441   7.484   5.330  0.00  0.00    -0.285 NA
ATOM     10  C   UNL     1       9.562   6.390   4.870  0.00  0.00    +0.149 C 
ATOM     11  C   UNL     1       8.252   7.084   4.455  0.00  0.00    +0.061 C 
ATOM     12  C   UNL     1       8.473   8.559   4.761  0.00  0.00    +0.130 C 
ATOM     13  C   UNL     1       9.560   8.543   5.819  0.00  0.00    +0.116 C 
BRANCH  12   2
ATOM      2  O   UNL     1       7.284   9.157   5.239  0.00  0.00    -0.390 OA
ATOM     30  H   UNL     1       7.498  10.073   5.489  0.00  0.00    +0.210 HD
ENDBRANCH  12   2
BRANCH   6  14
ATOM     14  C   UNL     1      11.403   7.062   6.339  0.00  0.00    +0.122 C 
BRANCH  14  16
ATOM      9  N   UNL     1      15.158   7.529   6.467  0.00  0.00    -0.263 NA
ATOM     16  C   UNL     1      12.822   7.294   5.891  0.00  0.00    -0.015 A 
ATOM     19  C   UNL     1      13.126   7.485   4.547  0.00  0.00    +0.008 A 
ATOM     20  C   UNL     1      13.864   7.325   6.803  0.00  0.00    +0.115 A 
ATOM     21  C   UNL     1      14.445   7.698   4.163  0.00  0.00    +0.020 A 
ATOM     23  C   UNL     1      15.416   7.711   5.152  0.00  0.00    +0.111 A 
ENDBRANCH  14  16
ENDBRANCH   6  14
ENDBRANCH  15  10
BRANCH  17  18
ATOM     18  C   UNL     1      12.058   3.197   2.034  0.00  0.00    +0.251 C 
BRANCH  18   1
ATOM      1  S   UNL     1      13.550   3.899   1.386  0.00  0.00    +0.004 S 
ATOM      4  O   UNL     1      14.651   3.055   1.811  0.00  0.00    -0.169 OA
ATOM      5  O   UNL     1      13.557   5.320   1.681  0.00  0.00    -0.169 OA
BRANCH   1  22
ATOM     22  C   UNL     1      13.373   3.732  -0.363  0.00  0.00    +0.089 A 
ATOM     24  C   UNL     1      14.213   4.443  -1.220  0.00  0.00    +0.027 A 
ATOM     25  C   UNL     1      12.392   2.892  -0.888  0.00  0.00    +0.027 A 
ATOM     26  C   UNL     1      13.090   3.473  -3.126  0.00  0.00    -0.050 A 
ATOM     27  C   UNL     1      14.071   4.314  -2.601  0.00  0.00    +0.005 A 
ATOM     28  C   UNL     1      12.249   2.762  -2.269  0.00  0.00    +0.005 A 
ATOM     29  C   UNL     1      12.939   3.335  -4.604  0.00  0.00    +0.044 C 
ENDBRANCH   1  22
ENDBRANCH  18   1
ENDBRANCH  17  18
TORSDOF 7
ENDMDL
MODEL 8
REMARK VINA RESULT:      -6.2     18.533     21.868
REMARK  Name = 26744030
REMARK  8 active torsions:
REMARK  status: ('A' for Active; 'I' for Inactive)
REMARK    1  A    between atoms: S_1  and  C_18
REMARK    2  A    between atoms: S_1  and  C_22
REMARK    3  A    between atoms: O_2  and  C_12
REMARK    4  A    between atoms: N_6  and  C_14
REMARK    5  A    between atoms: C_10  and  C_15
REMARK    6  A    between atoms: C_14  and  C_16
REMARK    7  A    between atoms: C_17  and  C_18
REMARK    8  A    between atoms: C_26  and  C_29
REMARK                            x       y       z     vdW  Elec       q    Type
REMARK                         _______ _______ _______ _____ _____    ______ ____
ROOT
ATOM      3  O   UNL     1     -12.764  10.796  19.162  0.00  0.00    -0.336 OA
ATOM      7  N   UNL     1     -11.981  10.707  21.259  0.00  0.00    -0.193 NA
ATOM      8  N   UNL     1     -13.455  11.782  19.879  0.00  0.00    -0.060 NA
ATOM     15  C   UNL     1     -11.918  10.210  20.049  0.00  0.00    +0.245 A 
ATOM     17  C   UNL     1     -12.938  11.667  21.105  0.00  0.00    +0.193 A 
ENDROOT
BRANCH  15  10
ATOM      6  N   UNL     1     -11.733   7.790  19.498  0.00  0.00    -0.285 NA
ATOM     10  C   UNL     1     -11.043   9.096  19.514  0.00  0.00    +0.149 C 
ATOM     11  C   UNL     1     -10.607   9.329  18.056  0.00  0.00    +0.061 C 
ATOM     12  C   UNL     1     -11.055   8.082  17.305  0.00  0.00    +0.130 C 
ATOM     13  C   UNL     1     -11.151   7.029  18.393  0.00  0.00    +0.116 C 
BRANCH  12   2
ATOM      2  O   UNL     1     -10.111   7.727  16.314  0.00  0.00    -0.390 OA
ATOM     30  H   UNL     1      -9.400   7.229  16.753  0.00  0.00    +0.210 HD
ENDBRANCH  12   2
BRANCH   6  14
ATOM     14  C   UNL     1     -11.641   7.075  20.764  0.00  0.00    +0.122 C 
BRANCH  14  16
ATOM      9  N   UNL     1     -15.386   6.847  21.262  0.00  0.00    -0.263 NA
ATOM     16  C   UNL     1     -12.985   6.577  21.225  0.00  0.00    -0.015 A 
ATOM     19  C   UNL     1     -13.093   5.436  22.013  0.00  0.00    +0.008 A 
ATOM     20  C   UNL     1     -14.150   7.241  20.880  0.00  0.00    +0.115 A 
ATOM     21  C   UNL     1     -14.347   5.000  22.425  0.00  0.00    +0.020 A 
ATOM     23  C   UNL     1     -15.453   5.733  22.027  0.00  0.00    +0.111 A 
ENDBRANCH  14  16
ENDBRANCH   6  14
ENDBRANCH  15  10
BRANCH  17  18
ATOM     18  C   UNL     1     -13.372  12.523  22.215  0.00  0.00    +0.251 C 
BRANCH  18   1
ATOM      1  S   UNL     1     -14.495  11.606  23.233  0.00  0.00    +0.004 S 
ATOM      4  O   UNL     1     -14.872  10.411  22.501  0.00  0.00    -0.169 OA
ATOM      5  O   UNL     1     -15.510  12.514  23.733  0.00  0.00    -0.169 OA
BRANCH   1  22
ATOM     22  C   UNL     1     -13.510  11.116  24.615  0.00  0.00    +0.089 A 
ATOM     24  C   UNL     1     -14.123  10.646  25.776  0.00  0.00    +0.027 A 
ATOM     25  C   UNL     1     -12.120  11.201  24.546  0.00  0.00    +0.027 A 
ATOM     26  C   UNL     1     -11.955  10.348  26.799  0.00  0.00    -0.050 A 
ATOM     27  C   UNL     1     -13.346  10.263  26.868  0.00  0.00    +0.005 A 
ATOM     28  C   UNL     1     -11.342  10.817  25.638  0.00  0.00    +0.005 A 
ATOM     29  C   UNL     1     -11.124   9.936  27.968  0.00  0.00    +0.044 C 
ENDBRANCH   1  22
ENDBRANCH  18   1
ENDBRANCH  17  18
TORSDOF 7
ENDMDL
MODEL 9
REMARK VINA RESULT:      -6.2     23.771     26.939
REMARK  Name = 26744030
REMARK  8 active torsions:
REMARK  status: ('A' for Active; 'I' for Inactive)
REMARK    1  A    between atoms: S_1  and  C_18
REMARK    2  A    between atoms: S_1  and  C_22
REMARK    3  A    between atoms: O_2  and  C_12
REMARK    4  A    between atoms: N_6  and  C_14
REMARK    5  A    between atoms: C_10  and  C_15
REMARK    6  A    between atoms: C_14  and  C_16
REMARK    7  A    between atoms: C_17  and  C_18
REMARK    8  A    between atoms: C_26  and  C_29
REMARK                            x       y       z     vdW  Elec       q    Type
REMARK                         _______ _______ _______ _____ _____    ______ ____
ROOT
ATOM      3  O   UNL     1      12.734   7.887   1.744  0.00  0.00    -0.336 OA
ATOM      7  N   UNL     1      12.625   7.024   3.808  0.00  0.00    -0.193 NA
ATOM      8  N   UNL     1      11.609   8.462   2.348  0.00  0.00    -0.060 NA
ATOM     15  C   UNL     1      13.273   7.053   2.671  0.00  0.00    +0.245 A 
ATOM     17  C   UNL     1      11.612   7.904   3.562  0.00  0.00    +0.193 A 
ENDROOT
BRANCH  15  10
ATOM      6  N   UNL     1      14.387   5.663   0.932  0.00  0.00    -0.285 NA
ATOM     10  C   UNL     1      14.521   6.299   2.258  0.00  0.00    +0.149 C 
ATOM     11  C   UNL     1      15.754   7.212   2.135  0.00  0.00    +0.061 C 
ATOM     12  C   UNL     1      16.273   6.987   0.721  0.00  0.00    +0.130 C 
ATOM     13  C   UNL     1      15.732   5.617   0.359  0.00  0.00    +0.116 C 
BRANCH  12   2
ATOM      2  O   UNL     1      17.686   7.017   0.693  0.00  0.00    -0.390 OA
ATOM     30  H   UNL     1      17.996   7.047   1.615  0.00  0.00    +0.210 HD
ENDBRANCH  12   2
BRANCH   6  14
ATOM     14  C   UNL     1      13.769   4.345   0.986  0.00  0.00    +0.122 C 
BRANCH  14  16
ATOM      9  N   UNL     1      10.780   4.983  -1.248  0.00  0.00    -0.263 NA
ATOM     16  C   UNL     1      12.743   4.162  -0.101  0.00  0.00    -0.015 A 
ATOM     19  C   UNL     1      12.781   3.055  -0.942  0.00  0.00    +0.008 A 
ATOM     20  C   UNL     1      11.732   5.089  -0.293  0.00  0.00    +0.115 A 
ATOM     21  C   UNL     1      11.820   2.912  -1.937  0.00  0.00    +0.020 A 
ATOM     23  C   UNL     1      10.849   3.895  -2.047  0.00  0.00    +0.111 A 
ENDBRANCH  14  16
ENDBRANCH   6  14
ENDBRANCH  15  10
BRANCH  17  18
ATOM     18  C   UNL     1      10.590   8.221   4.565  0.00  0.00    +0.251 C 
BRANCH  18   1
ATOM      1  S   UNL     1       9.345   6.961   4.524  0.00  0.00    +0.004 S 
ATOM      4  O   UNL     1       9.794   5.932   3.605  0.00  0.00    -0.169 OA
ATOM      5  O   UNL     1       8.052   7.596   4.344  0.00  0.00    -0.169 OA
BRANCH   1  22
ATOM     22  C   UNL     1       9.370   6.288   6.157  0.00  0.00    +0.089 A 
ATOM     24  C   UNL     1       8.934   7.058   7.235  0.00  0.00    +0.027 A 
ATOM     25  C   UNL     1       9.827   4.987   6.368  0.00  0.00    +0.027 A 
ATOM     26  C   UNL     1       9.415   5.226   8.736  0.00  0.00    -0.050 A 
ATOM     27  C   UNL     1       8.957   6.527   8.524  0.00  0.00    +0.005 A 
ATOM     28  C   UNL     1       9.850   4.456   7.658  0.00  0.00    +0.005 A 
ATOM     29  C   UNL     1       9.438   4.659  10.116  0.00  0.00    +0.044 C 
ENDBRANCH   1  22
ENDBRANCH  18   1
ENDBRANCH  17  18
TORSDOF 7
ENDMDL
MODEL 10
REMARK VINA RESULT:      -6.2     25.275     28.890
REMARK  Name = 26744030
REMARK  8 active torsions:
REMARK  status: ('A' for Active; 'I' for Inactive)
REMARK    1  A    between atoms: S_1  and  C_18
REMARK    2  A    between atoms: S_1  and  C_22
REMARK    3  A    between atoms: O_2  and  C_12
REMARK    4  A    between atoms: N_6  and  C_14
REMARK    5  A    between atoms: C_10  and  C_15
REMARK    6  A    between atoms: C_14  and  C_16
REMARK    7  A    between atoms: C_17  and  C_18
REMARK    8  A    between atoms: C_26  and  C_29
REMARK                            x       y       z     vdW  Elec       q    Type
REMARK                         _______ _______ _______ _____ _____    ______ ____
ROOT
ATOM      3  O   UNL     1      11.680   9.189   5.884  0.00  0.00    -0.336 OA
ATOM      7  N   UNL     1      13.092   7.580   6.544  0.00  0.00    -0.193 NA
ATOM      8  N   UNL     1      12.967   9.736   5.792  0.00  0.00    -0.060 NA
ATOM     15  C   UNL     1      11.844   7.918   6.335  0.00  0.00    +0.245 A 
ATOM     17  C   UNL     1      13.743   8.727   6.198  0.00  0.00    +0.193 A 
ENDROOT
BRANCH  15  10
ATOM      6  N   UNL     1      10.619   5.825   5.774  0.00  0.00    -0.285 NA
ATOM     10  C   UNL     1      10.584   7.099   6.520  0.00  0.00    +0.149 C 
ATOM     11  C   UNL     1      10.349   6.691   7.986  0.00  0.00    +0.061 C 
ATOM     12  C   UNL     1      10.219   5.174   7.958  0.00  0.00    +0.130 C 
ATOM     13  C   UNL     1       9.798   4.880   6.530  0.00  0.00    +0.116 C 
BRANCH  12   2
ATOM      2  O   UNL     1       9.251   4.734   8.891  0.00  0.00    -0.390 OA
ATOM     30  H   UNL     1       9.532   3.860   9.213  0.00  0.00    +0.210 HD
ENDBRANCH  12   2
BRANCH   6  14
ATOM     14  C   UNL     1      10.174   5.954   4.393  0.00  0.00    +0.122 C 
BRANCH  14  16
ATOM      9  N   UNL     1      13.197   5.748   2.124  0.00  0.00    -0.263 NA
ATOM     16  C   UNL     1      11.188   5.407   3.424  0.00  0.00    -0.015 A 
ATOM     19  C   UNL     1      11.082   4.110   2.933  0.00  0.00    +0.008 A 
ATOM     20  C   UNL     1      12.254   6.179   2.992  0.00  0.00    +0.115 A 
ATOM     21  C   UNL     1      12.033   3.631   2.039  0.00  0.00    +0.020 A 
ATOM     23  C   UNL     1      13.061   4.482   1.668  0.00  0.00    +0.111 A 
ENDBRANCH  14  16
ENDBRANCH   6  14
ENDBRANCH  15  10
BRANCH  17  18
ATOM     18  C   UNL     1      15.203   8.848   6.264  0.00  0.00    +0.251 C 
BRANCH  18   1
ATOM      1  S   UNL     1      15.875   8.505   4.661  0.00  0.00    +0.004 S 
ATOM      4  O   UNL     1      15.626   9.665   3.826  0.00  0.00    -0.169 OA
ATOM      5  O   UNL     1      15.427   7.189   4.245  0.00  0.00    -0.169 OA
BRANCH   1  22
ATOM     22  C   UNL     1      17.614   8.396   4.945  0.00  0.00    +0.089 A 
ATOM     24  C   UNL     1      18.464   7.988   3.917  0.00  0.00    +0.027 A 
ATOM     25  C   UNL     1      18.138   8.716   6.197  0.00  0.00    +0.027 A 
ATOM     26  C   UNL     1      20.361   8.218   5.395  0.00  0.00    -0.050 A 
ATOM     27  C   UNL     1      19.837   7.899   4.142  0.00  0.00    +0.005 A 
ATOM     28  C   UNL     1      19.512   8.627   6.423  0.00  0.00    +0.005 A 
ATOM     29  C   UNL     1      21.831   8.123   5.634  0.00  0.00    +0.044 C 
ENDBRANCH   1  22
ENDBRANCH  18   1
ENDBRANCH  17  18
TORSDOF 7
ENDMDL
