MODEL 1
REMARK VINA RESULT:      -6.1      0.000      0.000
REMARK  Name = 71694036
REMARK  7 active torsions:
REMARK  status: ('A' for Active; 'I' for Inactive)
REMARK    1  A    between atoms: O_4  and  C_9
REMARK    2  A    between atoms: O_5  and  C_11
REMARK    3  A    between atoms: N_6  and  C_7
REMARK    4  A    between atoms: N_6  and  C_13
REMARK    5  A    between atoms: C_8  and  C_12
REMARK    6  A    between atoms: C_13  and  C_16
REMARK    7  A    between atoms: C_22  and  C_25
REMARK                            x       y       z     vdW  Elec       q    Type
REMARK                         _______ _______ _______ _____ _____    ______ ____
ROOT
ATOM      7  C   UNL     1      12.526   6.029   3.046  0.00  0.00    +0.092 C 
ATOM      8  C   UNL     1      12.694   7.559   3.193  0.00  0.00    +0.041 C 
ATOM      9  C   UNL     1      13.587   5.660   2.009  0.00  0.00    +0.160 C 
ATOM     10  C   UNL     1      14.166   7.853   2.799  0.00  0.00    +0.043 C 
ATOM     11  C   UNL     1      14.785   6.500   2.442  0.00  0.00    +0.145 C 
ENDROOT
BRANCH   8  12
ATOM     12  C   UNL     1      12.304   8.072   4.562  0.00  0.00    -0.043 A 
ATOM     14  C   UNL     1      12.804   7.453   5.708  0.00  0.00    +0.004 A 
ATOM     15  C   UNL     1      11.444   9.164   4.678  0.00  0.00    +0.004 A 
ATOM     17  C   UNL     1      12.444   7.927   6.969  0.00  0.00    +0.000 A 
ATOM     18  C   UNL     1      11.084   9.638   5.940  0.00  0.00    +0.000 A 
ATOM     19  C   UNL     1      11.584   9.018   7.085  0.00  0.00    +0.000 A 
ENDBRANCH   8  12
BRANCH   9   4
ATOM      4  O   UNL     1      13.875   4.275   2.025  0.00  0.00    -0.388 OA
ATOM     27  H   UNL     1      14.840   4.179   2.099  0.00  0.00    +0.210 HD
ENDBRANCH   9   4
BRANCH  11   5
ATOM      5  O   UNL     1      15.389   5.933   3.601  0.00  0.00    -0.389 OA
ATOM     28  H   UNL     1      14.900   5.120   3.816  0.00  0.00    +0.210 HD
ENDBRANCH  11   5
BRANCH   7   6
ATOM      6  N   UNL     1      11.186   5.663   2.603  0.00  0.00    -0.306 NA
ATOM     26  H   UNL     1      10.610   6.502   2.541  0.00  0.00    +0.123 HD
BRANCH   6  13
ATOM     13  C   UNL     1      10.564   4.738   3.540  0.00  0.00    +0.116 C 
BRANCH  13  16
ATOM     16  C   UNL     1       9.859   5.462   4.656  0.00  0.00    -0.033 A 
ATOM     20  C   UNL     1      10.060   5.070   5.979  0.00  0.00    +0.017 A 
ATOM     21  C   UNL     1       9.001   6.524   4.366  0.00  0.00    +0.005 A 
ATOM     22  C   UNL     1       9.406   5.740   7.012  0.00  0.00    +0.055 A 
ATOM     23  C   UNL     1       8.347   7.193   5.399  0.00  0.00    +0.001 A 
ATOM     24  C   UNL     1       8.549   6.802   6.723  0.00  0.00    +0.012 A 
BRANCH  22  25
ATOM      1  F   UNL     1      10.818   5.729   8.943  0.00  0.00    -0.166 F 
ATOM      2  F   UNL     1       9.598   3.967   8.608  0.00  0.00    -0.166 F 
ATOM      3  F   UNL     1       8.671   5.818   9.272  0.00  0.00    -0.166 F 
ATOM     25  C   UNL     1       9.621   5.321   8.428  0.00  0.00    +0.417 C 
ENDBRANCH  22  25
ENDBRANCH  13  16
ENDBRANCH   6  13
ENDBRANCH   7   6
TORSDOF 7
ENDMDL
MODEL 2
REMARK VINA RESULT:      -6.1     13.468     15.888
REMARK  Name = 71694036
REMARK  7 active torsions:
REMARK  status: ('A' for Active; 'I' for Inactive)
REMARK    1  A    between atoms: O_4  and  C_9
REMARK    2  A    between atoms: O_5  and  C_11
REMARK    3  A    between atoms: N_6  and  C_7
REMARK    4  A    between atoms: N_6  and  C_13
REMARK    5  A    between atoms: C_8  and  C_12
REMARK    6  A    between atoms: C_13  and  C_16
REMARK    7  A    between atoms: C_22  and  C_25
REMARK                            x       y       z     vdW  Elec       q    Type
REMARK                         _______ _______ _______ _____ _____    ______ ____
ROOT
ATOM      7  C   UNL     1      12.829   7.462  21.072  0.00  0.00    +0.092 C 
ATOM      8  C   UNL     1      12.674   8.577  22.132  0.00  0.00    +0.041 C 
ATOM      9  C   UNL     1      11.760   6.447  21.474  0.00  0.00    +0.160 C 
ATOM     10  C   UNL     1      11.202   8.486  22.615  0.00  0.00    +0.043 C 
ATOM     11  C   UNL     1      10.571   7.336  21.828  0.00  0.00    +0.145 C 
ENDROOT
BRANCH   8  12
ATOM     12  C   UNL     1      13.076   9.944  21.623  0.00  0.00    -0.043 A 
ATOM     14  C   UNL     1      14.326  10.471  21.949  0.00  0.00    +0.004 A 
ATOM     15  C   UNL     1      12.197  10.678  20.828  0.00  0.00    +0.004 A 
ATOM     17  C   UNL     1      14.696  11.731  21.480  0.00  0.00    +0.000 A 
ATOM     18  C   UNL     1      12.566  11.939  20.358  0.00  0.00    +0.000 A 
ATOM     19  C   UNL     1      13.816  12.465  20.685  0.00  0.00    +0.000 A 
ENDBRANCH   8  12
BRANCH   9   4
ATOM      4  O   UNL     1      11.461   5.555  20.417  0.00  0.00    -0.388 OA
ATOM     27  H   UNL     1      10.660   5.885  19.976  0.00  0.00    +0.210 HD
ENDBRANCH   9   4
BRANCH  11   5
ATOM      5  O   UNL     1       9.969   7.846  20.642  0.00  0.00    -0.389 OA
ATOM     28  H   UNL     1      10.687   8.065  20.023  0.00  0.00    +0.210 HD
ENDBRANCH  11   5
BRANCH   7   6
ATOM      6  N   UNL     1      14.164   6.875  21.083  0.00  0.00    -0.306 NA
ATOM     26  H   UNL     1      14.788   7.467  21.631  0.00  0.00    +0.123 HD
BRANCH   6  13
ATOM     13  C   UNL     1      14.694   6.765  19.731  0.00  0.00    +0.116 C 
BRANCH  13  16
ATOM     16  C   UNL     1      14.097   7.795  18.810  0.00  0.00    -0.033 A 
ATOM     20  C   UNL     1      14.780   8.984  18.556  0.00  0.00    +0.017 A 
ATOM     21  C   UNL     1      12.859   7.561  18.210  0.00  0.00    +0.005 A 
ATOM     22  C   UNL     1      14.227   9.939  17.703  0.00  0.00    +0.055 A 
ATOM     23  C   UNL     1      12.306   8.515  17.357  0.00  0.00    +0.001 A 
ATOM     24  C   UNL     1      12.989   9.705  17.103  0.00  0.00    +0.012 A 
BRANCH  22  25
ATOM      1  F   UNL     1      15.623  11.216  16.241  0.00  0.00    -0.166 F 
ATOM      2  F   UNL     1      15.903  11.510  18.371  0.00  0.00    -0.166 F 
ATOM      3  F   UNL     1      14.127  12.294  17.393  0.00  0.00    -0.166 F 
ATOM     25  C   UNL     1      14.957  11.211  17.432  0.00  0.00    +0.417 C 
ENDBRANCH  22  25
ENDBRANCH  13  16
ENDBRANCH   6  13
ENDBRANCH   7   6
TORSDOF 7
ENDMDL
MODEL 3
REMARK VINA RESULT:      -5.9     23.328     26.095
REMARK  Name = 71694036
REMARK  7 active torsions:
REMARK  status: ('A' for Active; 'I' for Inactive)
REMARK    1  A    between atoms: O_4  and  C_9
REMARK    2  A    between atoms: O_5  and  C_11
REMARK    3  A    between atoms: N_6  and  C_7
REMARK    4  A    between atoms: N_6  and  C_13
REMARK    5  A    between atoms: C_8  and  C_12
REMARK    6  A    between atoms: C_13  and  C_16
REMARK    7  A    between atoms: C_22  and  C_25
REMARK                            x       y       z     vdW  Elec       q    Type
REMARK                         _______ _______ _______ _____ _____    ______ ____
ROOT
ATOM      7  C   UNL     1      -3.960 -11.214  16.779  0.00  0.00    +0.092 C 
ATOM      8  C   UNL     1      -5.377 -10.779  16.341  0.00  0.00    +0.041 C 
ATOM      9  C   UNL     1      -4.071 -11.282  18.302  0.00  0.00    +0.160 C 
ATOM     10  C   UNL     1      -6.325 -11.258  17.473  0.00  0.00    +0.043 C 
ATOM     11  C   UNL     1      -5.431 -11.942  18.510  0.00  0.00    +0.145 C 
ENDROOT
BRANCH   8  12
ATOM     12  C   UNL     1      -5.755 -11.278  14.963  0.00  0.00    -0.043 A 
ATOM     14  C   UNL     1      -5.786 -12.648  14.701  0.00  0.00    +0.004 A 
ATOM     15  C   UNL     1      -6.072 -10.368  13.955  0.00  0.00    +0.004 A 
ATOM     17  C   UNL     1      -6.134 -13.107  13.431  0.00  0.00    +0.000 A 
ATOM     18  C   UNL     1      -6.420 -10.827  12.685  0.00  0.00    +0.000 A 
ATOM     19  C   UNL     1      -6.450 -12.197  12.423  0.00  0.00    +0.000 A 
ENDBRANCH   8  12
BRANCH   9   4
ATOM      4  O   UNL     1      -3.020 -12.040  18.870  0.00  0.00    -0.388 OA
ATOM     27  H   UNL     1      -2.404 -11.415  19.288  0.00  0.00    +0.210 HD
ENDBRANCH   9   4
BRANCH  11   5
ATOM      5  O   UNL     1      -5.350 -13.335  18.222  0.00  0.00    -0.389 OA
ATOM     28  H   UNL     1      -5.329 -13.431  17.254  0.00  0.00    +0.210 HD
ENDBRANCH  11   5
BRANCH   7   6
ATOM      6  N   UNL     1      -2.937 -10.266  16.353  0.00  0.00    -0.306 NA
ATOM     26  H   UNL     1      -3.340  -9.618  15.676  0.00  0.00    +0.123 HD
BRANCH   6  13
ATOM     13  C   UNL     1      -1.817 -10.956  15.729  0.00  0.00    +0.116 C 
BRANCH  13  16
ATOM     16  C   UNL     1      -2.155 -11.432  14.341  0.00  0.00    -0.033 A 
ATOM     20  C   UNL     1      -2.441 -10.508  13.336  0.00  0.00    +0.017 A 
ATOM     21  C   UNL     1      -2.183 -12.798  14.060  0.00  0.00    +0.005 A 
ATOM     22  C   UNL     1      -2.754 -10.949  12.051  0.00  0.00    +0.055 A 
ATOM     23  C   UNL     1      -2.496 -13.239  12.775  0.00  0.00    +0.001 A 
ATOM     24  C   UNL     1      -2.782 -12.315  11.770  0.00  0.00    +0.012 A 
BRANCH  22  25
ATOM      1  F   UNL     1      -2.008  -9.148  10.665  0.00  0.00    -0.166 F 
ATOM      2  F   UNL     1      -4.085  -9.114  11.288  0.00  0.00    -0.166 F 
ATOM      3  F   UNL     1      -3.422 -10.557   9.803  0.00  0.00    -0.166 F 
ATOM     25  C   UNL     1      -3.060  -9.961  10.976  0.00  0.00    +0.417 C 
ENDBRANCH  22  25
ENDBRANCH  13  16
ENDBRANCH   6  13
ENDBRANCH   7   6
TORSDOF 7
ENDMDL
MODEL 4
REMARK VINA RESULT:      -5.9     14.798     16.867
REMARK  Name = 71694036
REMARK  7 active torsions:
REMARK  status: ('A' for Active; 'I' for Inactive)
REMARK    1  A    between atoms: O_4  and  C_9
REMARK    2  A    between atoms: O_5  and  C_11
REMARK    3  A    between atoms: N_6  and  C_7
REMARK    4  A    between atoms: N_6  and  C_13
REMARK    5  A    between atoms: C_8  and  C_12
REMARK    6  A    between atoms: C_13  and  C_16
REMARK    7  A    between atoms: C_22  and  C_25
REMARK                            x       y       z     vdW  Elec       q    Type
REMARK                         _______ _______ _______ _____ _____    ______ ____
ROOT
ATOM      7  C   UNL     1      13.220   7.379  20.497  0.00  0.00    +0.092 C 
ATOM      8  C   UNL     1      13.270   8.816  21.065  0.00  0.00    +0.041 C 
ATOM      9  C   UNL     1      11.922   6.819  21.078  0.00  0.00    +0.160 C 
ATOM     10  C   UNL     1      11.792   9.203  21.339  0.00  0.00    +0.043 C 
ATOM     11  C   UNL     1      10.955   7.991  20.927  0.00  0.00    +0.145 C 
ENDROOT
BRANCH   8  12
ATOM     12  C   UNL     1      14.009   9.786  20.168  0.00  0.00    -0.043 A 
ATOM     14  C   UNL     1      14.706  10.859  20.726  0.00  0.00    +0.004 A 
ATOM     15  C   UNL     1      13.993   9.608  18.786  0.00  0.00    +0.004 A 
ATOM     17  C   UNL     1      15.386  11.753  19.899  0.00  0.00    +0.000 A 
ATOM     18  C   UNL     1      14.674  10.502  17.959  0.00  0.00    +0.000 A 
ATOM     19  C   UNL     1      15.370  11.574  18.516  0.00  0.00    +0.000 A 
ENDBRANCH   8  12
BRANCH   9   4
ATOM      4  O   UNL     1      11.484   5.674  20.371  0.00  0.00    -0.388 OA
ATOM     27  H   UNL     1      10.604   5.440  20.713  0.00  0.00    +0.210 HD
ENDBRANCH   9   4
BRANCH  11   5
ATOM      5  O   UNL     1      10.559   8.128  19.566  0.00  0.00    -0.389 OA
ATOM     28  H   UNL     1      10.886   7.346  19.087  0.00  0.00    +0.210 HD
ENDBRANCH  11   5
BRANCH   7   6
ATOM      6  N   UNL     1      14.378   6.589  20.899  0.00  0.00    -0.306 NA
ATOM     26  H   UNL     1      14.759   6.966  21.767  0.00  0.00    +0.123 HD
BRANCH   6  13
ATOM     13  C   UNL     1      15.415   6.630  19.879  0.00  0.00    +0.116 C 
BRANCH  13  16
ATOM     16  C   UNL     1      16.750   7.023  20.452  0.00  0.00    -0.033 A 
ATOM     20  C   UNL     1      17.845   6.170  20.323  0.00  0.00    +0.017 A 
ATOM     21  C   UNL     1      16.892   8.243  21.116  0.00  0.00    +0.005 A 
ATOM     22  C   UNL     1      19.082   6.534  20.855  0.00  0.00    +0.055 A 
ATOM     23  C   UNL     1      18.128   8.607  21.648  0.00  0.00    +0.001 A 
ATOM     24  C   UNL     1      19.224   7.754  21.518  0.00  0.00    +0.012 A 
BRANCH  22  25
ATOM      1  F   UNL     1      20.734   5.164  21.910  0.00  0.00    -0.166 F 
ATOM      2  F   UNL     1      21.325   6.196  20.097  0.00  0.00    -0.166 F 
ATOM      3  F   UNL     1      19.964   4.504  19.987  0.00  0.00    -0.166 F 
ATOM     25  C   UNL     1      20.253   5.621  20.717  0.00  0.00    +0.417 C 
ENDBRANCH  22  25
ENDBRANCH  13  16
ENDBRANCH   6  13
ENDBRANCH   7   6
TORSDOF 7
ENDMDL
MODEL 5
REMARK VINA RESULT:      -5.8     14.593     17.042
REMARK  Name = 71694036
REMARK  7 active torsions:
REMARK  status: ('A' for Active; 'I' for Inactive)
REMARK    1  A    between atoms: O_4  and  C_9
REMARK    2  A    between atoms: O_5  and  C_11
REMARK    3  A    between atoms: N_6  and  C_7
REMARK    4  A    between atoms: N_6  and  C_13
REMARK    5  A    between atoms: C_8  and  C_12
REMARK    6  A    between atoms: C_13  and  C_16
REMARK    7  A    between atoms: C_22  and  C_25
REMARK                            x       y       z     vdW  Elec       q    Type
REMARK                         _______ _______ _______ _____ _____    ______ ____
ROOT
ATOM      7  C   UNL     1      14.146  11.532  21.800  0.00  0.00    +0.092 C 
ATOM      8  C   UNL     1      12.685  11.137  22.119  0.00  0.00    +0.041 C 
ATOM      9  C   UNL     1      14.494  12.510  22.921  0.00  0.00    +0.160 C 
ATOM     10  C   UNL     1      12.526  11.342  23.649  0.00  0.00    +0.043 C 
ATOM     11  C   UNL     1      13.882  11.844  24.150  0.00  0.00    +0.145 C 
ENDROOT
BRANCH   8  12
ATOM     12  C   UNL     1      12.326   9.747  21.639  0.00  0.00    -0.043 A 
ATOM     14  C   UNL     1      13.070   8.647  22.066  0.00  0.00    +0.004 A 
ATOM     15  C   UNL     1      11.251   9.566  20.770  0.00  0.00    +0.004 A 
ATOM     17  C   UNL     1      12.739   7.367  21.623  0.00  0.00    +0.000 A 
ATOM     18  C   UNL     1      10.919   8.285  20.326  0.00  0.00    +0.000 A 
ATOM     19  C   UNL     1      11.664   7.186  20.754  0.00  0.00    +0.000 A 
ENDBRANCH   8  12
BRANCH   9   4
ATOM      4  O   UNL     1      15.893  12.680  23.051  0.00  0.00    -0.388 OA
ATOM     27  H   UNL     1      16.320  11.943  22.583  0.00  0.00    +0.210 HD
ENDBRANCH   9   4
BRANCH  11   5
ATOM      5  O   UNL     1      14.679  10.735  24.556  0.00  0.00    -0.389 OA
ATOM     28  H   UNL     1      15.603  11.038  24.590  0.00  0.00    +0.210 HD
ENDBRANCH  11   5
BRANCH   7   6
ATOM      6  N   UNL     1      14.273  12.149  20.485  0.00  0.00    -0.306 NA
ATOM     26  H   UNL     1      13.408  12.010  19.962  0.00  0.00    +0.123 HD
BRANCH   6  13
ATOM     13  C   UNL     1      15.371  11.554  19.737  0.00  0.00    +0.116 C 
BRANCH  13  16
ATOM     16  C   UNL     1      15.020  10.183  19.221  0.00  0.00    -0.033 A 
ATOM     20  C   UNL     1      15.722   9.066  19.672  0.00  0.00    +0.017 A 
ATOM     21  C   UNL     1      13.992  10.031  18.290  0.00  0.00    +0.005 A 
ATOM     22  C   UNL     1      15.397   7.797  19.194  0.00  0.00    +0.055 A 
ATOM     23  C   UNL     1      13.666   8.763  17.812  0.00  0.00    +0.001 A 
ATOM     24  C   UNL     1      14.369   7.645  18.263  0.00  0.00    +0.012 A 
BRANCH  22  25
ATOM      1  F   UNL     1      15.464   5.859  20.594  0.00  0.00    -0.166 F 
ATOM      2  F   UNL     1      17.335   6.909  20.278  0.00  0.00    -0.166 F 
ATOM      3  F   UNL     1      16.463   5.738  18.667  0.00  0.00    -0.166 F 
ATOM     25  C   UNL     1      16.149   6.602  19.676  0.00  0.00    +0.417 C 
ENDBRANCH  22  25
ENDBRANCH  13  16
ENDBRANCH   6  13
ENDBRANCH   7   6
TORSDOF 7
ENDMDL
MODEL 6
REMARK VINA RESULT:      -5.8     36.152     37.610
REMARK  Name = 71694036
REMARK  7 active torsions:
REMARK  status: ('A' for Active; 'I' for Inactive)
REMARK    1  A    between atoms: O_4  and  C_9
REMARK    2  A    between atoms: O_5  and  C_11
REMARK    3  A    between atoms: N_6  and  C_7
REMARK    4  A    between atoms: N_6  and  C_13
REMARK    5  A    between atoms: C_8  and  C_12
REMARK    6  A    between atoms: C_13  and  C_16
REMARK    7  A    between atoms: C_22  and  C_25
REMARK                            x       y       z     vdW  Elec       q    Type
REMARK                         _______ _______ _______ _____ _____    ______ ____
ROOT
ATOM      7  C   UNL     1     -15.206   2.153  29.382  0.00  0.00    +0.092 C 
ATOM      8  C   UNL     1     -13.974   2.052  30.312  0.00  0.00    +0.041 C 
ATOM      9  C   UNL     1     -15.142   0.855  28.578  0.00  0.00    +0.160 C 
ATOM     10  C   UNL     1     -13.700   0.533  30.472  0.00  0.00    +0.043 C 
ATOM     11  C   UNL     1     -14.767  -0.178  29.638  0.00  0.00    +0.145 C 
ENDROOT
BRANCH   8  12
ATOM     12  C   UNL     1     -14.153   2.791  31.621  0.00  0.00    -0.043 A 
ATOM     14  C   UNL     1     -15.093   2.345  32.550  0.00  0.00    +0.004 A 
ATOM     15  C   UNL     1     -13.380   3.917  31.897  0.00  0.00    +0.004 A 
ATOM     17  C   UNL     1     -15.259   3.027  33.756  0.00  0.00    +0.000 A 
ATOM     18  C   UNL     1     -13.545   4.599  33.103  0.00  0.00    +0.000 A 
ATOM     19  C   UNL     1     -14.485   4.153  34.032  0.00  0.00    +0.000 A 
ENDBRANCH   8  12
BRANCH   9   4
ATOM      4  O   UNL     1     -16.381   0.559  27.963  0.00  0.00    -0.388 OA
ATOM     27  H   UNL     1     -16.202   0.365  27.027  0.00  0.00    +0.210 HD
ENDBRANCH   9   4
BRANCH  11   5
ATOM      5  O   UNL     1     -15.894  -0.470  30.458  0.00  0.00    -0.389 OA
ATOM     28  H   UNL     1     -16.647  -0.646  29.867  0.00  0.00    +0.210 HD
ENDBRANCH  11   5
BRANCH   7   6
ATOM      6  N   UNL     1     -15.148   3.327  28.520  0.00  0.00    -0.306 NA
ATOM     26  H   UNL     1     -14.446   3.974  28.878  0.00  0.00    +0.123 HD
BRANCH   6  13
ATOM     13  C   UNL     1     -16.435   4.007  28.483  0.00  0.00    +0.116 C 
BRANCH  13  16
ATOM     16  C   UNL     1     -16.816   4.558  29.831  0.00  0.00    -0.033 A 
ATOM     20  C   UNL     1     -16.148   5.670  30.346  0.00  0.00    +0.017 A 
ATOM     21  C   UNL     1     -17.836   3.955  30.568  0.00  0.00    +0.005 A 
ATOM     22  C   UNL     1     -16.501   6.179  31.595  0.00  0.00    +0.055 A 
ATOM     23  C   UNL     1     -18.188   4.465  31.817  0.00  0.00    +0.001 A 
ATOM     24  C   UNL     1     -17.522   5.578  32.331  0.00  0.00    +0.012 A 
BRANCH  22  25
ATOM      1  F   UNL     1     -16.386   8.556  31.839  0.00  0.00    -0.166 F 
ATOM      2  F   UNL     1     -14.503   7.491  31.697  0.00  0.00    -0.166 F 
ATOM      3  F   UNL     1     -15.699   7.343  33.507  0.00  0.00    -0.166 F 
ATOM     25  C   UNL     1     -15.787   7.368  32.145  0.00  0.00    +0.417 C 
ENDBRANCH  22  25
ENDBRANCH  13  16
ENDBRANCH   6  13
ENDBRANCH   7   6
TORSDOF 7
ENDMDL
MODEL 7
REMARK VINA RESULT:      -5.8      3.950      6.507
REMARK  Name = 71694036
REMARK  7 active torsions:
REMARK  status: ('A' for Active; 'I' for Inactive)
REMARK    1  A    between atoms: O_4  and  C_9
REMARK    2  A    between atoms: O_5  and  C_11
REMARK    3  A    between atoms: N_6  and  C_7
REMARK    4  A    between atoms: N_6  and  C_13
REMARK    5  A    between atoms: C_8  and  C_12
REMARK    6  A    between atoms: C_13  and  C_16
REMARK    7  A    between atoms: C_22  and  C_25
REMARK                            x       y       z     vdW  Elec       q    Type
REMARK                         _______ _______ _______ _____ _____    ______ ____
ROOT
ATOM      7  C   UNL     1      11.409   6.605   4.904  0.00  0.00    +0.092 C 
ATOM      8  C   UNL     1      10.066   6.651   4.140  0.00  0.00    +0.041 C 
ATOM      9  C   UNL     1      10.976   6.546   6.368  0.00  0.00    +0.160 C 
ATOM     10  C   UNL     1       9.033   5.970   5.078  0.00  0.00    +0.043 C 
ATOM     11  C   UNL     1       9.809   5.563   6.333  0.00  0.00    +0.145 C 
ENDROOT
BRANCH   8  12
ATOM     12  C   UNL     1      10.145   6.040   2.758  0.00  0.00    -0.043 A 
ATOM     14  C   UNL     1       9.931   6.834   1.631  0.00  0.00    +0.004 A 
ATOM     15  C   UNL     1      10.430   4.683   2.610  0.00  0.00    +0.004 A 
ATOM     17  C   UNL     1      10.003   6.270   0.357  0.00  0.00    +0.000 A 
ATOM     18  C   UNL     1      10.502   4.119   1.337  0.00  0.00    +0.000 A 
ATOM     19  C   UNL     1      10.289   4.913   0.210  0.00  0.00    +0.000 A 
ENDBRANCH   8  12
BRANCH   9   4
ATOM      4  O   UNL     1      12.024   6.096   7.206  0.00  0.00    -0.388 OA
ATOM     27  H   UNL     1      11.707   5.300   7.666  0.00  0.00    +0.210 HD
ENDBRANCH   9   4
BRANCH  11   5
ATOM      5  O   UNL     1      10.292   4.232   6.182  0.00  0.00    -0.389 OA
ATOM     28  H   UNL     1      11.264   4.274   6.176  0.00  0.00    +0.210 HD
ENDBRANCH  11   5
BRANCH   7   6
ATOM      6  N   UNL     1      12.237   7.774   4.631  0.00  0.00    -0.306 NA
ATOM     26  H   UNL     1      11.826   8.307   3.865  0.00  0.00    +0.123 HD
BRANCH   6  13
ATOM     13  C   UNL     1      13.586   7.378   4.253  0.00  0.00    +0.116 C 
BRANCH  13  16
ATOM     16  C   UNL     1      13.654   6.917   2.821  0.00  0.00    -0.033 A 
ATOM     20  C   UNL     1      13.917   5.579   2.529  0.00  0.00    +0.017 A 
ATOM     21  C   UNL     1      13.455   7.830   1.784  0.00  0.00    +0.005 A 
ATOM     22  C   UNL     1      13.980   5.153   1.204  0.00  0.00    +0.055 A 
ATOM     23  C   UNL     1      13.519   7.404   0.459  0.00  0.00    +0.001 A 
ATOM     24  C   UNL     1      13.781   6.065   0.167  0.00  0.00    +0.012 A 
BRANCH  22  25
ATOM      1  F   UNL     1      15.581   3.386   1.005  0.00  0.00    -0.166 F 
ATOM      2  F   UNL     1      13.909   3.358  -0.377  0.00  0.00    -0.166 F 
ATOM      3  F   UNL     1      13.594   2.864   1.717  0.00  0.00    -0.166 F 
ATOM     25  C   UNL     1      14.262   3.721   0.892  0.00  0.00    +0.417 C 
ENDBRANCH  22  25
ENDBRANCH  13  16
ENDBRANCH   6  13
ENDBRANCH   7   6
TORSDOF 7
ENDMDL
MODEL 8
REMARK VINA RESULT:      -5.7     23.149     25.407
REMARK  Name = 71694036
REMARK  7 active torsions:
REMARK  status: ('A' for Active; 'I' for Inactive)
REMARK    1  A    between atoms: O_4  and  C_9
REMARK    2  A    between atoms: O_5  and  C_11
REMARK    3  A    between atoms: N_6  and  C_7
REMARK    4  A    between atoms: N_6  and  C_13
REMARK    5  A    between atoms: C_8  and  C_12
REMARK    6  A    between atoms: C_13  and  C_16
REMARK    7  A    between atoms: C_22  and  C_25
REMARK                            x       y       z     vdW  Elec       q    Type
REMARK                         _______ _______ _______ _____ _____    ______ ____
ROOT
ATOM      7  C   UNL     1      -3.243 -10.853  14.879  0.00  0.00    +0.092 C 
ATOM      8  C   UNL     1      -4.723 -10.405  14.866  0.00  0.00    +0.041 C 
ATOM      9  C   UNL     1      -2.803 -10.558  16.313  0.00  0.00    +0.160 C 
ATOM     10  C   UNL     1      -5.204 -10.525  16.336  0.00  0.00    +0.043 C 
ATOM     11  C   UNL     1      -4.000 -11.028  17.134  0.00  0.00    +0.145 C 
ENDROOT
BRANCH   8  12
ATOM     12  C   UNL     1      -5.568 -11.172  13.872  0.00  0.00    -0.043 A 
ATOM     14  C   UNL     1      -6.265 -10.488  12.875  0.00  0.00    +0.004 A 
ATOM     15  C   UNL     1      -5.651 -12.561  13.953  0.00  0.00    +0.004 A 
ATOM     17  C   UNL     1      -7.045 -11.196  11.960  0.00  0.00    +0.000 A 
ATOM     18  C   UNL     1      -6.431 -13.269  13.038  0.00  0.00    +0.000 A 
ATOM     19  C   UNL     1      -7.128 -12.585  12.041  0.00  0.00    +0.000 A 
ENDBRANCH   8  12
BRANCH   9   4
ATOM      4  O   UNL     1      -1.619 -11.256  16.650  0.00  0.00    -0.388 OA
ATOM     27  H   UNL     1      -1.690 -11.514  17.585  0.00  0.00    +0.210 HD
ENDBRANCH   9   4
BRANCH  11   5
ATOM      5  O   UNL     1      -4.029 -12.452  17.190  0.00  0.00    -0.389 OA
ATOM     28  H   UNL     1      -3.351 -12.732  17.830  0.00  0.00    +0.210 HD
ENDBRANCH  11   5
BRANCH   7   6
ATOM      6  N   UNL     1      -2.439 -10.123  13.906  0.00  0.00    -0.306 NA
ATOM     26  H   UNL     1      -3.039  -9.486  13.382  0.00  0.00    +0.123 HD
BRANCH   6  13
ATOM     13  C   UNL     1      -1.801 -11.038  12.969  0.00  0.00    +0.116 C 
BRANCH  13  16
ATOM     16  C   UNL     1      -2.679 -11.325  11.781  0.00  0.00    -0.033 A 
ATOM     20  C   UNL     1      -3.159 -10.277  10.997  0.00  0.00    +0.017 A 
ATOM     21  C   UNL     1      -3.015 -12.642  11.464  0.00  0.00    +0.005 A 
ATOM     22  C   UNL     1      -3.973 -10.543   9.896  0.00  0.00    +0.055 A 
ATOM     23  C   UNL     1      -3.829 -12.909  10.364  0.00  0.00    +0.001 A 
ATOM     24  C   UNL     1      -4.308 -11.860   9.579  0.00  0.00    +0.012 A 
BRANCH  22  25
ATOM      1  F   UNL     1      -4.906  -9.813   7.819  0.00  0.00    -0.166 F 
ATOM      2  F   UNL     1      -3.562  -8.442   8.828  0.00  0.00    -0.166 F 
ATOM      3  F   UNL     1      -5.555  -8.789   9.624  0.00  0.00    -0.166 F 
ATOM     25  C   UNL     1      -4.486  -9.421   9.058  0.00  0.00    +0.417 C 
ENDBRANCH  22  25
ENDBRANCH  13  16
ENDBRANCH   6  13
ENDBRANCH   7   6
TORSDOF 7
ENDMDL
MODEL 9
REMARK VINA RESULT:      -5.6     24.797     27.336
REMARK  Name = 71694036
REMARK  7 active torsions:
REMARK  status: ('A' for Active; 'I' for Inactive)
REMARK    1  A    between atoms: O_4  and  C_9
REMARK    2  A    between atoms: O_5  and  C_11
REMARK    3  A    between atoms: N_6  and  C_7
REMARK    4  A    between atoms: N_6  and  C_13
REMARK    5  A    between atoms: C_8  and  C_12
REMARK    6  A    between atoms: C_13  and  C_16
REMARK    7  A    between atoms: C_22  and  C_25
REMARK                            x       y       z     vdW  Elec       q    Type
REMARK                         _______ _______ _______ _____ _____    ______ ____
ROOT
ATOM      7  C   UNL     1      -8.049  -9.978  15.683  0.00  0.00    +0.092 C 
ATOM      8  C   UNL     1      -8.172 -11.151  16.683  0.00  0.00    +0.041 C 
ATOM      9  C   UNL     1      -9.429  -9.326  15.739  0.00  0.00    +0.160 C 
ATOM     10  C   UNL     1      -9.278 -10.725  17.685  0.00  0.00    +0.043 C 
ATOM     11  C   UNL     1      -9.748  -9.341  17.231  0.00  0.00    +0.145 C 
ENDROOT
BRANCH   8  12
ATOM     12  C   UNL     1      -6.856 -11.522  17.332  0.00  0.00    -0.043 A 
ATOM     14  C   UNL     1      -6.456 -12.857  17.384  0.00  0.00    +0.004 A 
ATOM     15  C   UNL     1      -6.045 -10.528  17.879  0.00  0.00    +0.004 A 
ATOM     17  C   UNL     1      -5.243 -13.198  17.983  0.00  0.00    +0.000 A 
ATOM     18  C   UNL     1      -4.832 -10.870  18.478  0.00  0.00    +0.000 A 
ATOM     19  C   UNL     1      -4.432 -12.205  18.530  0.00  0.00    +0.000 A 
ENDBRANCH   8  12
BRANCH   9   4
ATOM      4  O   UNL     1      -9.409  -8.012  15.213  0.00  0.00    -0.388 OA
ATOM     27  H   UNL     1      -8.490  -7.812  14.966  0.00  0.00    +0.210 HD
ENDBRANCH   9   4
BRANCH  11   5
ATOM      5  O   UNL     1      -8.992  -8.339  17.905  0.00  0.00    -0.389 OA
ATOM     28  H   UNL     1      -9.489  -7.505  17.837  0.00  0.00    +0.210 HD
ENDBRANCH  11   5
BRANCH   7   6
ATOM      6  N   UNL     1      -7.720 -10.435  14.338  0.00  0.00    -0.306 NA
ATOM     26  H   UNL     1      -7.699 -11.454  14.324  0.00  0.00    +0.123 HD
BRANCH   6  13
ATOM     13  C   UNL     1      -6.417  -9.935  13.924  0.00  0.00    +0.116 C 
BRANCH  13  16
ATOM     16  C   UNL     1      -5.318 -10.920  14.224  0.00  0.00    -0.033 A 
ATOM     20  C   UNL     1      -4.115 -10.479  14.774  0.00  0.00    +0.017 A 
ATOM     21  C   UNL     1      -5.504 -12.276  13.951  0.00  0.00    +0.005 A 
ATOM     22  C   UNL     1      -3.098 -11.391  15.052  0.00  0.00    +0.055 A 
ATOM     23  C   UNL     1      -4.486 -13.188  14.229  0.00  0.00    +0.001 A 
ATOM     24  C   UNL     1      -3.283 -12.746  14.780  0.00  0.00    +0.012 A 
BRANCH  22  25
ATOM      1  F   UNL     1      -1.799 -10.920  17.005  0.00  0.00    -0.166 F 
ATOM      2  F   UNL     1      -1.482  -9.641  15.283  0.00  0.00    -0.166 F 
ATOM      3  F   UNL     1      -0.748 -11.687  15.263  0.00  0.00    -0.166 F 
ATOM     25  C   UNL     1      -1.811 -10.918  15.640  0.00  0.00    +0.417 C 
ENDBRANCH  22  25
ENDBRANCH  13  16
ENDBRANCH   6  13
ENDBRANCH   7   6
TORSDOF 7
ENDMDL
MODEL 10
REMARK VINA RESULT:      -5.5      4.130      6.313
REMARK  Name = 71694036
REMARK  7 active torsions:
REMARK  status: ('A' for Active; 'I' for Inactive)
REMARK    1  A    between atoms: O_4  and  C_9
REMARK    2  A    between atoms: O_5  and  C_11
REMARK    3  A    between atoms: N_6  and  C_7
REMARK    4  A    between atoms: N_6  and  C_13
REMARK    5  A    between atoms: C_8  and  C_12
REMARK    6  A    between atoms: C_13  and  C_16
REMARK    7  A    between atoms: C_22  and  C_25
REMARK                            x       y       z     vdW  Elec       q    Type
REMARK                         _______ _______ _______ _____ _____    ______ ____
ROOT
ATOM      7  C   UNL     1      11.114   4.549  -2.008  0.00  0.00    +0.092 C 
ATOM      8  C   UNL     1      12.582   4.080  -2.139  0.00  0.00    +0.041 C 
ATOM      9  C   UNL     1      10.460   4.001  -3.276  0.00  0.00    +0.160 C 
ATOM     10  C   UNL     1      12.534   2.813  -3.034  0.00  0.00    +0.043 C 
ATOM     11  C   UNL     1      11.060   2.602  -3.385  0.00  0.00    +0.145 C 
ENDROOT
BRANCH   8  12
ATOM     12  C   UNL     1      13.261   3.870  -0.802  0.00  0.00    -0.043 A 
ATOM     14  C   UNL     1      12.560   3.285   0.252  0.00  0.00    +0.004 A 
ATOM     15  C   UNL     1      14.588   4.261  -0.625  0.00  0.00    +0.004 A 
ATOM     17  C   UNL     1      13.186   3.092   1.484  0.00  0.00    +0.000 A 
ATOM     18  C   UNL     1      15.214   4.067   0.606  0.00  0.00    +0.000 A 
ATOM     19  C   UNL     1      14.513   3.482   1.661  0.00  0.00    +0.000 A 
ENDBRANCH   8  12
BRANCH   9   4
ATOM      4  O   UNL     1       9.050   3.967  -3.165  0.00  0.00    -0.388 OA
ATOM     27  H   UNL     1       8.705   3.536  -3.965  0.00  0.00    +0.210 HD
ENDBRANCH   9   4
BRANCH  11   5
ATOM      5  O   UNL     1      10.463   1.735  -2.425  0.00  0.00    -0.389 OA
ATOM     28  H   UNL     1       9.502   1.750  -2.577  0.00  0.00    +0.210 HD
ENDBRANCH  11   5
BRANCH   7   6
ATOM      6  N   UNL     1      11.006   6.001  -1.928  0.00  0.00    -0.306 NA
ATOM     26  H   UNL     1      11.938   6.403  -1.824  0.00  0.00    +0.123 HD
BRANCH   6  13
ATOM     13  C   UNL     1      10.196   6.398  -0.786  0.00  0.00    +0.116 C 
BRANCH  13  16
ATOM     16  C   UNL     1      11.005   6.455   0.483  0.00  0.00    -0.033 A 
ATOM     20  C   UNL     1      10.506   5.890   1.656  0.00  0.00    +0.017 A 
ATOM     21  C   UNL     1      12.255   7.076   0.485  0.00  0.00    +0.005 A 
ATOM     22  C   UNL     1      11.256   5.943   2.830  0.00  0.00    +0.055 A 
ATOM     23  C   UNL     1      13.005   7.129   1.659  0.00  0.00    +0.001 A 
ATOM     24  C   UNL     1      12.506   6.562   2.833  0.00  0.00    +0.012 A 
BRANCH  22  25
ATOM      1  F   UNL     1      11.402   5.717   5.207  0.00  0.00    -0.166 F 
ATOM      2  F   UNL     1      10.756   3.973   4.092  0.00  0.00    -0.166 F 
ATOM      3  F   UNL     1       9.419   5.672   4.316  0.00  0.00    -0.166 F 
ATOM     25  C   UNL     1      10.722   5.338   4.085  0.00  0.00    +0.417 C 
ENDBRANCH  22  25
ENDBRANCH  13  16
ENDBRANCH   6  13
ENDBRANCH   7   6
TORSDOF 7
ENDMDL
