REMARK  Name = 11882485
REMARK  13 active torsions:
REMARK  status: ('A' for Active; 'I' for Inactive)
REMARK    1  A    between atoms: S_1  and  N_9
REMARK    2  A    between atoms: S_1  and  C_25
REMARK    3  A    between atoms: N_9  and  C_14
REMARK    4  A    between atoms: N_10  and  C_21
REMARK    5  A    between atoms: N_11  and  C_32
REMARK    6  A    between atoms: C_15  and  C_19
REMARK    7  A    between atoms: C_20  and  C_23
REMARK    8  A    between atoms: C_21  and  C_22
REMARK    9  A    between atoms: C_21  and  C_26
REMARK   10  A    between atoms: C_22  and  C_24
REMARK   11  A    between atoms: C_24  and  C_28
REMARK   12  A    between atoms: C_24  and  C_29
REMARK   13  A    between atoms: C_30  and  C_35
REMARK                            x       y       z     vdW  Elec       q    Type
REMARK                         _______ _______ _______ _____ _____    ______ ____
ROOT
ATOM      4  O   UNL     1       2.807  -1.459   0.892  0.00  0.00    -0.268 OA
ATOM      8  N   UNL     1       1.631   0.406   0.142  0.00  0.00    -0.285 N 
ATOM     14  C   UNL     1      -0.685   2.188  -0.004  0.00  0.00    +0.080 C 
ATOM     15  C   UNL     1       0.360  -0.020   0.740  0.00  0.00    +0.164 C 
ATOM     16  C   UNL     1      -0.570   1.137   1.103  0.00  0.00    +0.052 C 
ATOM     17  C   UNL     1       0.707   2.644  -0.434  0.00  0.00    +0.039 C 
ATOM     18  C   UNL     1       1.563   1.464  -0.881  0.00  0.00    +0.110 C 
ATOM     20  C   UNL     1       2.805  -0.297   0.484  0.00  0.00    +0.265 C 
ENDROOT
BRANCH  20  23
ATOM     11  N   UNL     1       5.269  -0.185   0.048  0.00  0.00    -0.262 N 
ATOM     12  N   UNL     1       6.292   0.682  -0.036  0.00  0.00    -0.176 NA
ATOM     23  C   UNL     1       4.076   0.403   0.336  0.00  0.00    +0.123 A 
ATOM     27  C   UNL     1       4.329   1.745   0.451  0.00  0.00    +0.057 A 
ATOM     30  C   UNL     1       5.712   1.860   0.211  0.00  0.00    +0.061 A 
ATOM     32  C   UNL     1       5.517  -1.592  -0.166  0.00  0.00    +0.173 C 
ATOM     35  C   UNL     1       6.522   3.089   0.210  0.00  0.00    +0.067 C 
ENDBRANCH  20  23
BRANCH  15  19
ATOM      3  O   UNL     1      -0.611  -0.616  -1.359  0.00  0.00    -0.274 OA
ATOM     10  N   UNL     1      -0.429  -2.239   0.300  0.00  0.00    -0.302 N 
ATOM     19  C   UNL     1      -0.271  -0.971  -0.234  0.00  0.00    +0.234 C 
ATOM     37  H   UNL     1       0.051  -2.466   1.165  0.00  0.00    +0.150 HD
BRANCH  10  21
ATOM     21  C   UNL     1      -1.033  -3.333  -0.427  0.00  0.00    +0.159 C 
BRANCH  21  26
ATOM      7  O   UNL     1       1.235  -4.096  -0.853  0.00  0.00    -0.274 OA
ATOM     13  N   UNL     1      -0.379  -4.515  -2.432  0.00  0.00    -0.328 N 
ATOM     26  C   UNL     1       0.073  -3.994  -1.238  0.00  0.00    +0.231 C 
ATOM     38  H   UNL     1      -1.347  -4.444  -2.727  0.00  0.00    +0.145 HD
ATOM     39  H   UNL     1       0.255  -4.996  -3.063  0.00  0.00    +0.145 HD
ENDBRANCH  21  26
BRANCH  21  22
ATOM     22  C   UNL     1      -1.693  -4.356   0.506  0.00  0.00    +0.034 C 
BRANCH  22  24
ATOM     24  C   UNL     1      -2.785  -3.779   1.430  0.00  0.00    -0.015 C 
ATOM     28  C   UNL     1      -2.266  -2.636   2.303  0.00  0.00    +0.007 C 
ATOM     29  C   UNL     1      -3.968  -3.289   0.589  0.00  0.00    +0.007 C 
ENDBRANCH  22  24
ENDBRANCH  21  22
ENDBRANCH  10  21
ENDBRANCH  15  19
BRANCH  14   9
ATOM      9  N   UNL     1      -1.478   3.310   0.439  0.00  0.00    -0.186 NA
ATOM     36  H   UNL     1      -1.006   4.058   0.962  0.00  0.00    +0.148 HD
BRANCH   9   1
ATOM      1  S   UNL     1      -2.917   3.658  -0.419  0.00  0.00    +0.065 S 
ATOM      5  O   UNL     1      -2.614   3.800  -1.830  0.00  0.00    -0.153 OA
ATOM      6  O   UNL     1      -3.655   4.677   0.299  0.00  0.00    -0.153 OA
BRANCH   1  25
ATOM      2  S   UNL     1      -4.595   1.949   1.257  0.00  0.00    -0.077 S 
ATOM     25  C   UNL     1      -3.968   2.211  -0.299  0.00  0.00    +0.142 A 
ATOM     31  C   UNL     1      -4.354   1.290  -1.214  0.00  0.00    +0.036 A 
ATOM     33  C   UNL     1      -5.208   0.313  -0.626  0.00  0.00    +0.010 A 
ATOM     34  C   UNL     1      -5.422   0.552   0.714  0.00  0.00    +0.047 A 
ENDBRANCH   1  25
ENDBRANCH   9   1
ENDBRANCH  14   9
TORSDOF 9
