MODEL 1
REMARK VINA RESULT:      -7.0      0.000      0.000
REMARK  Name = 11913373
REMARK  8 active torsions:
REMARK  status: ('A' for Active; 'I' for Inactive)
REMARK    1  A    between atoms: S_1  and  C_20
REMARK    2  A    between atoms: S_1  and  C_25
REMARK    3  A    between atoms: O_6  and  C_28
REMARK    4  A    between atoms: N_8  and  C_14
REMARK    5  A    between atoms: N_9  and  C_15
REMARK    6  A    between atoms: C_18  and  C_20
REMARK    7  A    between atoms: C_21  and  C_24
REMARK    8  A    between atoms: C_25  and  C_28
REMARK                            x       y       z     vdW  Elec       q    Type
REMARK                         _______ _______ _______ _____ _____    ______ ____
ROOT
ATOM      3  O   UNL     1      13.862  12.190  23.390  0.00  0.00    -0.370 OA
ATOM      4  O   UNL     1      11.055  12.683  24.662  0.00  0.00    -0.370 OA
ATOM     12  C   UNL     1      12.144  11.806  24.992  0.00  0.00    +0.171 C 
ATOM     13  C   UNL     1      12.750  11.327  23.686  0.00  0.00    +0.171 C 
ATOM     14  C   UNL     1      13.262  12.580  25.652  0.00  0.00    +0.130 C 
ATOM     15  C   UNL     1      11.647  11.528  22.672  0.00  0.00    +0.130 C 
ATOM     16  C   UNL     1      14.025  13.130  24.461  0.00  0.00    +0.185 C 
ATOM     17  C   UNL     1      10.888  12.715  23.236  0.00  0.00    +0.185 C 
ENDROOT
BRANCH  15   9
ATOM      9  N   UNL     1      10.794  10.361  22.633  0.00  0.00    -0.306 N 
ATOM     10  N   UNL     1      12.518   9.008  21.867  0.00  0.00    -0.214 NA
ATOM     11  N   UNL     1      10.311   8.122  22.253  0.00  0.00    -0.223 NA
ATOM     19  C   UNL     1      11.227   9.109  22.234  0.00  0.00    +0.216 A 
ATOM     21  C   UNL     1      12.906   7.774  21.485  0.00  0.00    +0.076 A 
ATOM     22  C   UNL     1      10.768   6.915  21.858  0.00  0.00    +0.116 A 
ATOM     23  C   UNL     1      12.067   6.679  21.459  0.00  0.00    +0.048 A 
ATOM     33  H   UNL     1       9.836  10.432  22.960  0.00  0.00    +0.149 HD
BRANCH  21  24
ATOM      2  F   UNL     1      16.349   5.815  18.726  0.00  0.00    -0.205 F 
ATOM     24  C   UNL     1      14.291   7.661  21.092  0.00  0.00    +0.003 A 
ATOM     26  C   UNL     1      14.658   6.775  20.079  0.00  0.00    +0.048 A 
ATOM     27  C   UNL     1      15.262   8.437  21.725  0.00  0.00    +0.010 A 
ATOM     29  C   UNL     1      15.996   6.666  19.700  0.00  0.00    +0.124 A 
ATOM     30  C   UNL     1      16.599   8.328  21.346  0.00  0.00    +0.003 A 
ATOM     31  C   UNL     1      16.966   7.442  20.333  0.00  0.00    +0.038 A 
ENDBRANCH  21  24
ENDBRANCH  15   9
BRANCH  14   8
ATOM      5  O   UNL     1      14.969  13.344  27.862  0.00  0.00    -0.275 OA
ATOM      8  N   UNL     1      14.094  11.714  26.452  0.00  0.00    -0.307 N 
ATOM     18  C   UNL     1      14.884  12.172  27.497  0.00  0.00    +0.223 C 
ATOM     32  H   UNL     1      14.051  10.717  26.268  0.00  0.00    +0.149 HD
BRANCH  18  20
ATOM     20  C   UNL     1      15.675  11.073  28.166  0.00  0.00    +0.165 C 
BRANCH  20   1
ATOM      1  S   UNL     1      15.401  11.155  29.952  0.00  0.00    -0.140 S 
BRANCH   1  25
ATOM     25  C   UNL     1      15.503   9.388  30.322  0.00  0.00    +0.189 C 
BRANCH  25  28
ATOM      7  O   UNL     1      13.378   9.148  31.433  0.00  0.00    -0.250 OA
ATOM     28  C   UNL     1      14.120   8.837  30.510  0.00  0.00    +0.315 C 
BRANCH  28   6
ATOM      6  O   UNL     1      13.767   7.961  29.535  0.00  0.00    -0.480 OA
ATOM     34  H   UNL     1      14.521   7.748  28.945  0.00  0.00    +0.295 HD
ENDBRANCH  28   6
ENDBRANCH  25  28
ENDBRANCH   1  25
ENDBRANCH  20   1
ENDBRANCH  18  20
ENDBRANCH  14   8
TORSDOF 8
ENDMDL
MODEL 2
REMARK VINA RESULT:      -6.9      2.965      3.860
REMARK  Name = 11913373
REMARK  8 active torsions:
REMARK  status: ('A' for Active; 'I' for Inactive)
REMARK    1  A    between atoms: S_1  and  C_20
REMARK    2  A    between atoms: S_1  and  C_25
REMARK    3  A    between atoms: O_6  and  C_28
REMARK    4  A    between atoms: N_8  and  C_14
REMARK    5  A    between atoms: N_9  and  C_15
REMARK    6  A    between atoms: C_18  and  C_20
REMARK    7  A    between atoms: C_21  and  C_24
REMARK    8  A    between atoms: C_25  and  C_28
REMARK                            x       y       z     vdW  Elec       q    Type
REMARK                         _______ _______ _______ _____ _____    ______ ____
ROOT
ATOM      3  O   UNL     1      12.502  13.087  22.940  0.00  0.00    -0.370 OA
ATOM      4  O   UNL     1      10.986  10.828  24.470  0.00  0.00    -0.370 OA
ATOM     12  C   UNL     1      12.184  11.573  24.748  0.00  0.00    +0.171 C 
ATOM     13  C   UNL     1      12.896  11.793  23.427  0.00  0.00    +0.171 C 
ATOM     14  C   UNL     1      11.839  12.968  25.215  0.00  0.00    +0.130 C 
ATOM     15  C   UNL     1      12.350  10.707  22.528  0.00  0.00    +0.130 C 
ATOM     16  C   UNL     1      11.644  13.711  23.905  0.00  0.00    +0.185 C 
ATOM     17  C   UNL     1      10.949  10.496  23.073  0.00  0.00    +0.185 C 
ENDROOT
BRANCH  15   9
ATOM      9  N   UNL     1      13.133   9.501  22.679  0.00  0.00    -0.306 N 
ATOM     10  N   UNL     1      13.135   9.103  20.391  0.00  0.00    -0.214 NA
ATOM     11  N   UNL     1      14.251   7.612  21.920  0.00  0.00    -0.223 NA
ATOM     19  C   UNL     1      13.524   8.704  21.617  0.00  0.00    +0.216 A 
ATOM     21  C   UNL     1      13.533   8.303  19.380  0.00  0.00    +0.076 A 
ATOM     22  C   UNL     1      14.615   6.859  20.862  0.00  0.00    +0.116 A 
ATOM     23  C   UNL     1      14.282   7.157  19.557  0.00  0.00    +0.048 A 
ATOM     33  H   UNL     1      13.467   9.234  23.598  0.00  0.00    +0.149 HD
BRANCH  21  24
ATOM      2  F   UNL     1      10.161   8.669  15.946  0.00  0.00    -0.205 F 
ATOM     24  C   UNL     1      13.119   8.728  18.064  0.00  0.00    +0.003 A 
ATOM     26  C   UNL     1      11.815   8.489  17.632  0.00  0.00    +0.048 A 
ATOM     27  C   UNL     1      14.024   9.376  17.223  0.00  0.00    +0.010 A 
ATOM     29  C   UNL     1      11.415   8.898  16.361  0.00  0.00    +0.124 A 
ATOM     30  C   UNL     1      13.624   9.786  15.952  0.00  0.00    +0.003 A 
ATOM     31  C   UNL     1      12.319   9.547  15.520  0.00  0.00    +0.038 A 
ENDBRANCH  21  24
ENDBRANCH  15   9
BRANCH  14   8
ATOM      5  O   UNL     1      11.643  15.040  27.227  0.00  0.00    -0.275 OA
ATOM      8  N   UNL     1      12.915  13.541  25.987  0.00  0.00    -0.307 N 
ATOM     18  C   UNL     1      12.727  14.536  26.934  0.00  0.00    +0.223 C 
ATOM     32  H   UNL     1      13.845  13.152  25.860  0.00  0.00    +0.149 HD
BRANCH  18  20
ATOM     20  C   UNL     1      14.012  14.979  27.591  0.00  0.00    +0.165 C 
BRANCH  20   1
ATOM      1  S   UNL     1      14.508  13.737  28.809  0.00  0.00    -0.140 S 
BRANCH   1  25
ATOM     25  C   UNL     1      16.020  13.158  28.002  0.00  0.00    +0.189 C 
BRANCH  25  28
ATOM      7  O   UNL     1      14.672  11.335  27.185  0.00  0.00    -0.250 OA
ATOM     28  C   UNL     1      15.782  11.797  27.415  0.00  0.00    +0.315 C 
BRANCH  28   6
ATOM      6  O   UNL     1      16.936  11.132  27.150  0.00  0.00    -0.480 OA
ATOM     34  H   UNL     1      17.665  11.744  26.917  0.00  0.00    +0.295 HD
ENDBRANCH  28   6
ENDBRANCH  25  28
ENDBRANCH   1  25
ENDBRANCH  20   1
ENDBRANCH  18  20
ENDBRANCH  14   8
TORSDOF 8
ENDMDL
MODEL 3
REMARK VINA RESULT:      -6.9     28.416     31.931
REMARK  Name = 11913373
REMARK  8 active torsions:
REMARK  status: ('A' for Active; 'I' for Inactive)
REMARK    1  A    between atoms: S_1  and  C_20
REMARK    2  A    between atoms: S_1  and  C_25
REMARK    3  A    between atoms: O_6  and  C_28
REMARK    4  A    between atoms: N_8  and  C_14
REMARK    5  A    between atoms: N_9  and  C_15
REMARK    6  A    between atoms: C_18  and  C_20
REMARK    7  A    between atoms: C_21  and  C_24
REMARK    8  A    between atoms: C_25  and  C_28
REMARK                            x       y       z     vdW  Elec       q    Type
REMARK                         _______ _______ _______ _____ _____    ______ ____
ROOT
ATOM      3  O   UNL     1      -5.900 -11.867  10.404  0.00  0.00    -0.370 OA
ATOM      4  O   UNL     1      -3.930  -9.560   9.668  0.00  0.00    -0.370 OA
ATOM     12  C   UNL     1      -3.915 -10.979   9.438  0.00  0.00    +0.171 C 
ATOM     13  C   UNL     1      -4.504 -11.642  10.668  0.00  0.00    +0.171 C 
ATOM     14  C   UNL     1      -4.874 -11.344   8.329  0.00  0.00    +0.130 C 
ATOM     15  C   UNL     1      -4.338 -10.610  11.760  0.00  0.00    +0.130 C 
ATOM     16  C   UNL     1      -6.199 -11.446   9.065  0.00  0.00    +0.185 C 
ATOM     17  C   UNL     1      -4.413  -9.301  10.995  0.00  0.00    +0.185 C 
ENDROOT
BRANCH  15   9
ATOM      9  N   UNL     1      -3.040 -10.753  12.381  0.00  0.00    -0.306 N 
ATOM     10  N   UNL     1      -3.935 -10.565  14.515  0.00  0.00    -0.214 NA
ATOM     11  N   UNL     1      -1.571 -10.879  14.175  0.00  0.00    -0.223 NA
ATOM     19  C   UNL     1      -2.840 -10.732  13.749  0.00  0.00    +0.216 A 
ATOM     21  C   UNL     1      -3.704 -10.550  15.844  0.00  0.00    +0.076 A 
ATOM     22  C   UNL     1      -1.412 -10.854  15.514  0.00  0.00    +0.116 A 
ATOM     23  C   UNL     1      -2.451 -10.690  16.406  0.00  0.00    +0.048 A 
ATOM     33  H   UNL     1      -2.227 -10.930  11.802  0.00  0.00    +0.149 HD
BRANCH  21  24
ATOM      2  F   UNL     1      -6.015 -11.110  20.044  0.00  0.00    -0.205 F 
ATOM     24  C   UNL     1      -4.876 -10.373  16.668  0.00  0.00    +0.003 A 
ATOM     26  C   UNL     1      -4.879 -10.836  17.984  0.00  0.00    +0.048 A 
ATOM     27  C   UNL     1      -6.005  -9.740  16.149  0.00  0.00    +0.010 A 
ATOM     29  C   UNL     1      -6.011 -10.665  18.780  0.00  0.00    +0.124 A 
ATOM     30  C   UNL     1      -7.137  -9.569  16.945  0.00  0.00    +0.003 A 
ATOM     31  C   UNL     1      -7.140 -10.032  18.261  0.00  0.00    +0.038 A 
ENDBRANCH  21  24
ENDBRANCH  15   9
BRANCH  14   8
ATOM      5  O   UNL     1      -3.989 -11.784   5.608  0.00  0.00    -0.275 OA
ATOM      8  N   UNL     1      -4.515 -12.601   7.720  0.00  0.00    -0.307 N 
ATOM     18  C   UNL     1      -4.100 -12.718   6.402  0.00  0.00    +0.223 C 
ATOM     32  H   UNL     1      -4.519 -13.428   8.310  0.00  0.00    +0.149 HD
BRANCH  18  20
ATOM     20  C   UNL     1      -3.800 -14.142   5.999  0.00  0.00    +0.165 C 
BRANCH  20   1
ATOM      1  S   UNL     1      -2.148 -14.209   5.265  0.00  0.00    -0.140 S 
BRANCH   1  25
ATOM     25  C   UNL     1      -2.631 -14.391   3.532  0.00  0.00    +0.189 C 
BRANCH  25  28
ATOM      7  O   UNL     1      -0.996 -13.521   1.989  0.00  0.00    -0.250 OA
ATOM     28  C   UNL     1      -1.964 -13.324   2.713  0.00  0.00    +0.315 C 
BRANCH  28   6
ATOM      6  O   UNL     1      -2.559 -12.111   2.848  0.00  0.00    -0.480 OA
ATOM     34  H   UNL     1      -1.902 -11.389   2.929  0.00  0.00    +0.295 HD
ENDBRANCH  28   6
ENDBRANCH  25  28
ENDBRANCH   1  25
ENDBRANCH  20   1
ENDBRANCH  18  20
ENDBRANCH  14   8
TORSDOF 8
ENDMDL
MODEL 4
REMARK VINA RESULT:      -6.9     28.418     32.040
REMARK  Name = 11913373
REMARK  8 active torsions:
REMARK  status: ('A' for Active; 'I' for Inactive)
REMARK    1  A    between atoms: S_1  and  C_20
REMARK    2  A    between atoms: S_1  and  C_25
REMARK    3  A    between atoms: O_6  and  C_28
REMARK    4  A    between atoms: N_8  and  C_14
REMARK    5  A    between atoms: N_9  and  C_15
REMARK    6  A    between atoms: C_18  and  C_20
REMARK    7  A    between atoms: C_21  and  C_24
REMARK    8  A    between atoms: C_25  and  C_28
REMARK                            x       y       z     vdW  Elec       q    Type
REMARK                         _______ _______ _______ _____ _____    ______ ____
ROOT
ATOM      3  O   UNL     1      -5.938 -11.695  10.082  0.00  0.00    -0.370 OA
ATOM      4  O   UNL     1      -4.415  -8.971  10.026  0.00  0.00    -0.370 OA
ATOM     12  C   UNL     1      -4.176 -10.245   9.405  0.00  0.00    +0.171 C 
ATOM     13  C   UNL     1      -4.587 -11.316  10.398  0.00  0.00    +0.171 C 
ATOM     14  C   UNL     1      -5.116 -10.446   8.239  0.00  0.00    +0.130 C 
ATOM     15  C   UNL     1      -4.540 -10.616  11.737  0.00  0.00    +0.130 C 
ATOM     16  C   UNL     1      -6.367 -10.976   8.917  0.00  0.00    +0.185 C 
ATOM     17  C   UNL     1      -4.868  -9.179  11.373  0.00  0.00    +0.185 C 
ENDROOT
BRANCH  15   9
ATOM      9  N   UNL     1      -3.207 -10.700  12.291  0.00  0.00    -0.306 N 
ATOM     10  N   UNL     1      -4.001 -10.556  14.468  0.00  0.00    -0.214 NA
ATOM     11  N   UNL     1      -1.645 -10.760  14.009  0.00  0.00    -0.223 NA
ATOM     19  C   UNL     1      -2.940 -10.671  13.648  0.00  0.00    +0.216 A 
ATOM     21  C   UNL     1      -3.704 -10.531  15.784  0.00  0.00    +0.076 A 
ATOM     22  C   UNL     1      -1.421 -10.729  15.339  0.00  0.00    +0.116 A 
ATOM     23  C   UNL     1      -2.420 -10.614  16.283  0.00  0.00    +0.048 A 
ATOM     33  H   UNL     1      -2.417 -10.839  11.672  0.00  0.00    +0.149 HD
BRANCH  21  24
ATOM      2  F   UNL     1      -8.126  -8.847  16.739  0.00  0.00    -0.205 F 
ATOM     24  C   UNL     1      -4.840 -10.409  16.667  0.00  0.00    +0.003 A 
ATOM     26  C   UNL     1      -5.956  -9.673  16.269  0.00  0.00    +0.048 A 
ATOM     27  C   UNL     1      -4.822 -11.025  17.918  0.00  0.00    +0.010 A 
ATOM     29  C   UNL     1      -7.053  -9.554  17.121  0.00  0.00    +0.124 A 
ATOM     30  C   UNL     1      -5.919 -10.906  18.770  0.00  0.00    +0.003 A 
ATOM     31  C   UNL     1      -7.035 -10.171  18.372  0.00  0.00    +0.038 A 
ENDBRANCH  21  24
ENDBRANCH  15   9
BRANCH  14   8
ATOM      5  O   UNL     1      -5.675 -10.614   5.404  0.00  0.00    -0.275 OA
ATOM      8  N   UNL     1      -4.585 -11.404   7.299  0.00  0.00    -0.307 N 
ATOM     18  C   UNL     1      -4.911 -11.408   5.951  0.00  0.00    +0.223 C 
ATOM     32  H   UNL     1      -3.898 -12.069   7.641  0.00  0.00    +0.149 HD
BRANCH  18  20
ATOM     20  C   UNL     1      -4.238 -12.521   5.183  0.00  0.00    +0.165 C 
BRANCH  20   1
ATOM      1  S   UNL     1      -4.834 -12.500   3.476  0.00  0.00    -0.140 S 
BRANCH   1  25
ATOM     25  C   UNL     1      -3.776 -13.804   2.805  0.00  0.00    +0.189 C 
BRANCH  25  28
ATOM      7  O   UNL     1      -1.466 -13.208   2.463  0.00  0.00    -0.250 OA
ATOM     28  C   UNL     1      -2.625 -13.184   2.068  0.00  0.00    +0.315 C 
BRANCH  28   6
ATOM      6  O   UNL     1      -3.002 -12.602   0.901  0.00  0.00    -0.480 OA
ATOM     34  H   UNL     1      -2.662 -11.686   0.822  0.00  0.00    +0.295 HD
ENDBRANCH  28   6
ENDBRANCH  25  28
ENDBRANCH   1  25
ENDBRANCH  20   1
ENDBRANCH  18  20
ENDBRANCH  14   8
TORSDOF 8
ENDMDL
MODEL 5
REMARK VINA RESULT:      -6.9      7.177      9.599
REMARK  Name = 11913373
REMARK  8 active torsions:
REMARK  status: ('A' for Active; 'I' for Inactive)
REMARK    1  A    between atoms: S_1  and  C_20
REMARK    2  A    between atoms: S_1  and  C_25
REMARK    3  A    between atoms: O_6  and  C_28
REMARK    4  A    between atoms: N_8  and  C_14
REMARK    5  A    between atoms: N_9  and  C_15
REMARK    6  A    between atoms: C_18  and  C_20
REMARK    7  A    between atoms: C_21  and  C_24
REMARK    8  A    between atoms: C_25  and  C_28
REMARK                            x       y       z     vdW  Elec       q    Type
REMARK                         _______ _______ _______ _____ _____    ______ ____
ROOT
ATOM      3  O   UNL     1      20.066   6.336  20.186  0.00  0.00    -0.370 OA
ATOM      4  O   UNL     1      19.945   8.204  22.683  0.00  0.00    -0.370 OA
ATOM     12  C   UNL     1      19.952   6.776  22.522  0.00  0.00    +0.171 C 
ATOM     13  C   UNL     1      19.141   6.458  21.280  0.00  0.00    +0.171 C 
ATOM     14  C   UNL     1      21.343   6.290  22.185  0.00  0.00    +0.130 C 
ATOM     15  C   UNL     1      18.264   7.674  21.090  0.00  0.00    +0.130 C 
ATOM     16  C   UNL     1      21.403   6.492  20.681  0.00  0.00    +0.185 C 
ATOM     17  C   UNL     1      19.112   8.791  21.671  0.00  0.00    +0.185 C 
ENDROOT
BRANCH  15   9
ATOM      9  N   UNL     1      17.043   7.526  21.851  0.00  0.00    -0.306 N 
ATOM     10  N   UNL     1      15.741   8.295  20.089  0.00  0.00    -0.214 NA
ATOM     11  N   UNL     1      14.748   7.640  22.184  0.00  0.00    -0.223 NA
ATOM     19  C   UNL     1      15.789   7.833  21.353  0.00  0.00    +0.216 A 
ATOM     21  C   UNL     1      14.503   8.585  19.636  0.00  0.00    +0.076 A 
ATOM     22  C   UNL     1      13.541   7.950  21.666  0.00  0.00    +0.116 A 
ATOM     23  C   UNL     1      13.356   8.431  20.387  0.00  0.00    +0.048 A 
ATOM     33  H   UNL     1      17.081   7.128  22.783  0.00  0.00    +0.149 HD
BRANCH  21  24
ATOM      2  F   UNL     1      14.945  12.185  16.451  0.00  0.00    -0.205 F 
ATOM     24  C   UNL     1      14.447   9.079  18.281  0.00  0.00    +0.003 A 
ATOM     26  C   UNL     1      14.729  10.419  18.015  0.00  0.00    +0.048 A 
ATOM     27  C   UNL     1      14.110   8.218  17.237  0.00  0.00    +0.010 A 
ATOM     29  C   UNL     1      14.674  10.897  16.706  0.00  0.00    +0.124 A 
ATOM     30  C   UNL     1      14.055   8.696  15.928  0.00  0.00    +0.003 A 
ATOM     31  C   UNL     1      14.337  10.036  15.663  0.00  0.00    +0.038 A 
ENDBRANCH  21  24
ENDBRANCH  15   9
BRANCH  14   8
ATOM      5  O   UNL     1      23.746   5.005  23.161  0.00  0.00    -0.275 OA
ATOM      8  N   UNL     1      21.510   4.900  22.534  0.00  0.00    -0.307 N 
ATOM     18  C   UNL     1      22.705   4.370  22.995  0.00  0.00    +0.223 C 
ATOM     32  H   UNL     1      20.691   4.301  22.487  0.00  0.00    +0.149 HD
BRANCH  18  20
ATOM     20  C   UNL     1      22.627   2.888  23.273  0.00  0.00    +0.165 C 
BRANCH  20   1
ATOM      1  S   UNL     1      24.040   2.068  22.497  0.00  0.00    -0.140 S 
BRANCH   1  25
ATOM     25  C   UNL     1      23.587   2.330  20.766  0.00  0.00    +0.189 C 
BRANCH  25  28
ATOM      7  O   UNL     1      25.731   3.416  20.579  0.00  0.00    -0.250 OA
ATOM     28  C   UNL     1      24.750   2.929  20.030  0.00  0.00    +0.315 C 
BRANCH  28   6
ATOM      6  O   UNL     1      24.608   2.862  18.681  0.00  0.00    -0.480 OA
ATOM     34  H   UNL     1      25.368   3.268  18.213  0.00  0.00    +0.295 HD
ENDBRANCH  28   6
ENDBRANCH  25  28
ENDBRANCH   1  25
ENDBRANCH  20   1
ENDBRANCH  18  20
ENDBRANCH  14   8
TORSDOF 8
ENDMDL
MODEL 6
REMARK VINA RESULT:      -6.8      7.261     10.435
REMARK  Name = 11913373
REMARK  8 active torsions:
REMARK  status: ('A' for Active; 'I' for Inactive)
REMARK    1  A    between atoms: S_1  and  C_20
REMARK    2  A    between atoms: S_1  and  C_25
REMARK    3  A    between atoms: O_6  and  C_28
REMARK    4  A    between atoms: N_8  and  C_14
REMARK    5  A    between atoms: N_9  and  C_15
REMARK    6  A    between atoms: C_18  and  C_20
REMARK    7  A    between atoms: C_21  and  C_24
REMARK    8  A    between atoms: C_25  and  C_28
REMARK                            x       y       z     vdW  Elec       q    Type
REMARK                         _______ _______ _______ _____ _____    ______ ____
ROOT
ATOM      3  O   UNL     1      15.401  11.197  15.794  0.00  0.00    -0.370 OA
ATOM      4  O   UNL     1      13.076   9.196  15.219  0.00  0.00    -0.370 OA
ATOM     12  C   UNL     1      13.112  10.593  15.556  0.00  0.00    +0.171 C 
ATOM     13  C   UNL     1      14.244  10.790  16.545  0.00  0.00    +0.171 C 
ATOM     14  C   UNL     1      13.526  11.413  14.356  0.00  0.00    +0.130 C 
ATOM     15  C   UNL     1      14.461   9.416  17.137  0.00  0.00    +0.130 C 
ATOM     16  C   UNL     1      15.042  11.329  14.412  0.00  0.00    +0.185 C 
ATOM     17  C   UNL     1      14.058   8.496  15.999  0.00  0.00    +0.185 C 
ENDROOT
BRANCH  15   9
ATOM      9  N   UNL     1      13.586   9.223  18.271  0.00  0.00    -0.306 N 
ATOM     10  N   UNL     1      15.299   8.335  19.563  0.00  0.00    -0.214 NA
ATOM     11  N   UNL     1      13.067   8.572  20.439  0.00  0.00    -0.223 NA
ATOM     19  C   UNL     1      14.002   8.687  19.477  0.00  0.00    +0.216 A 
ATOM     21  C   UNL     1      15.670   7.817  20.752  0.00  0.00    +0.076 A 
ATOM     22  C   UNL     1      13.507   8.046  21.601  0.00  0.00    +0.116 A 
ATOM     23  C   UNL     1      14.809   7.646  21.817  0.00  0.00    +0.048 A 
ATOM     33  H   UNL     1      12.623   9.538  18.218  0.00  0.00    +0.149 HD
BRANCH  21  24
ATOM      2  F   UNL     1      19.275   4.760  19.773  0.00  0.00    -0.205 F 
ATOM     24  C   UNL     1      17.060   7.439  20.848  0.00  0.00    +0.003 A 
ATOM     26  C   UNL     1      17.505   6.259  20.252  0.00  0.00    +0.048 A 
ATOM     27  C   UNL     1      17.958   8.253  21.537  0.00  0.00    +0.010 A 
ATOM     29  C   UNL     1      18.848   5.894  20.346  0.00  0.00    +0.124 A 
ATOM     30  C   UNL     1      19.301   7.888  21.631  0.00  0.00    +0.003 A 
ATOM     31  C   UNL     1      19.746   6.708  21.035  0.00  0.00    +0.038 A 
ENDBRANCH  21  24
ENDBRANCH  15   9
BRANCH  14   8
ATOM      5  O   UNL     1      12.763  13.198  12.209  0.00  0.00    -0.275 OA
ATOM      8  N   UNL     1      13.073  12.777  14.474  0.00  0.00    -0.307 N 
ATOM     18  C   UNL     1      12.728  13.562  13.384  0.00  0.00    +0.223 C 
ATOM     32  H   UNL     1      12.954  13.155  15.409  0.00  0.00    +0.149 HD
BRANCH  18  20
ATOM     20  C   UNL     1      12.303  14.958  13.770  0.00  0.00    +0.165 C 
BRANCH  20   1
ATOM      1  S   UNL     1      10.872  15.435  12.771  0.00  0.00    -0.140 S 
BRANCH   1  25
ATOM     25  C   UNL     1       9.573  14.707  13.796  0.00  0.00    +0.189 C 
BRANCH  25  28
ATOM      7  O   UNL     1       9.203  13.174  11.974  0.00  0.00    -0.250 OA
ATOM     28  C   UNL     1       9.097  13.430  13.167  0.00  0.00    +0.315 C 
BRANCH  28   6
ATOM      6  O   UNL     1       8.546  12.575  14.066  0.00  0.00    -0.480 OA
ATOM     34  H   UNL     1       9.114  12.461  14.857  0.00  0.00    +0.295 HD
ENDBRANCH  28   6
ENDBRANCH  25  28
ENDBRANCH   1  25
ENDBRANCH  20   1
ENDBRANCH  18  20
ENDBRANCH  14   8
TORSDOF 8
ENDMDL
MODEL 7
REMARK VINA RESULT:      -6.8      4.732      8.651
REMARK  Name = 11913373
REMARK  8 active torsions:
REMARK  status: ('A' for Active; 'I' for Inactive)
REMARK    1  A    between atoms: S_1  and  C_20
REMARK    2  A    between atoms: S_1  and  C_25
REMARK    3  A    between atoms: O_6  and  C_28
REMARK    4  A    between atoms: N_8  and  C_14
REMARK    5  A    between atoms: N_9  and  C_15
REMARK    6  A    between atoms: C_18  and  C_20
REMARK    7  A    between atoms: C_21  and  C_24
REMARK    8  A    between atoms: C_25  and  C_28
REMARK                            x       y       z     vdW  Elec       q    Type
REMARK                         _______ _______ _______ _____ _____    ______ ____
ROOT
ATOM      3  O   UNL     1      13.552   8.578  22.035  0.00  0.00    -0.370 OA
ATOM      4  O   UNL     1      10.550   8.199  21.272  0.00  0.00    -0.370 OA
ATOM     12  C   UNL     1      11.701   8.654  20.542  0.00  0.00    +0.171 C 
ATOM     13  C   UNL     1      12.553   9.464  21.501  0.00  0.00    +0.171 C 
ATOM     14  C   UNL     1      12.582   7.486  20.166  0.00  0.00    +0.130 C 
ATOM     15  C   UNL     1      11.589   9.882  22.588  0.00  0.00    +0.130 C 
ATOM     16  C   UNL     1      13.416   7.290  21.420  0.00  0.00    +0.185 C 
ATOM     17  C   UNL     1      10.587   8.743  22.600  0.00  0.00    +0.185 C 
ENDROOT
BRANCH  15   9
ATOM      9  N   UNL     1      10.937  11.119  22.220  0.00  0.00    -0.306 N 
ATOM     10  N   UNL     1      11.929  12.274  23.973  0.00  0.00    -0.214 NA
ATOM     11  N   UNL     1      10.431  13.374  22.441  0.00  0.00    -0.223 NA
ATOM     19  C   UNL     1      11.107  12.307  22.907  0.00  0.00    +0.216 A 
ATOM     21  C   UNL     1      12.072  13.449  24.619  0.00  0.00    +0.076 A 
ATOM     22  C   UNL     1      10.619  14.516  23.134  0.00  0.00    +0.116 A 
ATOM     23  C   UNL     1      11.435  14.614  24.242  0.00  0.00    +0.048 A 
ATOM     33  H   UNL     1      10.360  11.150  21.387  0.00  0.00    +0.149 HD
BRANCH  21  24
ATOM      2  F   UNL     1      15.590  11.334  27.158  0.00  0.00    -0.205 F 
ATOM     24  C   UNL     1      12.954  13.418  25.761  0.00  0.00    +0.003 A 
ATOM     26  C   UNL     1      13.864  12.371  25.911  0.00  0.00    +0.048 A 
ATOM     27  C   UNL     1      12.898  14.433  26.715  0.00  0.00    +0.010 A 
ATOM     29  C   UNL     1      14.716  12.340  27.014  0.00  0.00    +0.124 A 
ATOM     30  C   UNL     1      13.750  14.403  27.818  0.00  0.00    +0.003 A 
ATOM     31  C   UNL     1      14.659  13.356  27.968  0.00  0.00    +0.038 A 
ENDBRANCH  21  24
ENDBRANCH  15   9
BRANCH  14   8
ATOM      5  O   UNL     1      11.867   7.298  17.367  0.00  0.00    -0.275 OA
ATOM      8  N   UNL     1      13.413   7.802  19.029  0.00  0.00    -0.307 N 
ATOM     18  C   UNL     1      12.984   7.681  17.716  0.00  0.00    +0.223 C 
ATOM     32  H   UNL     1      14.337   8.183  19.212  0.00  0.00    +0.149 HD
BRANCH  18  20
ATOM     20  C   UNL     1      14.045   8.056  16.709  0.00  0.00    +0.165 C 
BRANCH  20   1
ATOM      1  S   UNL     1      13.593   9.628  15.937  0.00  0.00    -0.140 S 
BRANCH   1  25
ATOM     25  C   UNL     1      14.769  10.699  16.797  0.00  0.00    +0.189 C 
BRANCH  25  28
ATOM      7  O   UNL     1      13.257  11.610  18.437  0.00  0.00    -0.250 OA
ATOM     28  C   UNL     1      14.272  10.972  18.187  0.00  0.00    +0.315 C 
BRANCH  28   6
ATOM      6  O   UNL     1      15.062  10.423  19.144  0.00  0.00    -0.480 OA
ATOM     34  H   UNL     1      14.625   9.666  19.588  0.00  0.00    +0.295 HD
ENDBRANCH  28   6
ENDBRANCH  25  28
ENDBRANCH   1  25
ENDBRANCH  20   1
ENDBRANCH  18  20
ENDBRANCH  14   8
TORSDOF 8
ENDMDL
MODEL 8
REMARK VINA RESULT:      -6.7     26.498     29.660
REMARK  Name = 11913373
REMARK  8 active torsions:
REMARK  status: ('A' for Active; 'I' for Inactive)
REMARK    1  A    between atoms: S_1  and  C_20
REMARK    2  A    between atoms: S_1  and  C_25
REMARK    3  A    between atoms: O_6  and  C_28
REMARK    4  A    between atoms: N_8  and  C_14
REMARK    5  A    between atoms: N_9  and  C_15
REMARK    6  A    between atoms: C_18  and  C_20
REMARK    7  A    between atoms: C_21  and  C_24
REMARK    8  A    between atoms: C_25  and  C_28
REMARK                            x       y       z     vdW  Elec       q    Type
REMARK                         _______ _______ _______ _____ _____    ______ ____
ROOT
ATOM      3  O   UNL     1     -14.993   7.552  22.580  0.00  0.00    -0.370 OA
ATOM      4  O   UNL     1     -13.162   5.037  22.322  0.00  0.00    -0.370 OA
ATOM     12  C   UNL     1     -13.890   5.827  21.367  0.00  0.00    +0.171 C 
ATOM     13  C   UNL     1     -15.193   6.241  22.022  0.00  0.00    +0.171 C 
ATOM     14  C   UNL     1     -13.175   7.134  21.112  0.00  0.00    +0.130 C 
ATOM     15  C   UNL     1     -15.390   5.228  23.126  0.00  0.00    +0.130 C 
ATOM     16  C   UNL     1     -13.671   8.004  22.254  0.00  0.00    +0.185 C 
ATOM     17  C   UNL     1     -13.965   4.861  23.499  0.00  0.00    +0.185 C 
ENDROOT
BRANCH  15   9
ATOM      9  N   UNL     1     -16.087   4.069  22.614  0.00  0.00    -0.306 N 
ATOM     10  N   UNL     1     -16.339   3.164  24.738  0.00  0.00    -0.214 NA
ATOM     11  N   UNL     1     -17.190   2.033  22.788  0.00  0.00    -0.223 NA
ATOM     19  C   UNL     1     -16.560   3.044  23.415  0.00  0.00    +0.216 A 
ATOM     21  C   UNL     1     -16.814   2.149  25.488  0.00  0.00    +0.076 A 
ATOM     22  C   UNL     1     -17.638   1.051  23.599  0.00  0.00    +0.116 A 
ATOM     23  C   UNL     1     -17.476   1.055  24.969  0.00  0.00    +0.048 A 
ATOM     33  H   UNL     1     -16.296   4.009  21.623  0.00  0.00    +0.149 HD
BRANCH  21  24
ATOM      2  F   UNL     1     -15.734   4.833  29.351  0.00  0.00    -0.205 F 
ATOM     24  C   UNL     1     -16.580   2.274  26.907  0.00  0.00    +0.003 A 
ATOM     26  C   UNL     1     -16.264   3.517  27.454  0.00  0.00    +0.048 A 
ATOM     27  C   UNL     1     -16.671   1.153  27.731  0.00  0.00    +0.010 A 
ATOM     29  C   UNL     1     -16.038   3.639  28.825  0.00  0.00    +0.124 A 
ATOM     30  C   UNL     1     -16.445   1.274  29.102  0.00  0.00    +0.003 A 
ATOM     31  C   UNL     1     -16.129   2.518  29.649  0.00  0.00    +0.038 A 
ENDBRANCH  21  24
ENDBRANCH  15   9
BRANCH  14   8
ATOM      5  O   UNL     1     -11.545   7.271  18.724  0.00  0.00    -0.275 OA
ATOM      8  N   UNL     1     -13.545   7.691  19.833  0.00  0.00    -0.307 N 
ATOM     18  C   UNL     1     -12.693   7.714  18.739  0.00  0.00    +0.223 C 
ATOM     32  H   UNL     1     -14.495   8.031  19.724  0.00  0.00    +0.149 HD
BRANCH  18  20
ATOM     20  C   UNL     1     -13.308   8.366  17.524  0.00  0.00    +0.165 C 
BRANCH  20   1
ATOM      1  S   UNL     1     -11.986   8.901  16.411  0.00  0.00    -0.140 S 
BRANCH   1  25
ATOM     25  C   UNL     1     -11.567  10.462  17.222  0.00  0.00    +0.189 C 
BRANCH  25  28
ATOM      7  O   UNL     1      -9.452  11.614  17.291  0.00  0.00    -0.250 OA
ATOM     28  C   UNL     1     -10.077  10.564  17.369  0.00  0.00    +0.315 C 
BRANCH  28   6
ATOM      6  O   UNL     1      -9.491   9.365  17.615  0.00  0.00    -0.480 OA
ATOM     34  H   UNL     1      -8.573   9.329  17.271  0.00  0.00    +0.295 HD
ENDBRANCH  28   6
ENDBRANCH  25  28
ENDBRANCH   1  25
ENDBRANCH  20   1
ENDBRANCH  18  20
ENDBRANCH  14   8
TORSDOF 8
ENDMDL
MODEL 9
REMARK VINA RESULT:      -6.7     27.525     30.351
REMARK  Name = 11913373
REMARK  8 active torsions:
REMARK  status: ('A' for Active; 'I' for Inactive)
REMARK    1  A    between atoms: S_1  and  C_20
REMARK    2  A    between atoms: S_1  and  C_25
REMARK    3  A    between atoms: O_6  and  C_28
REMARK    4  A    between atoms: N_8  and  C_14
REMARK    5  A    between atoms: N_9  and  C_15
REMARK    6  A    between atoms: C_18  and  C_20
REMARK    7  A    between atoms: C_21  and  C_24
REMARK    8  A    between atoms: C_25  and  C_28
REMARK                            x       y       z     vdW  Elec       q    Type
REMARK                         _______ _______ _______ _____ _____    ______ ____
ROOT
ATOM      3  O   UNL     1      -7.143 -12.477  15.425  0.00  0.00    -0.370 OA
ATOM      4  O   UNL     1      -6.147 -12.818  18.363  0.00  0.00    -0.370 OA
ATOM     12  C   UNL     1      -6.645 -11.695  17.617  0.00  0.00    +0.171 C 
ATOM     13  C   UNL     1      -6.120 -11.827  16.200  0.00  0.00    +0.171 C 
ATOM     14  C   UNL     1      -8.145 -11.789  17.463  0.00  0.00    +0.130 C 
ATOM     15  C   UNL     1      -4.914 -12.727  16.334  0.00  0.00    +0.130 C 
ATOM     16  C   UNL     1      -8.292 -12.697  16.255  0.00  0.00    +0.185 C 
ATOM     17  C   UNL     1      -5.277 -13.595  17.525  0.00  0.00    +0.185 C 
ENDROOT
BRANCH  15   9
ATOM      9  N   UNL     1      -3.739 -11.938  16.630  0.00  0.00    -0.306 N 
ATOM     10  N   UNL     1      -3.395 -11.436  14.389  0.00  0.00    -0.214 NA
ATOM     11  N   UNL     1      -1.919 -10.597  16.099  0.00  0.00    -0.223 NA
ATOM     19  C   UNL     1      -2.985 -11.296  15.664  0.00  0.00    +0.216 A 
ATOM     21  C   UNL     1      -2.638 -10.797  13.474  0.00  0.00    +0.076 A 
ATOM     22  C   UNL     1      -1.206  -9.984  15.130  0.00  0.00    +0.116 A 
ATOM     23  C   UNL     1      -1.521 -10.050  13.789  0.00  0.00    +0.048 A 
ATOM     33  H   UNL     1      -3.466 -11.792  17.596  0.00  0.00    +0.149 HD
BRANCH  21  24
ATOM      2  F   UNL     1      -3.706  -8.888   9.172  0.00  0.00    -0.205 F 
ATOM     24  C   UNL     1      -3.075 -10.945  12.106  0.00  0.00    +0.003 A 
ATOM     26  C   UNL     1      -3.181  -9.824  11.283  0.00  0.00    +0.048 A 
ATOM     27  C   UNL     1      -3.391 -12.208  11.607  0.00  0.00    +0.010 A 
ATOM     29  C   UNL     1      -3.603  -9.966   9.962  0.00  0.00    +0.124 A 
ATOM     30  C   UNL     1      -3.813 -12.350  10.286  0.00  0.00    +0.003 A 
ATOM     31  C   UNL     1      -3.920 -11.229   9.463  0.00  0.00    +0.038 A 
ENDBRANCH  21  24
ENDBRANCH  15   9
BRANCH  14   8
ATOM      5  O   UNL     1     -10.046 -10.377  19.128  0.00  0.00    -0.275 OA
ATOM      8  N   UNL     1      -8.727 -10.492  17.217  0.00  0.00    -0.307 N 
ATOM     18  C   UNL     1      -9.636  -9.890  18.075  0.00  0.00    +0.223 C 
ATOM     32  H   UNL     1      -8.408  -9.980  16.400  0.00  0.00    +0.149 HD
BRANCH  18  20
ATOM     20  C   UNL     1     -10.110  -8.543  17.585  0.00  0.00    +0.165 C 
BRANCH  20   1
ATOM      1  S   UNL     1     -11.518  -8.784  16.476  0.00  0.00    -0.140 S 
BRANCH   1  25
ATOM     25  C   UNL     1     -10.926  -7.810  15.072  0.00  0.00    +0.189 C 
BRANCH  25  28
ATOM      7  O   UNL     1     -12.029  -5.749  15.660  0.00  0.00    -0.250 OA
ATOM     28  C   UNL     1     -10.990  -6.350  15.415  0.00  0.00    +0.315 C 
BRANCH  28   6
ATOM      6  O   UNL     1      -9.767  -5.763  15.440  0.00  0.00    -0.480 OA
ATOM     34  H   UNL     1      -9.485  -5.545  16.354  0.00  0.00    +0.295 HD
ENDBRANCH  28   6
ENDBRANCH  25  28
ENDBRANCH   1  25
ENDBRANCH  20   1
ENDBRANCH  18  20
ENDBRANCH  14   8
TORSDOF 8
ENDMDL
MODEL 10
REMARK VINA RESULT:      -6.6     28.353     31.711
REMARK  Name = 11913373
REMARK  8 active torsions:
REMARK  status: ('A' for Active; 'I' for Inactive)
REMARK    1  A    between atoms: S_1  and  C_20
REMARK    2  A    between atoms: S_1  and  C_25
REMARK    3  A    between atoms: O_6  and  C_28
REMARK    4  A    between atoms: N_8  and  C_14
REMARK    5  A    between atoms: N_9  and  C_15
REMARK    6  A    between atoms: C_18  and  C_20
REMARK    7  A    between atoms: C_21  and  C_24
REMARK    8  A    between atoms: C_25  and  C_28
REMARK                            x       y       z     vdW  Elec       q    Type
REMARK                         _______ _______ _______ _____ _____    ______ ____
ROOT
ATOM      3  O   UNL     1      -5.929 -11.808  10.174  0.00  0.00    -0.370 OA
ATOM      4  O   UNL     1      -4.629  -8.978  10.369  0.00  0.00    -0.370 OA
ATOM     12  C   UNL     1      -4.303 -10.161   9.622  0.00  0.00    +0.171 C 
ATOM     13  C   UNL     1      -4.607 -11.354  10.509  0.00  0.00    +0.171 C 
ATOM     14  C   UNL     1      -5.248 -10.323   8.454  0.00  0.00    +0.130 C 
ATOM     15  C   UNL     1      -4.587 -10.786  11.909  0.00  0.00    +0.130 C 
ATOM     16  C   UNL     1      -6.439 -11.017   9.092  0.00  0.00    +0.185 C 
ATOM     17  C   UNL     1      -5.036  -9.352  11.695  0.00  0.00    +0.185 C 
ENDROOT
BRANCH  15   9
ATOM      9  N   UNL     1      -3.241 -10.816  12.436  0.00  0.00    -0.306 N 
ATOM     10  N   UNL     1      -3.992 -10.656  14.627  0.00  0.00    -0.214 NA
ATOM     11  N   UNL     1      -1.641 -10.792  14.119  0.00  0.00    -0.223 NA
ATOM     19  C   UNL     1      -2.945 -10.752  13.786  0.00  0.00    +0.216 A 
ATOM     21  C   UNL     1      -3.668 -10.597  15.935  0.00  0.00    +0.076 A 
ATOM     22  C   UNL     1      -1.389 -10.728  15.443  0.00  0.00    +0.116 A 
ATOM     23  C   UNL     1      -2.371 -10.628  16.406  0.00  0.00    +0.048 A 
ATOM     33  H   UNL     1      -2.460 -10.941  11.801  0.00  0.00    +0.149 HD
BRANCH  21  24
ATOM      2  F   UNL     1      -5.651 -11.342  20.272  0.00  0.00    -0.205 F 
ATOM     24  C   UNL     1      -4.788 -10.495  16.840  0.00  0.00    +0.003 A 
ATOM     26  C   UNL     1      -4.676 -10.977  18.145  0.00  0.00    +0.048 A 
ATOM     27  C   UNL     1      -5.981  -9.915  16.411  0.00  0.00    +0.010 A 
ATOM     29  C   UNL     1      -5.758 -10.879  19.019  0.00  0.00    +0.124 A 
ATOM     30  C   UNL     1      -7.063  -9.817  17.286  0.00  0.00    +0.003 A 
ATOM     31  C   UNL     1      -6.951 -10.299  18.590  0.00  0.00    +0.038 A 
ENDBRANCH  21  24
ENDBRANCH  15   9
BRANCH  14   8
ATOM      5  O   UNL     1      -5.949 -10.356   5.645  0.00  0.00    -0.275 OA
ATOM      8  N   UNL     1      -4.662 -11.137   7.417  0.00  0.00    -0.307 N 
ATOM     18  C   UNL     1      -5.064 -11.086   6.090  0.00  0.00    +0.223 C 
ATOM     32  H   UNL     1      -3.881 -11.735   7.671  0.00  0.00    +0.149 HD
BRANCH  18  20
ATOM     20  C   UNL     1      -4.309 -12.049   5.206  0.00  0.00    +0.165 C 
BRANCH  20   1
ATOM      1  S   UNL     1      -5.401 -13.422   4.764  0.00  0.00    -0.140 S 
BRANCH   1  25
ATOM     25  C   UNL     1      -5.182 -14.429   6.250  0.00  0.00    +0.189 C 
BRANCH  25  28
ATOM      7  O   UNL     1      -2.910 -15.125   5.841  0.00  0.00    -0.250 OA
ATOM     28  C   UNL     1      -3.718 -14.549   6.560  0.00  0.00    +0.315 C 
BRANCH  28   6
ATOM      6  O   UNL     1      -3.375 -13.936   7.722  0.00  0.00    -0.480 OA
ATOM     34  H   UNL     1      -4.090 -13.351   8.050  0.00  0.00    +0.295 HD
ENDBRANCH  28   6
ENDBRANCH  25  28
ENDBRANCH   1  25
ENDBRANCH  20   1
ENDBRANCH  18  20
ENDBRANCH  14   8
TORSDOF 8
ENDMDL
