REMARK  Name = 40777345
REMARK  6 active torsions:
REMARK  status: ('A' for Active; 'I' for Inactive)
REMARK    1  A    between atoms: C_7  and  C_12
REMARK    2  A    between atoms: C_8  and  C_11
REMARK    3  A    between atoms: C_11  and  C_21
REMARK    4  A    between atoms: C_12  and  C_22
REMARK    5  A    between atoms: C_14  and  C_17
REMARK    6  A    between atoms: C_17  and  C_23
REMARK                            x       y       z     vdW  Elec       q    Type
REMARK                         _______ _______ _______ _____ _____    ______ ____
ROOT
ATOM      4  N   UNL     1       0.243   2.775   0.363  0.00  0.00    -0.316 NA
ATOM      7  C   UNL     1       1.879   0.743  -1.016  0.00  0.00    +0.004 C 
ATOM      8  C   UNL     1       0.422   0.479  -0.566  0.00  0.00    +0.012 C 
ATOM      9  C   UNL     1       2.079   2.255  -1.206  0.00  0.00    +0.019 C 
ATOM     10  C   UNL     1       0.032   1.353   0.638  0.00  0.00    +0.085 C 
ATOM     13  C   UNL     1       1.633   3.060   0.014  0.00  0.00    +0.081 C 
ATOM     29  H   UNL     1      -0.017   3.320   1.185  0.00  0.00    +0.122 HD
ENDROOT
BRANCH   8  11
ATOM     11  C   UNL     1       0.143  -0.996  -0.272  0.00  0.00    +0.064 C 
BRANCH  11  21
ATOM      1  O   UNL     1      -3.199  -1.891  -1.267  0.00  0.00    -0.359 OA
ATOM      6  N   UNL     1      -1.850  -1.689  -1.531  0.00  0.00    -0.083 NA
ATOM     21  C   UNL     1      -1.323  -1.304  -0.365  0.00  0.00    +0.084 A 
ATOM     23  C   UNL     1      -3.445  -1.624   0.041  0.00  0.00    +0.138 A 
ATOM     24  C   UNL     1      -2.283  -1.246   0.660  0.00  0.00    +0.071 A 
BRANCH  23  17
ATOM     17  C   UNL     1      -4.831  -1.788   0.494  0.00  0.00    +0.080 C 
BRANCH  17  14
ATOM     14  C   UNL     1      -5.741  -0.636   0.073  0.00  0.00    -0.004 C 
ATOM     15  C   UNL     1      -7.182  -0.885   0.539  0.00  0.00    +0.004 C 
ATOM     16  C   UNL     1      -5.214   0.699   0.617  0.00  0.00    +0.004 C 
ATOM     18  C   UNL     1      -8.101   0.279   0.176  0.00  0.00    +0.000 C 
ATOM     19  C   UNL     1      -6.136   1.860   0.255  0.00  0.00    +0.000 C 
ATOM     20  C   UNL     1      -7.569   1.605   0.712  0.00  0.00    +0.000 C 
ENDBRANCH  17  14
ENDBRANCH  23  17
ENDBRANCH  11  21
ENDBRANCH   8  11
BRANCH   7  12
ATOM     12  C   UNL     1       2.938   0.166  -0.070  0.00  0.00    +0.100 C 
BRANCH  12  22
ATOM      2  O   UNL     1       4.325   0.324  -1.986  0.00  0.00    -0.276 OA
ATOM      3  O   UNL     1       7.639  -0.768   1.518  0.00  0.00    -0.377 OA
ATOM      5  N   UNL     1       5.316  -0.494  -0.052  0.00  0.00    -0.297 N 
ATOM     22  C   UNL     1       4.250   0.008  -0.796  0.00  0.00    +0.216 C 
ATOM     25  C   UNL     1       6.625  -0.674  -0.679  0.00  0.00    +0.136 C 
ATOM     26  C   UNL     1       5.231  -0.997   1.323  0.00  0.00    +0.136 C 
ATOM     27  C   UNL     1       7.726  -0.150   0.232  0.00  0.00    +0.179 C 
ATOM     28  C   UNL     1       6.393  -0.464   2.152  0.00  0.00    +0.179 C 
ENDBRANCH  12  22
ENDBRANCH   7  12
TORSDOF 6
