REMARK  Name = 75536899
REMARK  4 active torsions:
REMARK  status: ('A' for Active; 'I' for Inactive)
REMARK    1  A    between atoms: O_2  and  C_8
REMARK    2  A    between atoms: O_2  and  C_15
REMARK    3  A    between atoms: C_13  and  C_14
REMARK    4  A    between atoms: C_21  and  C_24
REMARK                            x       y       z     vdW  Elec       q    Type
REMARK                         _______ _______ _______ _____ _____    ______ ____
ROOT
ATOM      1  O   UNL     1      -2.144  -2.700  -1.016  0.00  0.00    -0.375 OA
ATOM      3  O   UNL     1       2.438  -3.078   0.457  0.00  0.00    -0.270 OA
ATOM      4  N   UNL     1       0.460  -1.821   0.490  0.00  0.00    -0.292 N 
ATOM      8  C   UNL     1      -1.659  -0.508  -0.060  0.00  0.00    +0.218 C 
ATOM      9  C   UNL     1      -0.194  -0.511   0.384  0.00  0.00    +0.155 C 
ATOM     10  C   UNL     1      -0.382  -3.006   0.656  0.00  0.00    +0.136 C 
ATOM     11  C   UNL     1      -1.907  -1.330  -1.323  0.00  0.00    +0.206 C 
ATOM     12  C   UNL     1      -0.979  -3.445  -0.675  0.00  0.00    +0.179 C 
ATOM     13  C   UNL     1       1.851  -1.997   0.405  0.00  0.00    +0.247 C 
ENDROOT
BRANCH  13  14
ATOM     14  C   UNL     1       2.697  -0.805   0.239  0.00  0.00    +0.037 A 
ATOM     16  C   UNL     1       3.186  -0.135   1.361  0.00  0.00    +0.014 A 
ATOM     17  C   UNL     1       3.012  -0.346  -1.040  0.00  0.00    +0.014 A 
ATOM     18  C   UNL     1       3.989   0.995   1.203  0.00  0.00    +0.019 A 
ATOM     19  C   UNL     1       3.815   0.783  -1.197  0.00  0.00    +0.019 A 
ATOM     21  C   UNL     1       4.304   1.454  -0.076  0.00  0.00    +0.052 A 
BRANCH  21  24
ATOM      7  N   UNL     1       5.795   3.551  -0.367  0.00  0.00    -0.191 NA
ATOM     24  C   UNL     1       5.127   2.611  -0.237  0.00  0.00    +0.099 C 
ENDBRANCH  21  24
ENDBRANCH  13  14
BRANCH   8   2
ATOM      2  O   UNL     1      -2.010   0.853  -0.314  0.00  0.00    -0.468 OA
BRANCH   2  15
ATOM      5  N   UNL     1      -4.138   0.256   0.407  0.00  0.00    -0.219 NA
ATOM      6  N   UNL     1      -4.995   2.889  -0.037  0.00  0.00    -0.256 NA
ATOM     15  C   UNL     1      -3.305   1.208  -0.059  0.00  0.00    +0.234 A 
ATOM     20  C   UNL     1      -3.727   2.502  -0.277  0.00  0.00    +0.177 A 
ATOM     22  C   UNL     1      -5.406   0.643   0.647  0.00  0.00    +0.134 A 
ATOM     23  C   UNL     1      -5.827   1.937   0.429  0.00  0.00    +0.130 A 
ENDBRANCH   2  15
ENDBRANCH   8   2
TORSDOF 4
