MODEL 1
REMARK VINA RESULT:      -8.2      0.000      0.000
REMARK  Name = 56773973
REMARK  6 active torsions:
REMARK  status: ('A' for Active; 'I' for Inactive)
REMARK    1  A    between atoms: O_2  and  C_31
REMARK    2  A    between atoms: N_4  and  C_13
REMARK    3  A    between atoms: C_9  and  C_14
REMARK    4  A    between atoms: C_13  and  C_19
REMARK    5  A    between atoms: C_21  and  C_22
REMARK    6  A    between atoms: C_29  and  C_31
REMARK                            x       y       z     vdW  Elec       q    Type
REMARK                         _______ _______ _______ _____ _____    ______ ____
ROOT
ATOM      4  N   UNL     1      13.281   8.354  19.117  0.00  0.00    -0.287 NA
ATOM      9  C   UNL     1      14.017   7.418  18.245  0.00  0.00    +0.146 C 
ATOM     10  C   UNL     1      14.131   8.151  16.895  0.00  0.00    +0.030 C 
ATOM     11  C   UNL     1      13.378   9.460  17.088  0.00  0.00    +0.017 C 
ATOM     12  C   UNL     1      12.438   9.164  18.238  0.00  0.00    +0.085 C 
ENDROOT
BRANCH   9  14
ATOM      1  O   UNL     1      15.963   5.939  18.263  0.00  0.00    -0.336 OA
ATOM      6  N   UNL     1      16.056   7.592  19.772  0.00  0.00    -0.190 NA
ATOM      7  N   UNL     1      17.177   5.778  18.943  0.00  0.00    -0.056 NA
ATOM     14  C   UNL     1      15.366   7.029  18.813  0.00  0.00    +0.245 A 
ATOM     21  C   UNL     1      17.159   6.790  19.817  0.00  0.00    +0.202 A 
BRANCH  21  22
ATOM      5  N   UNL     1      21.247   5.424  21.947  0.00  0.00    -0.315 N 
ATOM      8  N   UNL     1      20.311   7.494  22.548  0.00  0.00    -0.240 NA
ATOM     15  C   UNL     1      22.707   3.641  21.480  0.00  0.00    +0.020 C 
ATOM     16  C   UNL     1      23.008   4.169  22.871  0.00  0.00    +0.020 C 
ATOM     17  C   UNL     1      21.299   4.167  21.206  0.00  0.00    +0.106 C 
ATOM     18  C   UNL     1      22.382   5.563  22.856  0.00  0.00    +0.106 C 
ATOM     20  C   UNL     1      20.250   6.366  21.804  0.00  0.00    +0.122 A 
ATOM     22  C   UNL     1      18.227   7.028  20.744  0.00  0.00    +0.027 A 
ATOM     25  C   UNL     1      19.241   6.088  20.897  0.00  0.00    +0.055 A 
ATOM     26  C   UNL     1      18.255   8.200  21.491  0.00  0.00    +0.031 A 
ATOM     30  C   UNL     1      19.309   8.384  22.371  0.00  0.00    +0.113 A 
ENDBRANCH  21  22
ENDBRANCH   9  14
BRANCH   4  13
ATOM     13  C   UNL     1      12.507   7.682  20.154  0.00  0.00    +0.120 C 
BRANCH  13  19
ATOM     19  C   UNL     1      12.084   8.633  21.243  0.00  0.00    -0.033 A 
ATOM     23  C   UNL     1      10.823   8.509  21.825  0.00  0.00    +0.006 A 
ATOM     24  C   UNL     1      12.953   9.638  21.668  0.00  0.00    +0.006 A 
ATOM     27  C   UNL     1      10.431   9.389  22.833  0.00  0.00    +0.015 A 
ATOM     28  C   UNL     1      12.561  10.518  22.676  0.00  0.00    +0.015 A 
ATOM     29  C   UNL     1      11.300  10.394  23.259  0.00  0.00    +0.059 A 
BRANCH  29  31
ATOM      3  O   UNL     1      11.319  11.309  25.470  0.00  0.00    -0.245 OA
ATOM     31  C   UNL     1      10.891  11.312  24.311  0.00  0.00    +0.337 C 
BRANCH  31   2
ATOM      2  O   UNL     1       9.959  12.207  23.887  0.00  0.00    -0.477 OA
ATOM     32  H   UNL     1       9.083  12.047  24.299  0.00  0.00    +0.295 HD
ENDBRANCH  31   2
ENDBRANCH  29  31
ENDBRANCH  13  19
ENDBRANCH   4  13
TORSDOF 6
ENDMDL
MODEL 2
REMARK VINA RESULT:      -7.7      1.587      3.445
REMARK  Name = 56773973
REMARK  6 active torsions:
REMARK  status: ('A' for Active; 'I' for Inactive)
REMARK    1  A    between atoms: O_2  and  C_31
REMARK    2  A    between atoms: N_4  and  C_13
REMARK    3  A    between atoms: C_9  and  C_14
REMARK    4  A    between atoms: C_13  and  C_19
REMARK    5  A    between atoms: C_21  and  C_22
REMARK    6  A    between atoms: C_29  and  C_31
REMARK                            x       y       z     vdW  Elec       q    Type
REMARK                         _______ _______ _______ _____ _____    ______ ____
ROOT
ATOM      4  N   UNL     1      13.113   8.314  18.961  0.00  0.00    -0.287 NA
ATOM      9  C   UNL     1      13.991   7.386  18.222  0.00  0.00    +0.146 C 
ATOM     10  C   UNL     1      14.163   8.032  16.835  0.00  0.00    +0.030 C 
ATOM     11  C   UNL     1      13.298   9.284  16.869  0.00  0.00    +0.017 C 
ATOM     12  C   UNL     1      12.288   8.990  17.960  0.00  0.00    +0.085 C 
ENDROOT
BRANCH   9  14
ATOM      1  O   UNL     1      15.999   6.034  18.560  0.00  0.00    -0.336 OA
ATOM      6  N   UNL     1      15.903   7.867  19.844  0.00  0.00    -0.190 NA
ATOM      7  N   UNL     1      17.167   6.029  19.333  0.00  0.00    -0.056 NA
ATOM     14  C   UNL     1      15.312   7.148  18.923  0.00  0.00    +0.245 A 
ATOM     21  C   UNL     1      17.038   7.141  20.064  0.00  0.00    +0.202 A 
BRANCH  21  22
ATOM      5  N   UNL     1      19.155  10.565  22.693  0.00  0.00    -0.315 N 
ATOM      8  N   UNL     1      19.942   8.360  22.888  0.00  0.00    -0.240 NA
ATOM     15  C   UNL     1      18.551  12.804  23.080  0.00  0.00    +0.020 C 
ATOM     16  C   UNL     1      20.001  12.611  23.486  0.00  0.00    +0.020 C 
ATOM     17  C   UNL     1      18.285  11.612  22.164  0.00  0.00    +0.106 C 
ATOM     18  C   UNL     1      20.114  11.097  23.657  0.00  0.00    +0.106 C 
ATOM     20  C   UNL     1      19.079   9.238  22.328  0.00  0.00    +0.122 A 
ATOM     22  C   UNL     1      18.023   7.555  21.020  0.00  0.00    +0.027 A 
ATOM     25  C   UNL     1      18.111   8.890  21.400  0.00  0.00    +0.055 A 
ATOM     26  C   UNL     1      18.893   6.622  21.574  0.00  0.00    +0.031 A 
ATOM     30  C   UNL     1      19.826   7.071  22.495  0.00  0.00    +0.113 A 
ENDBRANCH  21  22
ENDBRANCH   9  14
BRANCH   4  13
ATOM     13  C   UNL     1      12.308   7.652  19.980  0.00  0.00    +0.120 C 
BRANCH  13  19
ATOM     19  C   UNL     1      11.941   8.589  21.100  0.00  0.00    -0.033 A 
ATOM     23  C   UNL     1      12.834   9.583  21.499  0.00  0.00    +0.006 A 
ATOM     24  C   UNL     1      10.707   8.462  21.740  0.00  0.00    +0.006 A 
ATOM     27  C   UNL     1      12.494  10.450  22.537  0.00  0.00    +0.015 A 
ATOM     28  C   UNL     1      10.368   9.330  22.778  0.00  0.00    +0.015 A 
ATOM     29  C   UNL     1      11.261  10.324  23.176  0.00  0.00    +0.059 A 
BRANCH  29  31
ATOM      3  O   UNL     1      11.361  11.187  25.405  0.00  0.00    -0.245 OA
ATOM     31  C   UNL     1      10.906  11.230  24.258  0.00  0.00    +0.337 C 
BRANCH  31   2
ATOM      2  O   UNL     1       9.992  12.162  23.877  0.00  0.00    -0.477 OA
ATOM     32  H   UNL     1       9.072  11.852  24.019  0.00  0.00    +0.295 HD
ENDBRANCH  31   2
ENDBRANCH  29  31
ENDBRANCH  13  19
ENDBRANCH   4  13
TORSDOF 6
ENDMDL
MODEL 3
REMARK VINA RESULT:      -7.7      2.382      5.201
REMARK  Name = 56773973
REMARK  6 active torsions:
REMARK  status: ('A' for Active; 'I' for Inactive)
REMARK    1  A    between atoms: O_2  and  C_31
REMARK    2  A    between atoms: N_4  and  C_13
REMARK    3  A    between atoms: C_9  and  C_14
REMARK    4  A    between atoms: C_13  and  C_19
REMARK    5  A    between atoms: C_21  and  C_22
REMARK    6  A    between atoms: C_29  and  C_31
REMARK                            x       y       z     vdW  Elec       q    Type
REMARK                         _______ _______ _______ _____ _____    ______ ____
ROOT
ATOM      4  N   UNL     1      13.551  11.846  22.075  0.00  0.00    -0.287 NA
ATOM      9  C   UNL     1      14.805  11.313  22.645  0.00  0.00    +0.146 C 
ATOM     10  C   UNL     1      14.605  11.395  24.170  0.00  0.00    +0.030 C 
ATOM     11  C   UNL     1      13.240  12.040  24.359  0.00  0.00    +0.017 C 
ATOM     12  C   UNL     1      13.015  12.785  23.059  0.00  0.00    +0.085 C 
ENDROOT
BRANCH   9  14
ATOM      1  O   UNL     1      14.198   8.951  22.481  0.00  0.00    -0.336 OA
ATOM      6  N   UNL     1      16.142   9.468  21.495  0.00  0.00    -0.190 NA
ATOM      7  N   UNL     1      14.694   7.755  21.947  0.00  0.00    -0.056 NA
ATOM     14  C   UNL     1      15.111   9.908  22.170  0.00  0.00    +0.245 A 
ATOM     21  C   UNL     1      15.842   8.141  21.381  0.00  0.00    +0.202 A 
BRANCH  21  22
ATOM      5  N   UNL     1      19.996   5.741  21.057  0.00  0.00    -0.315 N 
ATOM      8  N   UNL     1      18.399   5.446  19.359  0.00  0.00    -0.240 NA
ATOM     15  C   UNL     1      21.738   5.460  22.611  0.00  0.00    +0.020 C 
ATOM     16  C   UNL     1      22.244   5.074  21.232  0.00  0.00    +0.020 C 
ATOM     17  C   UNL     1      20.505   6.307  22.303  0.00  0.00    +0.106 C 
ATOM     18  C   UNL     1      20.957   4.825  20.447  0.00  0.00    +0.106 C 
ATOM     20  C   UNL     1      18.759   6.033  20.522  0.00  0.00    +0.122 A 
ATOM     22  C   UNL     1      16.710   7.229  20.695  0.00  0.00    +0.027 A 
ATOM     25  C   UNL     1      17.960   6.922  21.223  0.00  0.00    +0.055 A 
ATOM     26  C   UNL     1      16.304   6.644  19.500  0.00  0.00    +0.031 A 
ATOM     30  C   UNL     1      17.177   5.768  18.877  0.00  0.00    +0.113 A 
ENDBRANCH  21  22
ENDBRANCH   9  14
BRANCH   4  13
ATOM     13  C   UNL     1      13.733  12.464  20.768  0.00  0.00    +0.120 C 
BRANCH  13  19
ATOM     19  C   UNL     1      13.701  11.448  19.657  0.00  0.00    -0.033 A 
ATOM     23  C   UNL     1      14.655  11.494  18.642  0.00  0.00    +0.006 A 
ATOM     24  C   UNL     1      12.715  10.461  19.643  0.00  0.00    +0.006 A 
ATOM     27  C   UNL     1      14.625  10.553  17.612  0.00  0.00    +0.015 A 
ATOM     28  C   UNL     1      12.685   9.520  18.614  0.00  0.00    +0.015 A 
ATOM     29  C   UNL     1      13.640   9.565  17.599  0.00  0.00    +0.059 A 
BRANCH  29  31
ATOM      3  O   UNL     1      13.342   8.823  15.344  0.00  0.00    -0.245 OA
ATOM     31  C   UNL     1      13.609   8.583  16.526  0.00  0.00    +0.337 C 
BRANCH  31   2
ATOM      2  O   UNL     1      13.912   7.330  16.960  0.00  0.00    -0.477 OA
ATOM     32  H   UNL     1      14.784   7.028  16.627  0.00  0.00    +0.295 HD
ENDBRANCH  31   2
ENDBRANCH  29  31
ENDBRANCH  13  19
ENDBRANCH   4  13
TORSDOF 6
ENDMDL
MODEL 4
REMARK VINA RESULT:      -7.4     31.884     33.694
REMARK  Name = 56773973
REMARK  6 active torsions:
REMARK  status: ('A' for Active; 'I' for Inactive)
REMARK    1  A    between atoms: O_2  and  C_31
REMARK    2  A    between atoms: N_4  and  C_13
REMARK    3  A    between atoms: C_9  and  C_14
REMARK    4  A    between atoms: C_13  and  C_19
REMARK    5  A    between atoms: C_21  and  C_22
REMARK    6  A    between atoms: C_29  and  C_31
REMARK                            x       y       z     vdW  Elec       q    Type
REMARK                         _______ _______ _______ _____ _____    ______ ____
ROOT
ATOM      4  N   UNL     1     -14.149   5.580  32.329  0.00  0.00    -0.287 NA
ATOM      9  C   UNL     1     -15.592   5.877  32.230  0.00  0.00    +0.146 C 
ATOM     10  C   UNL     1     -15.661   7.399  32.001  0.00  0.00    +0.030 C 
ATOM     11  C   UNL     1     -14.216   7.875  32.048  0.00  0.00    +0.017 C 
ATOM     12  C   UNL     1     -13.510   6.792  32.839  0.00  0.00    +0.085 C 
ENDROOT
BRANCH   9  14
ATOM      1  O   UNL     1     -17.616   4.906  31.264  0.00  0.00    -0.336 OA
ATOM      6  N   UNL     1     -15.763   4.549  30.056  0.00  0.00    -0.190 NA
ATOM      7  N   UNL     1     -18.016   4.160  30.148  0.00  0.00    -0.056 NA
ATOM     14  C   UNL     1     -16.276   5.090  31.132  0.00  0.00    +0.245 A 
ATOM     21  C   UNL     1     -16.869   3.990  29.484  0.00  0.00    +0.202 A 
BRANCH  21  22
ATOM      5  N   UNL     1     -16.687   3.910  24.679  0.00  0.00    -0.315 N 
ATOM      8  N   UNL     1     -16.642   1.864  25.834  0.00  0.00    -0.240 NA
ATOM     15  C   UNL     1     -16.397   5.645  23.120  0.00  0.00    +0.020 C 
ATOM     16  C   UNL     1     -16.928   4.420  22.397  0.00  0.00    +0.020 C 
ATOM     17  C   UNL     1     -16.747   5.365  24.580  0.00  0.00    +0.106 C 
ATOM     18  C   UNL     1     -16.609   3.281  23.363  0.00  0.00    +0.106 C 
ATOM     20  C   UNL     1     -16.701   3.214  25.870  0.00  0.00    +0.122 A 
ATOM     22  C   UNL     1     -16.793   3.269  28.246  0.00  0.00    +0.027 A 
ATOM     25  C   UNL     1     -16.777   3.957  27.037  0.00  0.00    +0.055 A 
ATOM     26  C   UNL     1     -16.734   1.880  28.250  0.00  0.00    +0.031 A 
ATOM     30  C   UNL     1     -16.660   1.230  27.028  0.00  0.00    +0.113 A 
ENDBRANCH  21  22
ENDBRANCH   9  14
BRANCH   4  13
ATOM     13  C   UNL     1     -13.860   4.416  33.158  0.00  0.00    +0.120 C 
BRANCH  13  19
ATOM     19  C   UNL     1     -14.026   3.129  32.395  0.00  0.00    -0.033 A 
ATOM     23  C   UNL     1     -13.376   2.953  31.175  0.00  0.00    +0.006 A 
ATOM     24  C   UNL     1     -14.831   2.112  32.909  0.00  0.00    +0.006 A 
ATOM     27  C   UNL     1     -13.530   1.761  30.467  0.00  0.00    +0.015 A 
ATOM     28  C   UNL     1     -14.984   0.919  32.203  0.00  0.00    +0.015 A 
ATOM     29  C   UNL     1     -14.333   0.743  30.982  0.00  0.00    +0.059 A 
BRANCH  29  31
ATOM      3  O   UNL     1     -13.893  -0.801  29.208  0.00  0.00    -0.245 OA
ATOM     31  C   UNL     1     -14.493  -0.501  30.245  0.00  0.00    +0.337 C 
BRANCH  31   2
ATOM      2  O   UNL     1     -15.399  -1.335  30.824  0.00  0.00    -0.477 OA
ATOM     32  H   UNL     1     -16.012  -1.724  30.164  0.00  0.00    +0.295 HD
ENDBRANCH  31   2
ENDBRANCH  29  31
ENDBRANCH  13  19
ENDBRANCH   4  13
TORSDOF 6
ENDMDL
MODEL 5
REMARK VINA RESULT:      -7.4      3.800      8.808
REMARK  Name = 56773973
REMARK  6 active torsions:
REMARK  status: ('A' for Active; 'I' for Inactive)
REMARK    1  A    between atoms: O_2  and  C_31
REMARK    2  A    between atoms: N_4  and  C_13
REMARK    3  A    between atoms: C_9  and  C_14
REMARK    4  A    between atoms: C_13  and  C_19
REMARK    5  A    between atoms: C_21  and  C_22
REMARK    6  A    between atoms: C_29  and  C_31
REMARK                            x       y       z     vdW  Elec       q    Type
REMARK                         _______ _______ _______ _____ _____    ______ ____
ROOT
ATOM      4  N   UNL     1      12.854   7.931  20.701  0.00  0.00    -0.287 NA
ATOM      9  C   UNL     1      11.590   8.694  20.656  0.00  0.00    +0.146 C 
ATOM     10  C   UNL     1      10.550   7.764  21.307  0.00  0.00    +0.030 C 
ATOM     11  C   UNL     1      11.306   6.483  21.629  0.00  0.00    +0.017 C 
ATOM     12  C   UNL     1      12.484   6.516  20.676  0.00  0.00    +0.085 C 
ENDROOT
BRANCH   9  14
ATOM      1  O   UNL     1      12.002  11.102  20.570  0.00  0.00    -0.336 OA
ATOM      6  N   UNL     1      11.527  10.327  22.617  0.00  0.00    -0.190 NA
ATOM      7  N   UNL     1      12.042  12.210  21.424  0.00  0.00    -0.056 NA
ATOM     14  C   UNL     1      11.693  10.035  21.352  0.00  0.00    +0.245 A 
ATOM     21  C   UNL     1      11.751  11.673  22.613  0.00  0.00    +0.202 A 
BRANCH  21  22
ATOM      5  N   UNL     1      13.728  13.338  26.668  0.00  0.00    -0.315 N 
ATOM      8  N   UNL     1      11.526  13.977  26.154  0.00  0.00    -0.240 NA
ATOM     15  C   UNL     1      15.942  13.247  27.452  0.00  0.00    +0.020 C 
ATOM     16  C   UNL     1      15.026  13.601  28.611  0.00  0.00    +0.020 C 
ATOM     17  C   UNL     1      14.987  12.639  26.428  0.00  0.00    +0.106 C 
ATOM     18  C   UNL     1      13.762  14.101  27.913  0.00  0.00    +0.106 C 
ATOM     20  C   UNL     1      12.640  13.286  25.822  0.00  0.00    +0.122 A 
ATOM     22  C   UNL     1      11.674  12.453  23.815  0.00  0.00    +0.027 A 
ATOM     25  C   UNL     1      12.764  12.517  24.677  0.00  0.00    +0.055 A 
ATOM     26  C   UNL     1      10.511  13.151  24.121  0.00  0.00    +0.031 A 
ATOM     30  C   UNL     1      10.488  13.891  25.291  0.00  0.00    +0.113 A 
ENDBRANCH  21  22
ENDBRANCH   9  14
BRANCH   4  13
ATOM     13  C   UNL     1      13.771   8.278  19.622  0.00  0.00    +0.120 C 
BRANCH  13  19
ATOM     19  C   UNL     1      15.143   7.699  19.846  0.00  0.00    -0.033 A 
ATOM     23  C   UNL     1      15.941   8.177  20.885  0.00  0.00    +0.006 A 
ATOM     24  C   UNL     1      15.618   6.685  19.014  0.00  0.00    +0.006 A 
ATOM     27  C   UNL     1      17.212   7.642  21.092  0.00  0.00    +0.015 A 
ATOM     28  C   UNL     1      16.888   6.149  19.221  0.00  0.00    +0.015 A 
ATOM     29  C   UNL     1      17.686   6.627  20.261  0.00  0.00    +0.059 A 
BRANCH  29  31
ATOM      3  O   UNL     1      19.841   6.487  21.290  0.00  0.00    -0.245 OA
ATOM     31  C   UNL     1      19.011   6.068  20.477  0.00  0.00    +0.337 C 
BRANCH  31   2
ATOM      2  O   UNL     1      19.263   5.001  19.672  0.00  0.00    -0.477 OA
ATOM     32  H   UNL     1      19.477   4.195  20.188  0.00  0.00    +0.295 HD
ENDBRANCH  31   2
ENDBRANCH  29  31
ENDBRANCH  13  19
ENDBRANCH   4  13
TORSDOF 6
ENDMDL
MODEL 6
REMARK VINA RESULT:      -7.4     27.188     29.848
REMARK  Name = 56773973
REMARK  6 active torsions:
REMARK  status: ('A' for Active; 'I' for Inactive)
REMARK    1  A    between atoms: O_2  and  C_31
REMARK    2  A    between atoms: N_4  and  C_13
REMARK    3  A    between atoms: C_9  and  C_14
REMARK    4  A    between atoms: C_13  and  C_19
REMARK    5  A    between atoms: C_21  and  C_22
REMARK    6  A    between atoms: C_29  and  C_31
REMARK                            x       y       z     vdW  Elec       q    Type
REMARK                         _______ _______ _______ _____ _____    ______ ____
ROOT
ATOM      4  N   UNL     1      -8.888 -12.240  17.865  0.00  0.00    -0.287 NA
ATOM      9  C   UNL     1      -7.637 -12.892  18.298  0.00  0.00    +0.146 C 
ATOM     10  C   UNL     1      -7.698 -14.302  17.682  0.00  0.00    +0.030 C 
ATOM     11  C   UNL     1      -9.043 -14.369  16.973  0.00  0.00    +0.017 C 
ATOM     12  C   UNL     1      -9.868 -13.309  17.674  0.00  0.00    +0.085 C 
ENDROOT
BRANCH   9  14
ATOM      1  O   UNL     1      -5.875 -11.273  18.798  0.00  0.00    -0.336 OA
ATOM      6  N   UNL     1      -5.753 -12.154  16.742  0.00  0.00    -0.190 NA
ATOM      7  N   UNL     1      -4.760 -10.686  18.189  0.00  0.00    -0.056 NA
ATOM     14  C   UNL     1      -6.402 -12.124  17.878  0.00  0.00    +0.245 A 
ATOM     21  C   UNL     1      -4.753 -11.255  16.980  0.00  0.00    +0.202 A 
BRANCH  21  22
ATOM      5  N   UNL     1      -3.531 -10.263  12.437  0.00  0.00    -0.315 N 
ATOM      8  N   UNL     1      -1.832 -10.352  14.057  0.00  0.00    -0.240 NA
ATOM     15  C   UNL     1      -4.855  -9.766  10.558  0.00  0.00    +0.020 C 
ATOM     16  C   UNL     1      -3.457 -10.131  10.090  0.00  0.00    +0.020 C 
ATOM     17  C   UNL     1      -4.912 -10.349  11.969  0.00  0.00    +0.106 C 
ATOM     18  C   UNL     1      -2.610  -9.945  11.348  0.00  0.00    +0.106 C 
ATOM     20  C   UNL     1      -3.143 -10.457  13.745  0.00  0.00    +0.122 A 
ATOM     22  C   UNL     1      -3.763 -10.951  15.988  0.00  0.00    +0.027 A 
ATOM     25  C   UNL     1      -4.138 -10.751  14.664  0.00  0.00    +0.055 A 
ATOM     26  C   UNL     1      -2.423 -10.851  16.348  0.00  0.00    +0.031 A 
ATOM     30  C   UNL     1      -1.505 -10.552  15.354  0.00  0.00    +0.113 A 
ENDBRANCH  21  22
ENDBRANCH   9  14
BRANCH   4  13
ATOM     13  C   UNL     1      -9.359 -11.224  18.799  0.00  0.00    +0.120 C 
BRANCH  13  19
ATOM     19  C   UNL     1      -9.813  -9.977  18.088  0.00  0.00    -0.033 A 
ATOM     23  C   UNL     1      -8.896  -9.207  17.374  0.00  0.00    +0.006 A 
ATOM     24  C   UNL     1     -11.153  -9.590  18.145  0.00  0.00    +0.006 A 
ATOM     27  C   UNL     1      -9.316  -8.051  16.717  0.00  0.00    +0.015 A 
ATOM     28  C   UNL     1     -11.574  -8.435  17.487  0.00  0.00    +0.015 A 
ATOM     29  C   UNL     1     -10.656  -7.666  16.772  0.00  0.00    +0.059 A 
BRANCH  29  31
ATOM      3  O   UNL     1     -12.269  -6.104  15.948  0.00  0.00    -0.245 OA
ATOM     31  C   UNL     1     -11.095  -6.461  16.085  0.00  0.00    +0.337 C 
BRANCH  31   2
ATOM      2  O   UNL     1     -10.055  -5.737  15.589  0.00  0.00    -0.477 OA
ATOM     32  H   UNL     1      -9.649  -6.169  14.808  0.00  0.00    +0.295 HD
ENDBRANCH  31   2
ENDBRANCH  29  31
ENDBRANCH  13  19
ENDBRANCH   4  13
TORSDOF 6
ENDMDL
MODEL 7
REMARK VINA RESULT:      -7.3      2.931      4.292
REMARK  Name = 56773973
REMARK  6 active torsions:
REMARK  status: ('A' for Active; 'I' for Inactive)
REMARK    1  A    between atoms: O_2  and  C_31
REMARK    2  A    between atoms: N_4  and  C_13
REMARK    3  A    between atoms: C_9  and  C_14
REMARK    4  A    between atoms: C_13  and  C_19
REMARK    5  A    between atoms: C_21  and  C_22
REMARK    6  A    between atoms: C_29  and  C_31
REMARK                            x       y       z     vdW  Elec       q    Type
REMARK                         _______ _______ _______ _____ _____    ______ ____
ROOT
ATOM      4  N   UNL     1      15.403   8.604  21.719  0.00  0.00    -0.287 NA
ATOM      9  C   UNL     1      16.425   8.700  20.658  0.00  0.00    +0.146 C 
ATOM     10  C   UNL     1      16.864  10.176  20.671  0.00  0.00    +0.030 C 
ATOM     11  C   UNL     1      15.992  10.841  21.728  0.00  0.00    +0.017 C 
ATOM     12  C   UNL     1      14.788   9.927  21.823  0.00  0.00    +0.085 C 
ENDROOT
BRANCH   9  14
ATOM      1  O   UNL     1      17.764   6.794  19.920  0.00  0.00    -0.336 OA
ATOM      6  N   UNL     1      18.443   7.695  21.855  0.00  0.00    -0.190 NA
ATOM      7  N   UNL     1      18.872   6.042  20.333  0.00  0.00    -0.056 NA
ATOM     14  C   UNL     1      17.580   7.745  20.873  0.00  0.00    +0.245 A 
ATOM     21  C   UNL     1      19.216   6.635  21.480  0.00  0.00    +0.202 A 
BRANCH  21  22
ATOM      5  N   UNL     1      22.879   3.619  22.261  0.00  0.00    -0.315 N 
ATOM      8  N   UNL     1      22.494   5.336  23.818  0.00  0.00    -0.240 NA
ATOM     15  C   UNL     1      23.844   1.978  20.882  0.00  0.00    +0.020 C 
ATOM     16  C   UNL     1      24.292   1.740  22.313  0.00  0.00    +0.020 C 
ATOM     17  C   UNL     1      22.605   2.855  21.047  0.00  0.00    +0.106 C 
ATOM     18  C   UNL     1      24.029   3.086  22.987  0.00  0.00    +0.106 C 
ATOM     20  C   UNL     1      22.143   4.710  22.672  0.00  0.00    +0.122 A 
ATOM     22  C   UNL     1      20.327   6.193  22.274  0.00  0.00    +0.027 A 
ATOM     25  C   UNL     1      21.080   5.095  21.872  0.00  0.00    +0.055 A 
ATOM     26  C   UNL     1      20.656   6.863  23.447  0.00  0.00    +0.031 A 
ATOM     30  C   UNL     1      21.739   6.399  24.176  0.00  0.00    +0.113 A 
ENDBRANCH  21  22
ENDBRANCH   9  14
BRANCH   4  13
ATOM     13  C   UNL     1      14.417   7.558  21.473  0.00  0.00    +0.120 C 
BRANCH  13  19
ATOM     19  C   UNL     1      13.601   7.836  20.239  0.00  0.00    -0.033 A 
ATOM     23  C   UNL     1      14.135   7.577  18.977  0.00  0.00    +0.006 A 
ATOM     24  C   UNL     1      12.311   8.353  20.357  0.00  0.00    +0.006 A 
ATOM     27  C   UNL     1      13.380   7.835  17.833  0.00  0.00    +0.015 A 
ATOM     28  C   UNL     1      11.555   8.610  19.214  0.00  0.00    +0.015 A 
ATOM     29  C   UNL     1      12.089   8.351  17.951  0.00  0.00    +0.059 A 
BRANCH  29  31
ATOM      3  O   UNL     1      11.752   8.991  15.671  0.00  0.00    -0.245 OA
ATOM     31  C   UNL     1      11.301   8.619  16.759  0.00  0.00    +0.337 C 
BRANCH  31   2
ATOM      2  O   UNL     1       9.970   8.416  16.958  0.00  0.00    -0.477 OA
ATOM     32  H   UNL     1       9.725   7.472  16.854  0.00  0.00    +0.295 HD
ENDBRANCH  31   2
ENDBRANCH  29  31
ENDBRANCH  13  19
ENDBRANCH   4  13
TORSDOF 6
ENDMDL
MODEL 8
REMARK VINA RESULT:      -7.3     27.845     30.113
REMARK  Name = 56773973
REMARK  6 active torsions:
REMARK  status: ('A' for Active; 'I' for Inactive)
REMARK    1  A    between atoms: O_2  and  C_31
REMARK    2  A    between atoms: N_4  and  C_13
REMARK    3  A    between atoms: C_9  and  C_14
REMARK    4  A    between atoms: C_13  and  C_19
REMARK    5  A    between atoms: C_21  and  C_22
REMARK    6  A    between atoms: C_29  and  C_31
REMARK                            x       y       z     vdW  Elec       q    Type
REMARK                         _______ _______ _______ _____ _____    ______ ____
ROOT
ATOM      4  N   UNL     1      -3.568 -11.898  13.998  0.00  0.00    -0.287 NA
ATOM      9  C   UNL     1      -2.634 -12.039  12.864  0.00  0.00    +0.146 C 
ATOM     10  C   UNL     1      -2.561 -13.555  12.604  0.00  0.00    +0.030 C 
ATOM     11  C   UNL     1      -3.438 -14.186  13.677  0.00  0.00    +0.017 C 
ATOM     12  C   UNL     1      -3.472 -13.137  14.770  0.00  0.00    +0.085 C 
ENDROOT
BRANCH   9  14
ATOM      1  O   UNL     1      -2.479 -10.051  11.450  0.00  0.00    -0.336 OA
ATOM      6  N   UNL     1      -3.959 -11.572  10.733  0.00  0.00    -0.190 NA
ATOM      7  N   UNL     1      -3.041  -9.525  10.281  0.00  0.00    -0.056 NA
ATOM     14  C   UNL     1      -3.074 -11.257  11.644  0.00  0.00    +0.245 A 
ATOM     21  C   UNL     1      -3.905 -10.479   9.917  0.00  0.00    +0.202 A 
BRANCH  21  22
ATOM      5  N   UNL     1      -7.420  -8.331   7.438  0.00  0.00    -0.315 N 
ATOM      8  N   UNL     1      -6.318 -10.160   6.458  0.00  0.00    -0.240 NA
ATOM     15  C   UNL     1      -8.583  -6.327   7.836  0.00  0.00    +0.020 C 
ATOM     16  C   UNL     1      -9.355  -7.148   6.818  0.00  0.00    +0.020 C 
ATOM     17  C   UNL     1      -7.675  -7.360   8.499  0.00  0.00    +0.106 C 
ATOM     18  C   UNL     1      -8.306  -8.127   6.295  0.00  0.00    +0.106 C 
ATOM     20  C   UNL     1      -6.460  -9.318   7.506  0.00  0.00    +0.122 A 
ATOM     22  C   UNL     1      -4.724 -10.372   8.745  0.00  0.00    +0.027 A 
ATOM     25  C   UNL     1      -5.696  -9.380   8.660  0.00  0.00    +0.055 A 
ATOM     26  C   UNL     1      -4.548 -11.257   7.687  0.00  0.00    +0.031 A 
ATOM     30  C   UNL     1      -5.363 -11.110   6.576  0.00  0.00    +0.113 A 
ENDBRANCH  21  22
ENDBRANCH   9  14
BRANCH   4  13
ATOM     13  C   UNL     1      -3.304 -10.721  14.816  0.00  0.00    +0.120 C 
BRANCH  13  19
ATOM     19  C   UNL     1      -4.074 -10.753  16.110  0.00  0.00    -0.033 A 
ATOM     23  C   UNL     1      -5.367 -10.235  16.165  0.00  0.00    +0.006 A 
ATOM     24  C   UNL     1      -3.492 -11.299  17.255  0.00  0.00    +0.006 A 
ATOM     27  C   UNL     1      -6.080 -10.264  17.364  0.00  0.00    +0.015 A 
ATOM     28  C   UNL     1      -4.205 -11.328  18.453  0.00  0.00    +0.015 A 
ATOM     29  C   UNL     1      -5.499 -10.811  18.507  0.00  0.00    +0.059 A 
BRANCH  29  31
ATOM      3  O   UNL     1      -5.835 -11.320  20.821  0.00  0.00    -0.245 OA
ATOM     31  C   UNL     1      -6.242 -10.842  19.757  0.00  0.00    +0.337 C 
BRANCH  31   2
ATOM      2  O   UNL     1      -7.475 -10.278  19.644  0.00  0.00    -0.477 OA
ATOM     32  H   UNL     1      -7.698  -9.726  20.423  0.00  0.00    +0.295 HD
ENDBRANCH  31   2
ENDBRANCH  29  31
ENDBRANCH  13  19
ENDBRANCH   4  13
TORSDOF 6
ENDMDL
MODEL 9
REMARK VINA RESULT:      -7.2     14.641     17.593
REMARK  Name = 56773973
REMARK  6 active torsions:
REMARK  status: ('A' for Active; 'I' for Inactive)
REMARK    1  A    between atoms: O_2  and  C_31
REMARK    2  A    between atoms: N_4  and  C_13
REMARK    3  A    between atoms: C_9  and  C_14
REMARK    4  A    between atoms: C_13  and  C_19
REMARK    5  A    between atoms: C_21  and  C_22
REMARK    6  A    between atoms: C_29  and  C_31
REMARK                            x       y       z     vdW  Elec       q    Type
REMARK                         _______ _______ _______ _____ _____    ______ ____
ROOT
ATOM      4  N   UNL     1      10.706   5.676   5.361  0.00  0.00    -0.287 NA
ATOM      9  C   UNL     1      10.937   6.893   6.165  0.00  0.00    +0.146 C 
ATOM     10  C   UNL     1      10.407   6.541   7.567  0.00  0.00    +0.030 C 
ATOM     11  C   UNL     1       9.845   5.132   7.439  0.00  0.00    +0.017 C 
ATOM     12  C   UNL     1       9.555   4.998   5.957  0.00  0.00    +0.085 C 
ENDROOT
BRANCH   9  14
ATOM      1  O   UNL     1      13.227   6.585   6.960  0.00  0.00    -0.336 OA
ATOM      6  N   UNL     1      12.974   8.299   5.540  0.00  0.00    -0.190 NA
ATOM      7  N   UNL     1      14.496   7.159   6.812  0.00  0.00    -0.056 NA
ATOM     14  C   UNL     1      12.390   7.316   6.178  0.00  0.00    +0.245 A 
ATOM     21  C   UNL     1      14.265   8.163   5.960  0.00  0.00    +0.202 A 
BRANCH  21  22
ATOM      5  N   UNL     1      18.883   9.499   5.845  0.00  0.00    -0.315 N 
ATOM      8  N   UNL     1      17.323  10.762   4.623  0.00  0.00    -0.240 NA
ATOM     15  C   UNL     1      20.820   8.415   6.620  0.00  0.00    +0.020 C 
ATOM     16  C   UNL     1      21.143   9.878   6.371  0.00  0.00    +0.020 C 
ATOM     17  C   UNL     1      19.296   8.409   6.724  0.00  0.00    +0.106 C 
ATOM     18  C   UNL     1      20.015  10.329   5.444  0.00  0.00    +0.106 C 
ATOM     20  C   UNL     1      17.583   9.716   5.441  0.00  0.00    +0.122 A 
ATOM     22  C   UNL     1      15.302   9.045   5.508  0.00  0.00    +0.027 A 
ATOM     25  C   UNL     1      16.618   8.837   5.906  0.00  0.00    +0.055 A 
ATOM     26  C   UNL     1      14.995  10.110   4.668  0.00  0.00    +0.031 A 
ATOM     30  C   UNL     1      16.032  10.932   4.258  0.00  0.00    +0.113 A 
ENDBRANCH  21  22
ENDBRANCH   9  14
BRANCH   4  13
ATOM     13  C   UNL     1      10.505   5.954   3.944  0.00  0.00    +0.120 C 
BRANCH  13  19
ATOM     19  C   UNL     1      11.612   5.382   3.099  0.00  0.00    -0.033 A 
ATOM     23  C   UNL     1      11.535   4.065   2.647  0.00  0.00    +0.006 A 
ATOM     24  C   UNL     1      12.716   6.169   2.768  0.00  0.00    +0.006 A 
ATOM     27  C   UNL     1      12.561   3.535   1.864  0.00  0.00    +0.015 A 
ATOM     28  C   UNL     1      13.741   5.639   1.985  0.00  0.00    +0.015 A 
ATOM     29  C   UNL     1      13.663   4.322   1.533  0.00  0.00    +0.059 A 
BRANCH  29  31
ATOM      3  O   UNL     1      14.782   3.805  -0.518  0.00  0.00    -0.245 OA
ATOM     31  C   UNL     1      14.733   3.770   0.715  0.00  0.00    +0.337 C 
BRANCH  31   2
ATOM      2  O   UNL     1      15.710   3.188   1.462  0.00  0.00    -0.477 OA
ATOM     32  H   UNL     1      16.576   3.634   1.342  0.00  0.00    +0.295 HD
ENDBRANCH  31   2
ENDBRANCH  29  31
ENDBRANCH  13  19
ENDBRANCH   4  13
TORSDOF 6
ENDMDL
MODEL 10
REMARK VINA RESULT:      -7.2     27.357     30.172
REMARK  Name = 56773973
REMARK  6 active torsions:
REMARK  status: ('A' for Active; 'I' for Inactive)
REMARK    1  A    between atoms: O_2  and  C_31
REMARK    2  A    between atoms: N_4  and  C_13
REMARK    3  A    between atoms: C_9  and  C_14
REMARK    4  A    between atoms: C_13  and  C_19
REMARK    5  A    between atoms: C_21  and  C_22
REMARK    6  A    between atoms: C_29  and  C_31
REMARK                            x       y       z     vdW  Elec       q    Type
REMARK                         _______ _______ _______ _____ _____    ______ ____
ROOT
ATOM      4  N   UNL     1      -2.940 -11.407  14.417  0.00  0.00    -0.287 NA
ATOM      9  C   UNL     1      -2.959 -10.819  13.063  0.00  0.00    +0.146 C 
ATOM     10  C   UNL     1      -2.434 -11.938  12.144  0.00  0.00    +0.030 C 
ATOM     11  C   UNL     1      -2.091 -13.091  13.077  0.00  0.00    +0.017 C 
ATOM     12  C   UNL     1      -1.880 -12.415  14.416  0.00  0.00    +0.085 C 
ENDROOT
BRANCH   9  14
ATOM      1  O   UNL     1      -4.395  -9.551  11.546  0.00  0.00    -0.336 OA
ATOM      6  N   UNL     1      -5.491 -10.540  13.231  0.00  0.00    -0.190 NA
ATOM      7  N   UNL     1      -5.746  -9.223  11.378  0.00  0.00    -0.056 NA
ATOM     14  C   UNL     1      -4.333 -10.328  12.659  0.00  0.00    +0.245 A 
ATOM     21  C   UNL     1      -6.328  -9.843  12.409  0.00  0.00    +0.202 A 
BRANCH  21  22
ATOM      5  N   UNL     1     -10.065  -9.119  15.347  0.00  0.00    -0.315 N 
ATOM      8  N   UNL     1     -10.497  -9.673  13.105  0.00  0.00    -0.240 NA
ATOM     15  C   UNL     1     -10.162  -8.262  17.535  0.00  0.00    +0.020 C 
ATOM     16  C   UNL     1     -11.471  -8.968  17.226  0.00  0.00    +0.020 C 
ATOM     17  C   UNL     1      -9.204  -8.836  16.492  0.00  0.00    +0.106 C 
ATOM     18  C   UNL     1     -11.480  -9.030  15.700  0.00  0.00    +0.106 C 
ATOM     20  C   UNL     1      -9.600  -9.430  14.087  0.00  0.00    +0.122 A 
ATOM     22  C   UNL     1      -7.742  -9.787  12.646  0.00  0.00    +0.027 A 
ATOM     25  C   UNL     1      -8.226  -9.473  13.911  0.00  0.00    +0.055 A 
ATOM     26  C   UNL     1      -8.633 -10.043  11.610  0.00  0.00    +0.031 A 
ATOM     30  C   UNL     1      -9.989  -9.974  11.889  0.00  0.00    +0.113 A 
ENDBRANCH  21  22
ENDBRANCH   9  14
BRANCH   4  13
ATOM     13  C   UNL     1      -2.755 -10.416  15.470  0.00  0.00    +0.120 C 
BRANCH  13  19
ATOM     19  C   UNL     1      -3.743 -10.600  16.592  0.00  0.00    -0.033 A 
ATOM     23  C   UNL     1      -4.979  -9.957  16.544  0.00  0.00    +0.006 A 
ATOM     24  C   UNL     1      -3.420 -11.411  17.680  0.00  0.00    +0.006 A 
ATOM     27  C   UNL     1      -5.894 -10.126  17.583  0.00  0.00    +0.015 A 
ATOM     28  C   UNL     1      -4.335 -11.580  18.719  0.00  0.00    +0.015 A 
ATOM     29  C   UNL     1      -5.572 -10.938  18.671  0.00  0.00    +0.059 A 
BRANCH  29  31
ATOM      3  O   UNL     1      -7.755 -11.041  19.646  0.00  0.00    -0.245 OA
ATOM     31  C   UNL     1      -6.527 -11.115  19.754  0.00  0.00    +0.337 C 
BRANCH  31   2
ATOM      2  O   UNL     1      -5.920 -11.380  20.943  0.00  0.00    -0.477 OA
ATOM     32  H   UNL     1      -5.103 -11.910  20.827  0.00  0.00    +0.295 HD
ENDBRANCH  31   2
ENDBRANCH  29  31
ENDBRANCH  13  19
ENDBRANCH   4  13
TORSDOF 6
ENDMDL
