REMARK  Name = 26745389
REMARK  6 active torsions:
REMARK  status: ('A' for Active; 'I' for Inactive)
REMARK    1  A    between atoms: N_3  and  C_13
REMARK    2  A    between atoms: N_6  and  C_18
REMARK    3  A    between atoms: C_8  and  C_14
REMARK    4  A    between atoms: C_13  and  C_15
REMARK    5  A    between atoms: C_18  and  C_21
REMARK    6  A    between atoms: C_30  and  C_31
REMARK                            x       y       z     vdW  Elec       q    Type
REMARK                         _______ _______ _______ _____ _____    ______ ____
ROOT
ATOM      3  N   UNL     1      -2.001  -0.282   0.853  0.00  0.00    -0.278 NA
ATOM      4  N   UNL     1      -5.141   1.653   1.404  0.00  0.00    -0.347 N 
ATOM      5  N   UNL     1      -5.610   1.079  -0.707  0.00  0.00    -0.240 NA
ATOM      8  C   UNL     1      -1.980  -0.088  -0.619  0.00  0.00    +0.150 C 
ATOM      9  C   UNL     1      -3.402  -0.053  -1.249  0.00  0.00    +0.085 C 
ATOM     10  C   UNL     1      -2.753   0.749   1.605  0.00  0.00    +0.140 C 
ATOM     11  C   UNL     1      -4.039   1.015   0.923  0.00  0.00    +0.053 A 
ATOM     12  C   UNL     1      -4.348   0.677  -0.372  0.00  0.00    +0.065 A 
ATOM     16  C   UNL     1      -6.062   1.666   0.385  0.00  0.00    +0.197 A 
ATOM     32  H   UNL     1      -5.263   2.045   2.328  0.00  0.00    +0.167 HD
ENDROOT
BRANCH   8  14
ATOM      2  O   UNL     1      -1.593   2.271  -0.583  0.00  0.00    -0.274 OA
ATOM      6  N   UNL     1      -0.122   0.907  -1.763  0.00  0.00    -0.310 N 
ATOM     14  C   UNL     1      -1.225   1.164  -0.967  0.00  0.00    +0.231 C 
ATOM     33  H   UNL     1       0.107  -0.051  -2.014  0.00  0.00    +0.149 HD
BRANCH   6  18
ATOM     18  C   UNL     1       0.758   1.943  -2.254  0.00  0.00    +0.139 C 
BRANCH  18  21
ATOM     21  C   UNL     1       1.891   2.214  -1.307  0.00  0.00    -0.030 A 
ATOM     26  C   UNL     1       2.055   3.488  -0.763  0.00  0.00    +0.006 A 
ATOM     27  C   UNL     1       2.778   1.192  -0.971  0.00  0.00    +0.006 A 
ATOM     28  C   UNL     1       3.107   3.740   0.117  0.00  0.00    +0.019 A 
ATOM     29  C   UNL     1       3.831   1.444  -0.090  0.00  0.00    +0.019 A 
ATOM     30  C   UNL     1       3.995   2.718   0.454  0.00  0.00    +0.052 A 
BRANCH  30  31
ATOM      7  N   UNL     1       5.949   3.185   2.088  0.00  0.00    -0.191 NA
ATOM     31  C   UNL     1       5.073   2.976   1.355  0.00  0.00    +0.099 C 
ENDBRANCH  30  31
ENDBRANCH  18  21
ENDBRANCH   6  18
ENDBRANCH   8  14
BRANCH   3  13
ATOM     13  C   UNL     1      -0.677  -0.500   1.427  0.00  0.00    +0.160 C 
BRANCH  13  15
ATOM      1  O   UNL     1       0.879  -1.784   0.074  0.00  0.00    -0.458 OA
ATOM     15  C   UNL     1      -0.097  -1.823   1.018  0.00  0.00    +0.120 A 
ATOM     17  C   UNL     1      -0.349  -3.119   1.405  0.00  0.00    +0.054 A 
ATOM     19  C   UNL     1       0.530  -3.940   0.650  0.00  0.00    +0.020 A 
ATOM     20  C   UNL     1       1.263  -3.072  -0.152  0.00  0.00    +0.135 A 
ATOM     22  C   UNL     1       0.787  -5.319   0.557  0.00  0.00    +0.011 A 
ATOM     23  C   UNL     1       2.246  -3.481  -1.052  0.00  0.00    +0.047 A 
ATOM     24  C   UNL     1       1.769  -5.761  -0.339  0.00  0.00    +0.001 A 
ATOM     25  C   UNL     1       2.485  -4.856  -1.128  0.00  0.00    +0.004 A 
ENDBRANCH  13  15
ENDBRANCH   3  13
TORSDOF 6
