REMARK  Name = 26744672
REMARK  9 active torsions:
REMARK  status: ('A' for Active; 'I' for Inactive)
REMARK    1  A    between atoms: O_2  and  C_11
REMARK    2  A    between atoms: O_3  and  C_12
REMARK    3  A    between atoms: N_6  and  C_14
REMARK    4  A    between atoms: N_7  and  C_15
REMARK    5  A    between atoms: N_8  and  C_24
REMARK    6  A    between atoms: C_10  and  C_15
REMARK    7  A    between atoms: C_13  and  C_18
REMARK    8  A    between atoms: C_18  and  C_23
REMARK    9  A    between atoms: C_24  and  C_25
REMARK                            x       y       z     vdW  Elec       q    Type
REMARK                         _______ _______ _______ _____ _____    ______ ____
ROOT
ATOM      1  O   UNL     1      -2.522   0.590  -0.623  0.00  0.00    -0.366 OA
ATOM     10  C   UNL     1      -3.067   1.916  -0.433  0.00  0.00    +0.167 C 
ATOM     11  C   UNL     1      -4.512   1.727   0.017  0.00  0.00    +0.176 C 
ATOM     12  C   UNL     1      -4.450   0.387   0.719  0.00  0.00    +0.175 C 
ATOM     13  C   UNL     1      -3.484  -0.379  -0.169  0.00  0.00    +0.158 C 
ENDROOT
BRANCH  11   2
ATOM      2  O   UNL     1      -5.330   1.638  -1.149  0.00  0.00    -0.387 OA
ATOM     32  H   UNL     1      -5.310   2.507  -1.585  0.00  0.00    +0.210 HD
ENDBRANCH  11   2
BRANCH  12   3
ATOM      3  O   UNL     1      -5.705  -0.254   0.813  0.00  0.00    -0.387 OA
ATOM     33  H   UNL     1      -6.302   0.344   1.293  0.00  0.00    +0.210 HD
ENDBRANCH  12   3
BRANCH  10  15
ATOM     15  C   UNL     1      -2.209   2.628   0.603  0.00  0.00    +0.140 C 
BRANCH  15   7
ATOM      4  O   UNL     1      -0.039   0.782   0.989  0.00  0.00    -0.253 OA
ATOM      6  N   UNL     1       1.356   2.223  -0.180  0.00  0.00    -0.297 N 
ATOM      7  N   UNL     1      -0.860   2.781   0.142  0.00  0.00    -0.297 N 
ATOM     22  C   UNL     1       0.140   1.832   0.372  0.00  0.00    +0.300 C 
ATOM     30  H   UNL     1       1.410   3.144  -0.604  0.00  0.00    +0.151 HD
ATOM     31  H   UNL     1      -0.624   3.614  -0.388  0.00  0.00    +0.150 HD
BRANCH   6  14
ATOM     14  C   UNL     1       2.560   1.427  -0.089  0.00  0.00    +0.074 C 
ATOM     16  C   UNL     1       3.440   1.616  -1.329  0.00  0.00    +0.022 C 
ATOM     17  C   UNL     1       3.334   1.743   1.195  0.00  0.00    +0.022 C 
ATOM     19  C   UNL     1       4.108   2.990  -1.369  0.00  0.00    +0.002 C 
ATOM     20  C   UNL     1       4.003   3.117   1.151  0.00  0.00    +0.002 C 
ATOM     21  C   UNL     1       4.882   3.277  -0.085  0.00  0.00    +0.000 C 
ENDBRANCH   6  14
ENDBRANCH  15   7
ENDBRANCH  10  15
BRANCH  13  18
ATOM     18  C   UNL     1      -2.770  -1.509   0.551  0.00  0.00    +0.130 C 
BRANCH  18  23
ATOM      5  O   UNL     1      -1.532  -1.884  -1.493  0.00  0.00    -0.276 OA
ATOM      8  N   UNL     1      -1.077  -3.204   0.365  0.00  0.00    -0.311 N 
ATOM     23  C   UNL     1      -1.738  -2.197  -0.324  0.00  0.00    +0.216 C 
ATOM     34  H   UNL     1      -1.314  -3.375   1.338  0.00  0.00    +0.149 HD
BRANCH   8  24
ATOM     24  C   UNL     1      -0.045  -4.021  -0.230  0.00  0.00    +0.141 C 
BRANCH  24  25
ATOM      9  N   UNL     1       3.345  -2.556  -1.044  0.00  0.00    -0.263 NA
ATOM     25  C   UNL     1       1.320  -3.424  -0.048  0.00  0.00    -0.012 A 
ATOM     26  C   UNL     1       1.833  -3.184   1.222  0.00  0.00    +0.008 A 
ATOM     27  C   UNL     1       2.108  -3.095  -1.139  0.00  0.00    +0.115 A 
ATOM     28  C   UNL     1       3.102  -2.631   1.360  0.00  0.00    +0.020 A 
ATOM     29  C   UNL     1       3.810  -2.338   0.206  0.00  0.00    +0.111 A 
ENDBRANCH  24  25
ENDBRANCH   8  24
ENDBRANCH  18  23
ENDBRANCH  13  18
TORSDOF 9
