MODEL 1
REMARK VINA RESULT:      -7.0      0.000      0.000
REMARK  Name = 40780407
REMARK  9 active torsions:
REMARK  status: ('A' for Active; 'I' for Inactive)
REMARK    1  A    between atoms: O_2  and  C_25
REMARK    2  A    between atoms: O_2  and  C_29
REMARK    3  A    between atoms: N_3  and  C_8
REMARK    4  A    between atoms: N_3  and  C_14
REMARK    5  A    between atoms: N_4  and  C_17
REMARK    6  A    between atoms: C_6  and  C_9
REMARK    7  A    between atoms: C_12  and  C_15
REMARK    8  A    between atoms: C_13  and  C_16
REMARK    9  A    between atoms: C_14  and  C_18
REMARK                            x       y       z     vdW  Elec       q    Type
REMARK                         _______ _______ _______ _____ _____    ______ ____
ROOT
ATOM      6  C   UNL     1      -2.948 -11.176  12.716  0.00  0.00    +0.047 C 
ATOM      7  C   UNL     1      -3.969 -11.017  13.858  0.00  0.00    +0.035 C 
ATOM      8  C   UNL     1      -3.956 -12.346  14.632  0.00  0.00    +0.078 C 
ATOM     10  C   UNL     1      -2.862 -12.667  12.571  0.00  0.00    -0.021 C 
ATOM     11  C   UNL     1      -3.404 -13.299  13.618  0.00  0.00    -0.012 C 
ENDROOT
BRANCH   6   9
ATOM      4  N   UNL     1      -4.410  -9.680   9.708  0.00  0.00    -0.236 N 
ATOM      5  N   UNL     1      -3.227  -9.046   9.651  0.00  0.00    -0.171 NA
ATOM      9  C   UNL     1      -3.342 -10.441  11.455  0.00  0.00    +0.003 A 
ATOM     12  C   UNL     1      -4.529 -10.527  10.770  0.00  0.00    +0.046 A 
ATOM     13  C   UNL     1      -2.579  -9.514  10.720  0.00  0.00    +0.064 A 
ATOM     15  C   UNL     1      -5.742 -11.328  11.036  0.00  0.00    +0.066 C 
ATOM     16  C   UNL     1      -1.213  -9.040  11.005  0.00  0.00    +0.068 C 
BRANCH   4  17
ATOM     17  C   UNL     1      -5.374  -9.437   8.729  0.00  0.00    +0.066 A 
ATOM     19  C   UNL     1      -5.262 -10.039   7.476  0.00  0.00    +0.031 A 
ATOM     20  C   UNL     1      -6.450  -8.592   9.002  0.00  0.00    +0.031 A 
ATOM     23  C   UNL     1      -6.225  -9.796   6.496  0.00  0.00    +0.048 A 
ATOM     24  C   UNL     1      -7.412  -8.349   8.023  0.00  0.00    +0.048 A 
ATOM     25  C   UNL     1      -7.300  -8.951   6.770  0.00  0.00    +0.120 A 
BRANCH  25   2
ATOM      2  O   UNL     1      -8.240  -8.714   5.814  0.00  0.00    -0.495 OA
ATOM     29  C   UNL     1      -8.751  -7.385   5.721  0.00  0.00    +0.277 C 
ENDBRANCH  25   2
ENDBRANCH   4  17
ENDBRANCH   6   9
BRANCH   8   3
ATOM      3  N   UNL     1      -3.111 -12.281  15.818  0.00  0.00    -0.306 NA
ATOM     30  H   UNL     1      -2.138 -12.430  15.548  0.00  0.00    +0.123 HD
BRANCH   3  14
ATOM     14  C   UNL     1      -3.225 -10.983  16.471  0.00  0.00    +0.117 C 
BRANCH  14  18
ATOM      1 CL   UNL     1      -8.021  -9.272  17.579  0.00  0.00    -0.084 Cl
ATOM     18  C   UNL     1      -4.388 -10.936  17.427  0.00  0.00    -0.032 A 
ATOM     21  C   UNL     1      -5.533 -10.212  17.098  0.00  0.00    +0.025 A 
ATOM     22  C   UNL     1      -4.318 -11.620  18.641  0.00  0.00    +0.005 A 
ATOM     26  C   UNL     1      -6.610 -10.169  17.984  0.00  0.00    +0.041 A 
ATOM     27  C   UNL     1      -5.395 -11.578  19.527  0.00  0.00    +0.002 A 
ATOM     28  C   UNL     1      -6.541 -10.852  19.198  0.00  0.00    +0.020 A 
ENDBRANCH  14  18
ENDBRANCH   3  14
ENDBRANCH   8   3
TORSDOF 6
ENDMDL
MODEL 2
REMARK VINA RESULT:      -6.8     27.310     30.217
REMARK  Name = 40780407
REMARK  9 active torsions:
REMARK  status: ('A' for Active; 'I' for Inactive)
REMARK    1  A    between atoms: O_2  and  C_25
REMARK    2  A    between atoms: O_2  and  C_29
REMARK    3  A    between atoms: N_3  and  C_8
REMARK    4  A    between atoms: N_3  and  C_14
REMARK    5  A    between atoms: N_4  and  C_17
REMARK    6  A    between atoms: C_6  and  C_9
REMARK    7  A    between atoms: C_12  and  C_15
REMARK    8  A    between atoms: C_13  and  C_16
REMARK    9  A    between atoms: C_14  and  C_18
REMARK                            x       y       z     vdW  Elec       q    Type
REMARK                         _______ _______ _______ _____ _____    ______ ____
ROOT
ATOM      6  C   UNL     1      15.422   8.014  19.917  0.00  0.00    +0.047 C 
ATOM      7  C   UNL     1      15.088   9.273  19.095  0.00  0.00    +0.035 C 
ATOM      8  C   UNL     1      14.255   8.792  17.894  0.00  0.00    +0.078 C 
ATOM     10  C   UNL     1      15.272   6.921  18.899  0.00  0.00    -0.021 C 
ATOM     11  C   UNL     1      14.631   7.346  17.805  0.00  0.00    -0.012 C 
ENDROOT
BRANCH   6   9
ATOM      4  N   UNL     1      18.823   7.674  21.237  0.00  0.00    -0.236 N 
ATOM      5  N   UNL     1      18.507   8.811  21.881  0.00  0.00    -0.171 NA
ATOM      9  C   UNL     1      16.778   8.076  20.582  0.00  0.00    +0.003 A 
ATOM     12  C   UNL     1      17.821   7.194  20.446  0.00  0.00    +0.046 A 
ATOM     13  C   UNL     1      17.258   9.052  21.477  0.00  0.00    +0.064 A 
ATOM     15  C   UNL     1      17.943   5.960  19.643  0.00  0.00    +0.066 C 
ATOM     16  C   UNL     1      16.551  10.243  21.979  0.00  0.00    +0.068 C 
BRANCH   4  17
ATOM     17  C   UNL     1      20.083   7.103  21.417  0.00  0.00    +0.066 A 
ATOM     19  C   UNL     1      20.314   6.251  22.496  0.00  0.00    +0.031 A 
ATOM     20  C   UNL     1      21.112   7.385  20.519  0.00  0.00    +0.031 A 
ATOM     23  C   UNL     1      21.574   5.680  22.678  0.00  0.00    +0.048 A 
ATOM     24  C   UNL     1      22.372   6.815  20.700  0.00  0.00    +0.048 A 
ATOM     25  C   UNL     1      22.602   5.962  21.779  0.00  0.00    +0.120 A 
BRANCH  25   2
ATOM      2  O   UNL     1      23.832   5.405  21.956  0.00  0.00    -0.495 OA
ATOM     29  C   UNL     1      24.943   6.084  21.372  0.00  0.00    +0.277 C 
ENDBRANCH  25   2
ENDBRANCH   4  17
ENDBRANCH   6   9
BRANCH   8   3
ATOM      3  N   UNL     1      12.825   8.959  18.119  0.00  0.00    -0.306 NA
ATOM     30  H   UNL     1      12.415   8.057  18.365  0.00  0.00    +0.123 HD
BRANCH   3  14
ATOM     14  C   UNL     1      12.571   9.904  19.198  0.00  0.00    +0.117 C 
BRANCH  14  18
ATOM      1 CL   UNL     1      10.966   5.546  21.561  0.00  0.00    -0.084 Cl
ATOM     18  C   UNL     1      11.875   9.251  20.363  0.00  0.00    -0.032 A 
ATOM     21  C   UNL     1      11.757   7.863  20.418  0.00  0.00    +0.025 A 
ATOM     22  C   UNL     1      11.349  10.038  21.390  0.00  0.00    +0.005 A 
ATOM     26  C   UNL     1      11.113   7.259  21.497  0.00  0.00    +0.041 A 
ATOM     27  C   UNL     1      10.705   9.433  22.469  0.00  0.00    +0.002 A 
ATOM     28  C   UNL     1      10.587   8.044  22.523  0.00  0.00    +0.020 A 
ENDBRANCH  14  18
ENDBRANCH   3  14
ENDBRANCH   8   3
TORSDOF 6
ENDMDL
MODEL 3
REMARK VINA RESULT:      -6.7     27.678     30.264
REMARK  Name = 40780407
REMARK  9 active torsions:
REMARK  status: ('A' for Active; 'I' for Inactive)
REMARK    1  A    between atoms: O_2  and  C_25
REMARK    2  A    between atoms: O_2  and  C_29
REMARK    3  A    between atoms: N_3  and  C_8
REMARK    4  A    between atoms: N_3  and  C_14
REMARK    5  A    between atoms: N_4  and  C_17
REMARK    6  A    between atoms: C_6  and  C_9
REMARK    7  A    between atoms: C_12  and  C_15
REMARK    8  A    between atoms: C_13  and  C_16
REMARK    9  A    between atoms: C_14  and  C_18
REMARK                            x       y       z     vdW  Elec       q    Type
REMARK                         _______ _______ _______ _____ _____    ______ ____
ROOT
ATOM      6  C   UNL     1      19.221   7.169  21.319  0.00  0.00    +0.047 C 
ATOM      7  C   UNL     1      19.566   5.880  20.550  0.00  0.00    +0.035 C 
ATOM      8  C   UNL     1      21.098   5.868  20.400  0.00  0.00    +0.078 C 
ATOM     10  C   UNL     1      20.425   8.027  21.060  0.00  0.00    -0.021 C 
ATOM     11  C   UNL     1      21.445   7.314  20.568  0.00  0.00    -0.012 C 
ENDROOT
BRANCH   6   9
ATOM      4  N   UNL     1      15.949   8.159  20.002  0.00  0.00    -0.236 N 
ATOM      5  N   UNL     1      16.194   9.282  20.700  0.00  0.00    -0.171 NA
ATOM      9  C   UNL     1      17.905   7.783  20.896  0.00  0.00    +0.003 A 
ATOM     12  C   UNL     1      16.943   7.230  20.088  0.00  0.00    +0.046 A 
ATOM     13  C   UNL     1      17.390   9.046  21.244  0.00  0.00    +0.064 A 
ATOM     15  C   UNL     1      16.890   5.921  19.405  0.00  0.00    +0.066 C 
ATOM     16  C   UNL     1      18.011  10.071  22.102  0.00  0.00    +0.068 C 
BRANCH   4  17
ATOM     17  C   UNL     1      14.760   8.037  19.282  0.00  0.00    +0.066 A 
ATOM     19  C   UNL     1      14.567   8.787  18.122  0.00  0.00    +0.031 A 
ATOM     20  C   UNL     1      13.763   7.167  19.723  0.00  0.00    +0.031 A 
ATOM     23  C   UNL     1      13.378   8.666  17.402  0.00  0.00    +0.048 A 
ATOM     24  C   UNL     1      12.575   7.045  19.004  0.00  0.00    +0.048 A 
ATOM     25  C   UNL     1      12.382   7.795  17.844  0.00  0.00    +0.120 A 
BRANCH  25   2
ATOM      2  O   UNL     1      11.223   7.676  17.141  0.00  0.00    -0.495 OA
ATOM     29  C   UNL     1      10.823   8.797  16.353  0.00  0.00    +0.277 C 
ENDBRANCH  25   2
ENDBRANCH   4  17
ENDBRANCH   6   9
BRANCH   8   3
ATOM      3  N   UNL     1      21.740   5.044  21.417  0.00  0.00    -0.306 NA
ATOM     30  H   UNL     1      21.313   5.234  22.324  0.00  0.00    +0.123 HD
BRANCH   3  14
ATOM     14  C   UNL     1      21.592   3.627  21.112  0.00  0.00    +0.117 C 
BRANCH  14  18
ATOM      1 CL   UNL     1      24.141   1.942  25.333  0.00  0.00    -0.084 Cl
ATOM     18  C   UNL     1      22.710   2.807  21.701  0.00  0.00    -0.032 A 
ATOM     21  C   UNL     1      22.887   2.758  23.083  0.00  0.00    +0.025 A 
ATOM     22  C   UNL     1      23.567   2.094  20.861  0.00  0.00    +0.005 A 
ATOM     26  C   UNL     1      23.922   1.998  23.628  0.00  0.00    +0.041 A 
ATOM     27  C   UNL     1      24.602   1.334  21.406  0.00  0.00    +0.002 A 
ATOM     28  C   UNL     1      24.779   1.286  22.790  0.00  0.00    +0.020 A 
ENDBRANCH  14  18
ENDBRANCH   3  14
ENDBRANCH   8   3
TORSDOF 6
ENDMDL
MODEL 4
REMARK VINA RESULT:      -6.7     27.597     30.227
REMARK  Name = 40780407
REMARK  9 active torsions:
REMARK  status: ('A' for Active; 'I' for Inactive)
REMARK    1  A    between atoms: O_2  and  C_25
REMARK    2  A    between atoms: O_2  and  C_29
REMARK    3  A    between atoms: N_3  and  C_8
REMARK    4  A    between atoms: N_3  and  C_14
REMARK    5  A    between atoms: N_4  and  C_17
REMARK    6  A    between atoms: C_6  and  C_9
REMARK    7  A    between atoms: C_12  and  C_15
REMARK    8  A    between atoms: C_13  and  C_16
REMARK    9  A    between atoms: C_14  and  C_18
REMARK                            x       y       z     vdW  Elec       q    Type
REMARK                         _______ _______ _______ _____ _____    ______ ____
ROOT
ATOM      6  C   UNL     1      14.040   9.008  20.185  0.00  0.00    +0.047 C 
ATOM      7  C   UNL     1      14.072   7.479  20.365  0.00  0.00    +0.035 C 
ATOM      8  C   UNL     1      14.517   6.898  19.011  0.00  0.00    +0.078 C 
ATOM     10  C   UNL     1      13.908   9.151  18.697  0.00  0.00    -0.021 C 
ATOM     11  C   UNL     1      14.176   8.005  18.063  0.00  0.00    -0.012 C 
ENDROOT
BRANCH   6   9
ATOM      4  N   UNL     1      11.811  10.991  22.312  0.00  0.00    -0.236 N 
ATOM      5  N   UNL     1      10.878  10.150  21.833  0.00  0.00    -0.171 NA
ATOM      9  C   UNL     1      12.946   9.680  20.984  0.00  0.00    +0.003 A 
ATOM     12  C   UNL     1      13.065  10.752  21.834  0.00  0.00    +0.046 A 
ATOM     13  C   UNL     1      11.577   9.352  21.022  0.00  0.00    +0.064 A 
ATOM     15  C   UNL     1      14.246  11.550  22.221  0.00  0.00    +0.066 C 
ATOM     16  C   UNL     1      10.886   8.274  20.293  0.00  0.00    +0.068 C 
BRANCH   4  17
ATOM     17  C   UNL     1      11.444  11.990  23.214  0.00  0.00    +0.066 A 
ATOM     19  C   UNL     1      11.522  11.753  24.586  0.00  0.00    +0.031 A 
ATOM     20  C   UNL     1      10.997  13.225  22.744  0.00  0.00    +0.031 A 
ATOM     23  C   UNL     1      11.154  12.752  25.489  0.00  0.00    +0.048 A 
ATOM     24  C   UNL     1      10.630  14.223  23.646  0.00  0.00    +0.048 A 
ATOM     25  C   UNL     1      10.708  13.987  25.018  0.00  0.00    +0.120 A 
BRANCH  25   2
ATOM      2  O   UNL     1      10.350  14.961  25.898  0.00  0.00    -0.495 OA
ATOM     29  C   UNL     1      11.154  15.107  27.068  0.00  0.00    +0.277 C 
ENDBRANCH  25   2
ENDBRANCH   4  17
ENDBRANCH   6   9
BRANCH   8   3
ATOM      3  N   UNL     1      15.944   6.597  18.988  0.00  0.00    -0.306 NA
ATOM     30  H   UNL     1      16.460   7.433  18.711  0.00  0.00    +0.123 HD
BRANCH   3  14
ATOM     14  C   UNL     1      16.409   6.168  20.301  0.00  0.00    +0.117 C 
BRANCH  14  18
ATOM      1 CL   UNL     1      18.781  10.364  22.282  0.00  0.00    -0.084 Cl
ATOM     18  C   UNL     1      17.687   6.859  20.696  0.00  0.00    -0.032 A 
ATOM     21  C   UNL     1      17.647   8.141  21.243  0.00  0.00    +0.025 A 
ATOM     22  C   UNL     1      18.912   6.215  20.516  0.00  0.00    +0.005 A 
ATOM     26  C   UNL     1      18.832   8.781  21.610  0.00  0.00    +0.041 A 
ATOM     27  C   UNL     1      20.096   6.854  20.882  0.00  0.00    +0.002 A 
ATOM     28  C   UNL     1      20.056   8.137  21.430  0.00  0.00    +0.020 A 
ENDBRANCH  14  18
ENDBRANCH   3  14
ENDBRANCH   8   3
TORSDOF 6
ENDMDL
MODEL 5
REMARK VINA RESULT:      -6.7      4.242      9.292
REMARK  Name = 40780407
REMARK  9 active torsions:
REMARK  status: ('A' for Active; 'I' for Inactive)
REMARK    1  A    between atoms: O_2  and  C_25
REMARK    2  A    between atoms: O_2  and  C_29
REMARK    3  A    between atoms: N_3  and  C_8
REMARK    4  A    between atoms: N_3  and  C_14
REMARK    5  A    between atoms: N_4  and  C_17
REMARK    6  A    between atoms: C_6  and  C_9
REMARK    7  A    between atoms: C_12  and  C_15
REMARK    8  A    between atoms: C_13  and  C_16
REMARK    9  A    between atoms: C_14  and  C_18
REMARK                            x       y       z     vdW  Elec       q    Type
REMARK                         _______ _______ _______ _____ _____    ______ ____
ROOT
ATOM      6  C   UNL     1      -4.897 -11.246  16.144  0.00  0.00    +0.047 C 
ATOM      7  C   UNL     1      -3.569 -10.537  16.474  0.00  0.00    +0.035 C 
ATOM      8  C   UNL     1      -2.534 -11.080  15.474  0.00  0.00    +0.078 C 
ATOM     10  C   UNL     1      -4.429 -12.477  15.424  0.00  0.00    -0.021 C 
ATOM     11  C   UNL     1      -3.148 -12.379  15.055  0.00  0.00    -0.012 C 
ENDROOT
BRANCH   6   9
ATOM      4  N   UNL     1      -7.418 -11.782  18.747  0.00  0.00    -0.236 N 
ATOM      5  N   UNL     1      -6.339 -12.032  19.508  0.00  0.00    -0.171 NA
ATOM      9  C   UNL     1      -5.751 -11.512  17.363  0.00  0.00    +0.003 A 
ATOM     12  C   UNL     1      -7.120 -11.466  17.455  0.00  0.00    +0.046 A 
ATOM     13  C   UNL     1      -5.323 -11.867  18.657  0.00  0.00    +0.064 A 
ATOM     15  C   UNL     1      -8.146 -11.154  16.439  0.00  0.00    +0.066 C 
ATOM     16  C   UNL     1      -3.942 -12.060  19.131  0.00  0.00    +0.068 C 
BRANCH   4  17
ATOM     17  C   UNL     1      -8.693 -11.859  19.308  0.00  0.00    +0.066 A 
ATOM     19  C   UNL     1      -9.207 -13.094  19.704  0.00  0.00    +0.031 A 
ATOM     20  C   UNL     1      -9.455 -10.702  19.473  0.00  0.00    +0.031 A 
ATOM     23  C   UNL     1     -10.482 -13.172  20.265  0.00  0.00    +0.048 A 
ATOM     24  C   UNL     1     -10.729 -10.780  20.034  0.00  0.00    +0.048 A 
ATOM     25  C   UNL     1     -11.243 -12.015  20.429  0.00  0.00    +0.120 A 
BRANCH  25   2
ATOM      2  O   UNL     1     -12.487 -12.091  20.976  0.00  0.00    -0.495 OA
ATOM     29  C   UNL     1     -13.233 -10.878  21.065  0.00  0.00    +0.277 C 
ENDBRANCH  25   2
ENDBRANCH   4  17
ENDBRANCH   6   9
BRANCH   8   3
ATOM      3  N   UNL     1      -2.350 -10.186  14.337  0.00  0.00    -0.306 NA
ATOM     30  H   UNL     1      -1.452  -9.710  14.424  0.00  0.00    +0.123 HD
BRANCH   3  14
ATOM     14  C   UNL     1      -2.375 -10.924  13.081  0.00  0.00    +0.117 C 
BRANCH  14  18
ATOM      1 CL   UNL     1      -7.018  -9.127  11.544  0.00  0.00    -0.084 Cl
ATOM     18  C   UNL     1      -3.205 -10.227  12.036  0.00  0.00    -0.032 A 
ATOM     21  C   UNL     1      -4.567 -10.022  12.249  0.00  0.00    +0.025 A 
ATOM     22  C   UNL     1      -2.608  -9.784  10.855  0.00  0.00    +0.005 A 
ATOM     26  C   UNL     1      -5.336  -9.376  11.281  0.00  0.00    +0.041 A 
ATOM     27  C   UNL     1      -3.376  -9.137   9.887  0.00  0.00    +0.002 A 
ATOM     28  C   UNL     1      -4.740  -8.933  10.101  0.00  0.00    +0.020 A 
ENDBRANCH  14  18
ENDBRANCH   3  14
ENDBRANCH   8   3
TORSDOF 6
ENDMDL
MODEL 6
REMARK VINA RESULT:      -6.6     28.260     30.912
REMARK  Name = 40780407
REMARK  9 active torsions:
REMARK  status: ('A' for Active; 'I' for Inactive)
REMARK    1  A    between atoms: O_2  and  C_25
REMARK    2  A    between atoms: O_2  and  C_29
REMARK    3  A    between atoms: N_3  and  C_8
REMARK    4  A    between atoms: N_3  and  C_14
REMARK    5  A    between atoms: N_4  and  C_17
REMARK    6  A    between atoms: C_6  and  C_9
REMARK    7  A    between atoms: C_12  and  C_15
REMARK    8  A    between atoms: C_13  and  C_16
REMARK    9  A    between atoms: C_14  and  C_18
REMARK                            x       y       z     vdW  Elec       q    Type
REMARK                         _______ _______ _______ _____ _____    ______ ____
ROOT
ATOM      6  C   UNL     1      19.570   7.845  21.624  0.00  0.00    +0.047 C 
ATOM      7  C   UNL     1      20.724   8.647  20.994  0.00  0.00    +0.035 C 
ATOM      8  C   UNL     1      21.830   8.715  22.061  0.00  0.00    +0.078 C 
ATOM     10  C   UNL     1      19.836   8.004  23.092  0.00  0.00    -0.021 C 
ATOM     11  C   UNL     1      21.068   8.470  23.325  0.00  0.00    -0.012 C 
ENDROOT
BRANCH   6   9
ATOM      4  N   UNL     1      16.217   8.455  20.277  0.00  0.00    -0.236 N 
ATOM      5  N   UNL     1      16.364   9.636  20.900  0.00  0.00    -0.171 NA
ATOM      9  C   UNL     1      18.203   8.311  21.175  0.00  0.00    +0.003 A 
ATOM     12  C   UNL     1      17.291   7.625  20.412  0.00  0.00    +0.046 A 
ATOM     13  C   UNL     1      17.578   9.543  21.447  0.00  0.00    +0.064 A 
ATOM     15  C   UNL     1      17.353   6.276  19.815  0.00  0.00    +0.066 C 
ATOM     16  C   UNL     1      18.108  10.672  22.232  0.00  0.00    +0.068 C 
BRANCH   4  17
ATOM     17  C   UNL     1      15.042   8.182  19.578  0.00  0.00    +0.066 A 
ATOM     19  C   UNL     1      14.753   8.875  18.403  0.00  0.00    +0.031 A 
ATOM     20  C   UNL     1      14.154   7.217  20.054  0.00  0.00    +0.031 A 
ATOM     23  C   UNL     1      13.577   8.603  17.702  0.00  0.00    +0.048 A 
ATOM     24  C   UNL     1      12.979   6.945  19.355  0.00  0.00    +0.048 A 
ATOM     25  C   UNL     1      12.690   7.638  18.179  0.00  0.00    +0.120 A 
BRANCH  25   2
ATOM      2  O   UNL     1      11.543   7.373  17.496  0.00  0.00    -0.495 OA
ATOM     29  C   UNL     1      10.860   8.484  16.918  0.00  0.00    +0.277 C 
ENDBRANCH  25   2
ENDBRANCH   4  17
ENDBRANCH   6   9
BRANCH   8   3
ATOM      3  N   UNL     1      22.856   7.701  21.851  0.00  0.00    -0.306 NA
ATOM     30  H   UNL     1      22.806   7.011  22.602  0.00  0.00    +0.123 HD
BRANCH   3  14
ATOM     14  C   UNL     1      22.669   7.024  20.574  0.00  0.00    +0.117 C 
BRANCH  14  18
ATOM      1 CL   UNL     1      25.459   2.625  20.413  0.00  0.00    -0.084 Cl
ATOM     18  C   UNL     1      22.723   5.526  20.720  0.00  0.00    -0.032 A 
ATOM     21  C   UNL     1      23.925   4.848  20.524  0.00  0.00    +0.025 A 
ATOM     22  C   UNL     1      21.568   4.818  21.054  0.00  0.00    +0.005 A 
ATOM     26  C   UNL     1      23.975   3.461  20.659  0.00  0.00    +0.041 A 
ATOM     27  C   UNL     1      21.617   3.430  21.189  0.00  0.00    +0.002 A 
ATOM     28  C   UNL     1      22.821   2.752  20.992  0.00  0.00    +0.020 A 
ENDBRANCH  14  18
ENDBRANCH   3  14
ENDBRANCH   8   3
TORSDOF 6
ENDMDL
MODEL 7
REMARK VINA RESULT:      -6.6      2.214      3.742
REMARK  Name = 40780407
REMARK  9 active torsions:
REMARK  status: ('A' for Active; 'I' for Inactive)
REMARK    1  A    between atoms: O_2  and  C_25
REMARK    2  A    between atoms: O_2  and  C_29
REMARK    3  A    between atoms: N_3  and  C_8
REMARK    4  A    between atoms: N_3  and  C_14
REMARK    5  A    between atoms: N_4  and  C_17
REMARK    6  A    between atoms: C_6  and  C_9
REMARK    7  A    between atoms: C_12  and  C_15
REMARK    8  A    between atoms: C_13  and  C_16
REMARK    9  A    between atoms: C_14  and  C_18
REMARK                            x       y       z     vdW  Elec       q    Type
REMARK                         _______ _______ _______ _____ _____    ______ ____
ROOT
ATOM      6  C   UNL     1      -5.196 -11.178  16.062  0.00  0.00    +0.047 C 
ATOM      7  C   UNL     1      -5.073 -12.652  16.491  0.00  0.00    +0.035 C 
ATOM      8  C   UNL     1      -4.891 -12.640  18.018  0.00  0.00    +0.078 C 
ATOM     10  C   UNL     1      -4.539 -10.459  17.203  0.00  0.00    -0.021 C 
ATOM     11  C   UNL     1      -4.382 -11.254  18.266  0.00  0.00    -0.012 C 
ENDROOT
BRANCH   6   9
ATOM      4  N   UNL     1      -4.275 -10.518  12.577  0.00  0.00    -0.236 N 
ATOM      5  N   UNL     1      -3.033 -10.480  13.088  0.00  0.00    -0.171 NA
ATOM      9  C   UNL     1      -4.590 -10.898  14.705  0.00  0.00    +0.003 A 
ATOM     12  C   UNL     1      -5.244 -10.765  13.505  0.00  0.00    +0.046 A 
ATOM     13  C   UNL     1      -3.231 -10.712  14.387  0.00  0.00    +0.064 A 
ATOM     15  C   UNL     1      -6.681 -10.850  13.174  0.00  0.00    +0.066 C 
ATOM     16  C   UNL     1      -2.076 -10.748  15.302  0.00  0.00    +0.068 C 
BRANCH   4  17
ATOM     17  C   UNL     1      -4.469 -10.313  11.211  0.00  0.00    +0.066 A 
ATOM     19  C   UNL     1      -4.396 -11.390  10.328  0.00  0.00    +0.031 A 
ATOM     20  C   UNL     1      -4.735  -9.032  10.727  0.00  0.00    +0.031 A 
ATOM     23  C   UNL     1      -4.589 -11.187   8.961  0.00  0.00    +0.048 A 
ATOM     24  C   UNL     1      -4.928  -8.828   9.362  0.00  0.00    +0.048 A 
ATOM     25  C   UNL     1      -4.855  -9.905   8.479  0.00  0.00    +0.120 A 
BRANCH  25   2
ATOM      2  O   UNL     1      -5.044  -9.706   7.145  0.00  0.00    -0.495 OA
ATOM     29  C   UNL     1      -5.458 -10.832   6.373  0.00  0.00    +0.277 C 
ENDBRANCH  25   2
ENDBRANCH   4  17
ENDBRANCH   6   9
BRANCH   8   3
ATOM      3  N   UNL     1      -6.145 -12.881  18.721  0.00  0.00    -0.306 NA
ATOM     30  H   UNL     1      -6.042 -13.696  19.326  0.00  0.00    +0.123 HD
BRANCH   3  14
ATOM     14  C   UNL     1      -6.518 -11.732  19.535  0.00  0.00    +0.117 C 
BRANCH  14  18
ATOM      1 CL   UNL     1      -9.373  -8.399  16.724  0.00  0.00    -0.084 Cl
ATOM     18  C   UNL     1      -7.874 -11.194  19.160  0.00  0.00    -0.032 A 
ATOM     21  C   UNL     1      -7.983 -10.167  18.224  0.00  0.00    +0.025 A 
ATOM     22  C   UNL     1      -9.021 -11.728  19.750  0.00  0.00    +0.005 A 
ATOM     26  C   UNL     1      -9.240  -9.670  17.877  0.00  0.00    +0.041 A 
ATOM     27  C   UNL     1     -10.278 -11.231  19.402  0.00  0.00    +0.002 A 
ATOM     28  C   UNL     1     -10.386 -10.202  18.465  0.00  0.00    +0.020 A 
ENDBRANCH  14  18
ENDBRANCH   3  14
ENDBRANCH   8   3
TORSDOF 6
ENDMDL
MODEL 8
REMARK VINA RESULT:      -6.5      4.174      9.668
REMARK  Name = 40780407
REMARK  9 active torsions:
REMARK  status: ('A' for Active; 'I' for Inactive)
REMARK    1  A    between atoms: O_2  and  C_25
REMARK    2  A    between atoms: O_2  and  C_29
REMARK    3  A    between atoms: N_3  and  C_8
REMARK    4  A    between atoms: N_3  and  C_14
REMARK    5  A    between atoms: N_4  and  C_17
REMARK    6  A    between atoms: C_6  and  C_9
REMARK    7  A    between atoms: C_12  and  C_15
REMARK    8  A    between atoms: C_13  and  C_16
REMARK    9  A    between atoms: C_14  and  C_18
REMARK                            x       y       z     vdW  Elec       q    Type
REMARK                         _______ _______ _______ _____ _____    ______ ____
ROOT
ATOM      6  C   UNL     1      -4.275  -9.545  10.496  0.00  0.00    +0.047 C 
ATOM      7  C   UNL     1      -5.223 -10.469   9.709  0.00  0.00    +0.035 C 
ATOM      8  C   UNL     1      -6.054  -9.551   8.796  0.00  0.00    +0.078 C 
ATOM     10  C   UNL     1      -4.981  -8.223  10.418  0.00  0.00    -0.021 C 
ATOM     11  C   UNL     1      -5.942  -8.228   9.488  0.00  0.00    -0.012 C 
ENDROOT
BRANCH   6   9
ATOM      4  N   UNL     1      -4.182 -10.717  13.966  0.00  0.00    -0.236 N 
ATOM      5  N   UNL     1      -2.855 -10.718  13.755  0.00  0.00    -0.171 NA
ATOM      9  C   UNL     1      -3.997 -10.031  11.901  0.00  0.00    +0.003 A 
ATOM     12  C   UNL     1      -4.910 -10.313  12.887  0.00  0.00    +0.046 A 
ATOM     13  C   UNL     1      -2.748 -10.299  12.492  0.00  0.00    +0.064 A 
ATOM     15  C   UNL     1      -6.385 -10.235  12.888  0.00  0.00    +0.066 C 
ATOM     16  C   UNL     1      -1.413 -10.168  11.882  0.00  0.00    +0.068 C 
BRANCH   4  17
ATOM     17  C   UNL     1      -4.685 -11.106  15.208  0.00  0.00    +0.066 A 
ATOM     19  C   UNL     1      -5.260 -12.367  15.362  0.00  0.00    +0.031 A 
ATOM     20  C   UNL     1      -4.615 -10.234  16.295  0.00  0.00    +0.031 A 
ATOM     23  C   UNL     1      -5.764 -12.757  16.604  0.00  0.00    +0.048 A 
ATOM     24  C   UNL     1      -5.119 -10.623  17.535  0.00  0.00    +0.048 A 
ATOM     25  C   UNL     1      -5.694 -11.885  17.689  0.00  0.00    +0.120 A 
BRANCH  25   2
ATOM      2  O   UNL     1      -6.185 -12.265  18.900  0.00  0.00    -0.495 OA
ATOM     29  C   UNL     1      -6.132 -11.305  19.954  0.00  0.00    +0.277 C 
ENDBRANCH  25   2
ENDBRANCH   4  17
ENDBRANCH   6   9
BRANCH   8   3
ATOM      3  N   UNL     1      -5.516  -9.492   7.443  0.00  0.00    -0.306 NA
ATOM     30  H   UNL     1      -4.667 -10.056   7.392  0.00  0.00    +0.123 HD
BRANCH   3  14
ATOM     14  C   UNL     1      -6.479 -10.001   6.474  0.00  0.00    +0.117 C 
BRANCH  14  18
ATOM      1 CL   UNL     1      -2.472 -13.077   5.196  0.00  0.00    -0.084 Cl
ATOM     18  C   UNL     1      -5.838 -10.937   5.484  0.00  0.00    -0.032 A 
ATOM     21  C   UNL     1      -4.597 -11.508   5.766  0.00  0.00    +0.025 A 
ATOM     22  C   UNL     1      -6.487 -11.233   4.285  0.00  0.00    +0.005 A 
ATOM     26  C   UNL     1      -4.004 -12.375   4.848  0.00  0.00    +0.041 A 
ATOM     27  C   UNL     1      -5.894 -12.100   3.367  0.00  0.00    +0.002 A 
ATOM     28  C   UNL     1      -4.652 -12.671   3.650  0.00  0.00    +0.020 A 
ENDBRANCH  14  18
ENDBRANCH   3  14
ENDBRANCH   8   3
TORSDOF 6
ENDMDL
MODEL 9
REMARK VINA RESULT:      -6.5      1.637      2.606
REMARK  Name = 40780407
REMARK  9 active torsions:
REMARK  status: ('A' for Active; 'I' for Inactive)
REMARK    1  A    between atoms: O_2  and  C_25
REMARK    2  A    between atoms: O_2  and  C_29
REMARK    3  A    between atoms: N_3  and  C_8
REMARK    4  A    between atoms: N_3  and  C_14
REMARK    5  A    between atoms: N_4  and  C_17
REMARK    6  A    between atoms: C_6  and  C_9
REMARK    7  A    between atoms: C_12  and  C_15
REMARK    8  A    between atoms: C_13  and  C_16
REMARK    9  A    between atoms: C_14  and  C_18
REMARK                            x       y       z     vdW  Elec       q    Type
REMARK                         _______ _______ _______ _____ _____    ______ ____
ROOT
ATOM      6  C   UNL     1      -3.890 -10.097  11.495  0.00  0.00    +0.047 C 
ATOM      7  C   UNL     1      -4.209 -11.026  12.682  0.00  0.00    +0.035 C 
ATOM      8  C   UNL     1      -2.906 -11.151  13.490  0.00  0.00    +0.078 C 
ATOM     10  C   UNL     1      -2.398 -10.219  11.388  0.00  0.00    -0.021 C 
ATOM     11  C   UNL     1      -1.867 -10.785  12.477  0.00  0.00    -0.012 C 
ENDROOT
BRANCH   6   9
ATOM      4  N   UNL     1      -5.900 -10.410   8.448  0.00  0.00    -0.236 N 
ATOM      5  N   UNL     1      -5.453 -11.677   8.484  0.00  0.00    -0.171 NA
ATOM      9  C   UNL     1      -4.646 -10.455  10.236  0.00  0.00    +0.003 A 
ATOM     12  C   UNL     1      -5.445  -9.637   9.476  0.00  0.00    +0.046 A 
ATOM     13  C   UNL     1      -4.688 -11.698   9.577  0.00  0.00    +0.064 A 
ATOM     15  C   UNL     1      -5.803  -8.213   9.639  0.00  0.00    +0.066 C 
ATOM     16  C   UNL     1      -4.006 -12.947   9.960  0.00  0.00    +0.068 C 
BRANCH   4  17
ATOM     17  C   UNL     1      -6.749 -10.004   7.419  0.00  0.00    +0.066 A 
ATOM     19  C   UNL     1      -8.131 -10.031   7.604  0.00  0.00    +0.031 A 
ATOM     20  C   UNL     1      -6.217  -9.572   6.203  0.00  0.00    +0.031 A 
ATOM     23  C   UNL     1      -8.982  -9.625   6.574  0.00  0.00    +0.048 A 
ATOM     24  C   UNL     1      -7.066  -9.166   5.175  0.00  0.00    +0.048 A 
ATOM     25  C   UNL     1      -8.448  -9.193   5.360  0.00  0.00    +0.120 A 
BRANCH  25   2
ATOM      2  O   UNL     1      -9.277  -8.798   4.356  0.00  0.00    -0.495 OA
ATOM     29  C   UNL     1      -9.521  -7.397   4.228  0.00  0.00    +0.277 C 
ENDBRANCH  25   2
ENDBRANCH   4  17
ENDBRANCH   6   9
BRANCH   8   3
ATOM      3  N   UNL     1      -2.881 -10.243  14.631  0.00  0.00    -0.306 NA
ATOM     30  H   UNL     1      -3.655  -9.582  14.553  0.00  0.00    +0.123 HD
BRANCH   3  14
ATOM     14  C   UNL     1      -3.009 -10.975  15.885  0.00  0.00    +0.117 C 
BRANCH  14  18
ATOM      1 CL   UNL     1      -5.951 -11.332  20.171  0.00  0.00    -0.084 Cl
ATOM     18  C   UNL     1      -4.299 -10.655  16.592  0.00  0.00    -0.032 A 
ATOM     21  C   UNL     1      -4.503 -11.089  17.901  0.00  0.00    +0.025 A 
ATOM     22  C   UNL     1      -5.289  -9.921  15.937  0.00  0.00    +0.005 A 
ATOM     26  C   UNL     1      -5.698 -10.792  18.557  0.00  0.00    +0.041 A 
ATOM     27  C   UNL     1      -6.484  -9.624  16.592  0.00  0.00    +0.002 A 
ATOM     28  C   UNL     1      -6.688 -10.060  17.902  0.00  0.00    +0.020 A 
ENDBRANCH  14  18
ENDBRANCH   3  14
ENDBRANCH   8   3
TORSDOF 6
ENDMDL
MODEL 10
REMARK VINA RESULT:      -6.4      3.996      8.132
REMARK  Name = 40780407
REMARK  9 active torsions:
REMARK  status: ('A' for Active; 'I' for Inactive)
REMARK    1  A    between atoms: O_2  and  C_25
REMARK    2  A    between atoms: O_2  and  C_29
REMARK    3  A    between atoms: N_3  and  C_8
REMARK    4  A    between atoms: N_3  and  C_14
REMARK    5  A    between atoms: N_4  and  C_17
REMARK    6  A    between atoms: C_6  and  C_9
REMARK    7  A    between atoms: C_12  and  C_15
REMARK    8  A    between atoms: C_13  and  C_16
REMARK    9  A    between atoms: C_14  and  C_18
REMARK                            x       y       z     vdW  Elec       q    Type
REMARK                         _______ _______ _______ _____ _____    ______ ____
ROOT
ATOM      6  C   UNL     1      -4.335 -11.680  14.467  0.00  0.00    +0.047 C 
ATOM      7  C   UNL     1      -3.050 -10.834  14.392  0.00  0.00    +0.035 C 
ATOM      8  C   UNL     1      -1.936 -11.788  13.927  0.00  0.00    +0.078 C 
ATOM     10  C   UNL     1      -3.792 -13.073  14.599  0.00  0.00    -0.021 C 
ATOM     11  C   UNL     1      -2.490 -13.128  14.297  0.00  0.00    -0.012 C 
ENDROOT
BRANCH   6   9
ATOM      4  N   UNL     1      -6.996 -10.623  16.753  0.00  0.00    -0.236 N 
ATOM      5  N   UNL     1      -6.017 -10.717  17.669  0.00  0.00    -0.171 NA
ATOM      9  C   UNL     1      -5.265 -11.257  15.582  0.00  0.00    +0.003 A 
ATOM     12  C   UNL     1      -6.596 -10.936  15.487  0.00  0.00    +0.046 A 
ATOM     13  C   UNL     1      -4.963 -11.105  16.949  0.00  0.00    +0.064 A 
ATOM     15  C   UNL     1      -7.502 -10.903  14.321  0.00  0.00    +0.066 C 
ATOM     16  C   UNL     1      -3.668 -11.322  17.617  0.00  0.00    +0.068 C 
BRANCH   4  17
ATOM     17  C   UNL     1      -8.277 -10.232  17.146  0.00  0.00    +0.066 A 
ATOM     19  C   UNL     1      -8.669  -8.900  17.019  0.00  0.00    +0.031 A 
ATOM     20  C   UNL     1      -9.165 -11.174  17.666  0.00  0.00    +0.031 A 
ATOM     23  C   UNL     1      -9.949  -8.509  17.412  0.00  0.00    +0.048 A 
ATOM     24  C   UNL     1     -10.445 -10.783  18.058  0.00  0.00    +0.048 A 
ATOM     25  C   UNL     1     -10.837  -9.451  17.932  0.00  0.00    +0.120 A 
BRANCH  25   2
ATOM      2  O   UNL     1     -12.086  -9.069  18.315  0.00  0.00    -0.495 OA
ATOM     29  C   UNL     1     -13.070  -8.946  17.289  0.00  0.00    +0.277 C 
ENDBRANCH  25   2
ENDBRANCH   4  17
ENDBRANCH   6   9
BRANCH   8   3
ATOM      3  N   UNL     1      -1.695 -11.688  12.492  0.00  0.00    -0.306 NA
ATOM     30  H   UNL     1      -2.326 -12.321  11.999  0.00  0.00    +0.123 HD
BRANCH   3  14
ATOM     14  C   UNL     1      -1.922 -10.330  12.017  0.00  0.00    +0.117 C 
BRANCH  14  18
ATOM      1 CL   UNL     1      -5.193 -12.876   8.859  0.00  0.00    -0.084 Cl
ATOM     18  C   UNL     1      -2.890 -10.293  10.863  0.00  0.00    -0.032 A 
ATOM     21  C   UNL     1      -3.521 -11.464  10.445  0.00  0.00    +0.025 A 
ATOM     22  C   UNL     1      -3.156  -9.086  10.215  0.00  0.00    +0.005 A 
ATOM     26  C   UNL     1      -4.417 -11.430   9.376  0.00  0.00    +0.041 A 
ATOM     27  C   UNL     1      -4.052  -9.052   9.147  0.00  0.00    +0.002 A 
ATOM     28  C   UNL     1      -4.683 -10.225   8.728  0.00  0.00    +0.020 A 
ENDBRANCH  14  18
ENDBRANCH   3  14
ENDBRANCH   8   3
TORSDOF 6
ENDMDL
