MODEL 1
REMARK VINA RESULT:      -7.7      0.000      0.000
REMARK  Name = 51137446
REMARK  7 active torsions:
REMARK  status: ('A' for Active; 'I' for Inactive)
REMARK    1  A    between atoms: S_1  and  C_20
REMARK    2  A    between atoms: S_1  and  C_24
REMARK    3  A    between atoms: N_5  and  C_12
REMARK    4  A    between atoms: C_8  and  C_13
REMARK    5  A    between atoms: C_12  and  C_14
REMARK    6  A    between atoms: C_17  and  C_21
REMARK    7  A    between atoms: C_27  and  C_28
REMARK                            x       y       z     vdW  Elec       q    Type
REMARK                         _______ _______ _______ _____ _____    ______ ____
ROOT
ATOM      5  N   UNL     1      15.991   7.267  20.622  0.00  0.00    -0.297 NA
ATOM      8  C   UNL     1      13.722   6.955  21.122  0.00  0.00    +0.092 C 
ATOM      9  C   UNL     1      13.905   7.047  19.597  0.00  0.00    +0.029 C 
ATOM     10  C   UNL     1      15.033   7.500  21.704  0.00  0.00    +0.097 C 
ATOM     11  C   UNL     1      15.286   7.659  19.402  0.00  0.00    +0.085 C 
ENDROOT
BRANCH   8  13
ATOM      2  O   UNL     1      12.635   8.987  21.954  0.00  0.00    -0.420 OA
ATOM      6  N   UNL     1      11.295   7.195  21.889  0.00  0.00    -0.112 NA
ATOM      7  N   UNL     1      10.560   8.262  22.374  0.00  0.00    -0.107 NA
ATOM     13  C   UNL     1      12.499   7.665  21.657  0.00  0.00    +0.222 A 
ATOM     17  C   UNL     1      11.383   9.285  22.395  0.00  0.00    +0.248 A 
BRANCH  17  21
ATOM     21  C   UNL     1      11.168  10.643  22.802  0.00  0.00    +0.038 A 
ATOM     22  C   UNL     1      11.201  11.668  21.857  0.00  0.00    +0.013 A 
ATOM     23  C   UNL     1      10.925  10.938  24.144  0.00  0.00    +0.013 A 
ATOM     25  C   UNL     1      10.991  12.989  22.253  0.00  0.00    +0.004 A 
ATOM     26  C   UNL     1      10.715  12.260  24.539  0.00  0.00    +0.004 A 
ATOM     27  C   UNL     1      10.748  13.285  23.594  0.00  0.00    -0.050 A 
ATOM     28  C   UNL     1      10.523  14.697  24.018  0.00  0.00    +0.044 C 
ENDBRANCH  17  21
ENDBRANCH   8  13
BRANCH   5  12
ATOM     12  C   UNL     1      17.231   8.008  20.808  0.00  0.00    +0.119 C 
BRANCH  12  14
ATOM     14  C   UNL     1      18.421   7.092  20.916  0.00  0.00    -0.033 A 
ATOM     15  C   UNL     1      19.386   7.315  21.898  0.00  0.00    +0.007 A 
ATOM     16  C   UNL     1      18.559   6.021  20.033  0.00  0.00    +0.007 A 
ATOM     18  C   UNL     1      20.488   6.467  21.999  0.00  0.00    +0.027 A 
ATOM     19  C   UNL     1      19.662   5.173  20.133  0.00  0.00    +0.027 A 
ATOM     20  C   UNL     1      20.626   5.396  21.115  0.00  0.00    +0.088 A 
BRANCH  20   1
ATOM      1  S   UNL     1      22.006   4.332  21.243  0.00  0.00    -0.006 S 
ATOM      3  O   UNL     1      21.559   2.957  21.070  0.00  0.00    -0.170 OA
ATOM      4  O   UNL     1      23.060   4.861  20.390  0.00  0.00    -0.170 OA
ATOM     24  C   UNL     1      22.536   4.496  22.933  0.00  0.00    +0.200 C 
ENDBRANCH  20   1
ENDBRANCH  12  14
ENDBRANCH   5  12
TORSDOF 5
ENDMDL
MODEL 2
REMARK VINA RESULT:      -7.6     28.011     31.728
REMARK  Name = 51137446
REMARK  7 active torsions:
REMARK  status: ('A' for Active; 'I' for Inactive)
REMARK    1  A    between atoms: S_1  and  C_20
REMARK    2  A    between atoms: S_1  and  C_24
REMARK    3  A    between atoms: N_5  and  C_12
REMARK    4  A    between atoms: C_8  and  C_13
REMARK    5  A    between atoms: C_12  and  C_14
REMARK    6  A    between atoms: C_17  and  C_21
REMARK    7  A    between atoms: C_27  and  C_28
REMARK                            x       y       z     vdW  Elec       q    Type
REMARK                         _______ _______ _______ _____ _____    ______ ____
ROOT
ATOM      5  N   UNL     1     -16.863   3.301  26.193  0.00  0.00    -0.297 NA
ATOM      8  C   UNL     1     -16.477   4.903  24.524  0.00  0.00    +0.092 C 
ATOM      9  C   UNL     1     -17.990   4.655  24.659  0.00  0.00    +0.029 C 
ATOM     10  C   UNL     1     -15.823   3.719  25.252  0.00  0.00    +0.097 C 
ATOM     11  C   UNL     1     -18.107   3.342  25.423  0.00  0.00    +0.085 C 
ENDROOT
BRANCH   8  13
ATOM      2  O   UNL     1     -14.963   5.943  22.904  0.00  0.00    -0.420 OA
ATOM      6  N   UNL     1     -16.400   4.482  22.005  0.00  0.00    -0.112 NA
ATOM      7  N   UNL     1     -15.613   4.990  20.987  0.00  0.00    -0.107 NA
ATOM     13  C   UNL     1     -15.985   5.066  23.105  0.00  0.00    +0.222 A 
ATOM     17  C   UNL     1     -14.790   5.839  21.559  0.00  0.00    +0.248 A 
BRANCH  17  21
ATOM     21  C   UNL     1     -13.755   6.655  20.993  0.00  0.00    +0.038 A 
ATOM     22  C   UNL     1     -14.088   7.747  20.191  0.00  0.00    +0.013 A 
ATOM     23  C   UNL     1     -12.417   6.358  21.247  0.00  0.00    +0.013 A 
ATOM     25  C   UNL     1     -13.081   8.541  19.643  0.00  0.00    +0.004 A 
ATOM     26  C   UNL     1     -11.410   7.153  20.698  0.00  0.00    +0.004 A 
ATOM     27  C   UNL     1     -11.743   8.245  19.896  0.00  0.00    -0.050 A 
ATOM     28  C   UNL     1     -10.666   9.094  19.309  0.00  0.00    +0.044 C 
ENDBRANCH  17  21
ENDBRANCH   8  13
BRANCH   5  12
ATOM     12  C   UNL     1     -16.605   1.984  26.757  0.00  0.00    +0.119 C 
BRANCH  12  14
ATOM     14  C   UNL     1     -16.084   2.070  28.167  0.00  0.00    -0.033 A 
ATOM     15  C   UNL     1     -15.999   0.919  28.951  0.00  0.00    +0.007 A 
ATOM     16  C   UNL     1     -15.685   3.300  28.689  0.00  0.00    +0.007 A 
ATOM     18  C   UNL     1     -15.517   0.998  30.256  0.00  0.00    +0.027 A 
ATOM     19  C   UNL     1     -15.202   3.379  29.995  0.00  0.00    +0.027 A 
ATOM     20  C   UNL     1     -15.118   2.229  30.779  0.00  0.00    +0.088 A 
BRANCH  20   1
ATOM      1  S   UNL     1     -14.511   2.328  32.413  0.00  0.00    -0.006 S 
ATOM      3  O   UNL     1     -14.842   1.095  33.115  0.00  0.00    -0.170 OA
ATOM      4  O   UNL     1     -13.127   2.775  32.351  0.00  0.00    -0.170 OA
ATOM     24  C   UNL     1     -15.471   3.624  33.164  0.00  0.00    +0.200 C 
ENDBRANCH  20   1
ENDBRANCH  12  14
ENDBRANCH   5  12
TORSDOF 5
ENDMDL
MODEL 3
REMARK VINA RESULT:      -7.1     23.544     27.805
REMARK  Name = 51137446
REMARK  7 active torsions:
REMARK  status: ('A' for Active; 'I' for Inactive)
REMARK    1  A    between atoms: S_1  and  C_20
REMARK    2  A    between atoms: S_1  and  C_24
REMARK    3  A    between atoms: N_5  and  C_12
REMARK    4  A    between atoms: C_8  and  C_13
REMARK    5  A    between atoms: C_12  and  C_14
REMARK    6  A    between atoms: C_17  and  C_21
REMARK    7  A    between atoms: C_27  and  C_28
REMARK                            x       y       z     vdW  Elec       q    Type
REMARK                         _______ _______ _______ _____ _____    ______ ____
ROOT
ATOM      5  N   UNL     1     -11.343   8.780  17.835  0.00  0.00    -0.297 NA
ATOM      8  C   UNL     1     -11.281  10.438  16.178  0.00  0.00    +0.092 C 
ATOM      9  C   UNL     1     -10.757   9.112  15.599  0.00  0.00    +0.029 C 
ATOM     10  C   UNL     1     -11.254  10.234  17.700  0.00  0.00    +0.097 C 
ATOM     11  C   UNL     1     -10.439   8.250  16.814  0.00  0.00    +0.085 C 
ENDROOT
BRANCH   8  13
ATOM      2  O   UNL     1      -9.395  11.980  16.430  0.00  0.00    -0.420 OA
ATOM      6  N   UNL     1     -10.786  12.504  14.757  0.00  0.00    -0.112 NA
ATOM      7  N   UNL     1      -9.777  13.449  14.787  0.00  0.00    -0.107 NA
ATOM     13  C   UNL     1     -10.522  11.667  15.734  0.00  0.00    +0.222 A 
ATOM     17  C   UNL     1      -8.990  13.103  15.779  0.00  0.00    +0.248 A 
BRANCH  17  21
ATOM     21  C   UNL     1      -7.789  13.715  16.270  0.00  0.00    +0.038 A 
ATOM     22  C   UNL     1      -7.816  14.454  17.453  0.00  0.00    +0.013 A 
ATOM     23  C   UNL     1      -6.594  13.570  15.565  0.00  0.00    +0.013 A 
ATOM     25  C   UNL     1      -6.648  15.048  17.930  0.00  0.00    +0.004 A 
ATOM     26  C   UNL     1      -5.426  14.164  16.044  0.00  0.00    +0.004 A 
ATOM     27  C   UNL     1      -5.453  14.903  17.226  0.00  0.00    -0.050 A 
ATOM     28  C   UNL     1      -4.204  15.538  17.737  0.00  0.00    +0.044 C 
ENDBRANCH  17  21
ENDBRANCH   8  13
BRANCH   5  12
ATOM     12  C   UNL     1     -10.994   8.324  19.174  0.00  0.00    +0.119 C 
BRANCH  12  14
ATOM     14  C   UNL     1     -12.151   7.640  19.853  0.00  0.00    -0.033 A 
ATOM     15  C   UNL     1     -13.454   7.877  19.416  0.00  0.00    +0.007 A 
ATOM     16  C   UNL     1     -11.919   6.770  20.917  0.00  0.00    +0.007 A 
ATOM     18  C   UNL     1     -14.526   7.243  20.045  0.00  0.00    +0.027 A 
ATOM     19  C   UNL     1     -12.990   6.136  21.546  0.00  0.00    +0.027 A 
ATOM     20  C   UNL     1     -14.294   6.372  21.110  0.00  0.00    +0.088 A 
BRANCH  20   1
ATOM      1  S   UNL     1     -15.636   5.577  21.895  0.00  0.00    -0.006 S 
ATOM      3  O   UNL     1     -15.230   4.231  22.275  0.00  0.00    -0.170 OA
ATOM      4  O   UNL     1     -16.167   6.483  22.902  0.00  0.00    -0.170 OA
ATOM     24  C   UNL     1     -16.858   5.407  20.614  0.00  0.00    +0.200 C 
ENDBRANCH  20   1
ENDBRANCH  12  14
ENDBRANCH   5  12
TORSDOF 5
ENDMDL
MODEL 4
REMARK VINA RESULT:      -7.0     27.885     29.900
REMARK  Name = 51137446
REMARK  7 active torsions:
REMARK  status: ('A' for Active; 'I' for Inactive)
REMARK    1  A    between atoms: S_1  and  C_20
REMARK    2  A    between atoms: S_1  and  C_24
REMARK    3  A    between atoms: N_5  and  C_12
REMARK    4  A    between atoms: C_8  and  C_13
REMARK    5  A    between atoms: C_12  and  C_14
REMARK    6  A    between atoms: C_17  and  C_21
REMARK    7  A    between atoms: C_27  and  C_28
REMARK                            x       y       z     vdW  Elec       q    Type
REMARK                         _______ _______ _______ _____ _____    ______ ____
ROOT
ATOM      5  N   UNL     1      -5.190  -9.476   9.077  0.00  0.00    -0.297 NA
ATOM      8  C   UNL     1      -7.433  -8.989   8.599  0.00  0.00    +0.092 C 
ATOM      9  C   UNL     1      -6.821  -9.790   7.436  0.00  0.00    +0.029 C 
ATOM     10  C   UNL     1      -6.226  -8.497   9.409  0.00  0.00    +0.097 C 
ATOM     11  C   UNL     1      -5.315  -9.684   7.634  0.00  0.00    +0.085 C 
ENDROOT
BRANCH   8  13
ATOM      2  O   UNL     1      -9.137  -7.318   9.151  0.00  0.00    -0.420 OA
ATOM      6  N   UNL     1      -8.536  -7.333   6.995  0.00  0.00    -0.112 NA
ATOM      7  N   UNL     1      -9.496  -6.352   7.166  0.00  0.00    -0.107 NA
ATOM     13  C   UNL     1      -8.358  -7.870   8.180  0.00  0.00    +0.222 A 
ATOM     17  C   UNL     1      -9.817  -6.380   8.439  0.00  0.00    +0.248 A 
BRANCH  17  21
ATOM     21  C   UNL     1     -10.755  -5.587   9.179  0.00  0.00    +0.038 A 
ATOM     22  C   UNL     1     -10.695  -4.194   9.115  0.00  0.00    +0.013 A 
ATOM     23  C   UNL     1     -11.726  -6.208   9.963  0.00  0.00    +0.013 A 
ATOM     25  C   UNL     1     -11.608  -3.424   9.835  0.00  0.00    +0.004 A 
ATOM     26  C   UNL     1     -12.639  -5.436  10.683  0.00  0.00    +0.004 A 
ATOM     27  C   UNL     1     -12.580  -4.044  10.619  0.00  0.00    -0.050 A 
ATOM     28  C   UNL     1     -13.555  -3.220  11.389  0.00  0.00    +0.044 C 
ENDBRANCH  17  21
ENDBRANCH   8  13
BRANCH   5  12
ATOM     12  C   UNL     1      -3.858  -9.027   9.459  0.00  0.00    +0.119 C 
BRANCH  12  14
ATOM     14  C   UNL     1      -3.426  -9.611  10.778  0.00  0.00    -0.033 A 
ATOM     15  C   UNL     1      -2.069  -9.730  11.076  0.00  0.00    +0.007 A 
ATOM     16  C   UNL     1      -4.383 -10.033  11.701  0.00  0.00    +0.007 A 
ATOM     18  C   UNL     1      -1.668 -10.270  12.298  0.00  0.00    +0.027 A 
ATOM     19  C   UNL     1      -3.982 -10.573  12.922  0.00  0.00    +0.027 A 
ATOM     20  C   UNL     1      -2.625 -10.692  13.221  0.00  0.00    +0.088 A 
BRANCH  20   1
ATOM      1  S   UNL     1      -2.123 -11.365  14.752  0.00  0.00    -0.006 S 
ATOM      3  O   UNL     1      -3.293 -11.520  15.606  0.00  0.00    -0.170 OA
ATOM      4  O   UNL     1      -1.271 -12.514  14.479  0.00  0.00    -0.170 OA
ATOM     24  C   UNL     1      -1.112 -10.097  15.483  0.00  0.00    +0.200 C 
ENDBRANCH  20   1
ENDBRANCH  12  14
ENDBRANCH   5  12
TORSDOF 5
ENDMDL
MODEL 5
REMARK VINA RESULT:      -7.0     28.679     32.466
REMARK  Name = 51137446
REMARK  7 active torsions:
REMARK  status: ('A' for Active; 'I' for Inactive)
REMARK    1  A    between atoms: S_1  and  C_20
REMARK    2  A    between atoms: S_1  and  C_24
REMARK    3  A    between atoms: N_5  and  C_12
REMARK    4  A    between atoms: C_8  and  C_13
REMARK    5  A    between atoms: C_12  and  C_14
REMARK    6  A    between atoms: C_17  and  C_21
REMARK    7  A    between atoms: C_27  and  C_28
REMARK                            x       y       z     vdW  Elec       q    Type
REMARK                         _______ _______ _______ _____ _____    ______ ____
ROOT
ATOM      5  N   UNL     1     -17.392   2.158  26.744  0.00  0.00    -0.297 NA
ATOM      8  C   UNL     1     -17.695   3.685  24.990  0.00  0.00    +0.092 C 
ATOM      9  C   UNL     1     -18.887   2.714  25.039  0.00  0.00    +0.029 C 
ATOM     10  C   UNL     1     -16.613   3.014  25.848  0.00  0.00    +0.097 C 
ATOM     11  C   UNL     1     -18.409   1.545  25.890  0.00  0.00    +0.085 C 
ENDROOT
BRANCH   8  13
ATOM      2  O   UNL     1     -16.046   4.723  23.505  0.00  0.00    -0.420 OA
ATOM      6  N   UNL     1     -17.761   3.762  22.436  0.00  0.00    -0.112 NA
ATOM      7  N   UNL     1     -16.915   4.304  21.487  0.00  0.00    -0.107 NA
ATOM     13  C   UNL     1     -17.214   4.030  23.600  0.00  0.00    +0.222 A 
ATOM     17  C   UNL     1     -15.929   4.854  22.157  0.00  0.00    +0.248 A 
BRANCH  17  21
ATOM     21  C   UNL     1     -14.768   5.558  21.693  0.00  0.00    +0.038 A 
ATOM     22  C   UNL     1     -13.497   5.154  22.104  0.00  0.00    +0.013 A 
ATOM     23  C   UNL     1     -14.910   6.645  20.831  0.00  0.00    +0.013 A 
ATOM     25  C   UNL     1     -12.369   5.839  21.652  0.00  0.00    +0.004 A 
ATOM     26  C   UNL     1     -13.780   7.329  20.380  0.00  0.00    +0.004 A 
ATOM     27  C   UNL     1     -12.510   6.926  20.791  0.00  0.00    -0.050 A 
ATOM     28  C   UNL     1     -11.303   7.657  20.308  0.00  0.00    +0.044 C 
ENDBRANCH  17  21
ENDBRANCH   8  13
BRANCH   5  12
ATOM     12  C   UNL     1     -16.568   1.168  27.423  0.00  0.00    +0.119 C 
BRANCH  12  14
ATOM     14  C   UNL     1     -16.146   1.632  28.791  0.00  0.00    -0.033 A 
ATOM     15  C   UNL     1     -16.466   2.920  29.220  0.00  0.00    +0.007 A 
ATOM     16  C   UNL     1     -15.436   0.773  29.630  0.00  0.00    +0.007 A 
ATOM     18  C   UNL     1     -16.075   3.350  30.488  0.00  0.00    +0.027 A 
ATOM     19  C   UNL     1     -15.046   1.203  30.898  0.00  0.00    +0.027 A 
ATOM     20  C   UNL     1     -15.365   2.491  31.327  0.00  0.00    +0.088 A 
BRANCH  20   1
ATOM      1  S   UNL     1     -14.878   3.030  32.916  0.00  0.00    -0.006 S 
ATOM      3  O   UNL     1     -13.642   3.791  32.798  0.00  0.00    -0.170 OA
ATOM      4  O   UNL     1     -16.038   3.629  33.560  0.00  0.00    -0.170 OA
ATOM     24  C   UNL     1     -14.482   1.531  33.788  0.00  0.00    +0.200 C 
ENDBRANCH  20   1
ENDBRANCH  12  14
ENDBRANCH   5  12
TORSDOF 5
ENDMDL
MODEL 6
REMARK VINA RESULT:      -7.0     27.147     31.004
REMARK  Name = 51137446
REMARK  7 active torsions:
REMARK  status: ('A' for Active; 'I' for Inactive)
REMARK    1  A    between atoms: S_1  and  C_20
REMARK    2  A    between atoms: S_1  and  C_24
REMARK    3  A    between atoms: N_5  and  C_12
REMARK    4  A    between atoms: C_8  and  C_13
REMARK    5  A    between atoms: C_12  and  C_14
REMARK    6  A    between atoms: C_17  and  C_21
REMARK    7  A    between atoms: C_27  and  C_28
REMARK                            x       y       z     vdW  Elec       q    Type
REMARK                         _______ _______ _______ _____ _____    ______ ____
ROOT
ATOM      5  N   UNL     1     -14.999   5.555  22.518  0.00  0.00    -0.297 NA
ATOM      8  C   UNL     1     -15.935   3.626  23.467  0.00  0.00    +0.092 C 
ATOM      9  C   UNL     1     -16.926   4.237  22.460  0.00  0.00    +0.029 C 
ATOM     10  C   UNL     1     -14.913   4.740  23.731  0.00  0.00    +0.097 C 
ATOM     11  C   UNL     1     -16.431   5.659  22.234  0.00  0.00    +0.085 C 
ENDROOT
BRANCH   8  13
ATOM      2  O   UNL     1     -15.753   2.959  25.817  0.00  0.00    -0.420 OA
ATOM      6  N   UNL     1     -17.806   2.725  24.957  0.00  0.00    -0.112 NA
ATOM      7  N   UNL     1     -17.845   2.315  26.277  0.00  0.00    -0.107 NA
ATOM     13  C   UNL     1     -16.565   3.092  24.732  0.00  0.00    +0.222 A 
ATOM     17  C   UNL     1     -16.626   2.469  26.738  0.00  0.00    +0.248 A 
BRANCH  17  21
ATOM     21  C   UNL     1     -16.082   2.206  28.039  0.00  0.00    +0.038 A 
ATOM     22  C   UNL     1     -16.256   0.953  28.628  0.00  0.00    +0.013 A 
ATOM     23  C   UNL     1     -15.380   3.203  28.716  0.00  0.00    +0.013 A 
ATOM     25  C   UNL     1     -15.727   0.698  29.893  0.00  0.00    +0.004 A 
ATOM     26  C   UNL     1     -14.851   2.947  29.982  0.00  0.00    +0.004 A 
ATOM     27  C   UNL     1     -15.025   1.694  30.570  0.00  0.00    -0.050 A 
ATOM     28  C   UNL     1     -14.459   1.422  31.922  0.00  0.00    +0.044 C 
ENDBRANCH  17  21
ENDBRANCH   8  13
BRANCH   5  12
ATOM     12  C   UNL     1     -14.370   6.859  22.678  0.00  0.00    +0.119 C 
BRANCH  12  14
ATOM     14  C   UNL     1     -13.590   7.259  21.454  0.00  0.00    -0.033 A 
ATOM     15  C   UNL     1     -14.121   8.191  20.563  0.00  0.00    +0.007 A 
ATOM     16  C   UNL     1     -12.336   6.698  21.212  0.00  0.00    +0.007 A 
ATOM     18  C   UNL     1     -13.399   8.563  19.429  0.00  0.00    +0.027 A 
ATOM     19  C   UNL     1     -11.614   7.069  20.078  0.00  0.00    +0.027 A 
ATOM     20  C   UNL     1     -12.144   8.001  19.187  0.00  0.00    +0.088 A 
BRANCH  20   1
ATOM      1  S   UNL     1     -11.239   8.468  17.769  0.00  0.00    -0.006 S 
ATOM      3  O   UNL     1     -10.457   7.328  17.311  0.00  0.00    -0.170 OA
ATOM      4  O   UNL     1     -12.153   9.133  16.852  0.00  0.00    -0.170 OA
ATOM     24  C   UNL     1     -10.083   9.683  18.363  0.00  0.00    +0.200 C 
ENDBRANCH  20   1
ENDBRANCH  12  14
ENDBRANCH   5  12
TORSDOF 5
ENDMDL
MODEL 7
REMARK VINA RESULT:      -6.9     28.266     30.860
REMARK  Name = 51137446
REMARK  7 active torsions:
REMARK  status: ('A' for Active; 'I' for Inactive)
REMARK    1  A    between atoms: S_1  and  C_20
REMARK    2  A    between atoms: S_1  and  C_24
REMARK    3  A    between atoms: N_5  and  C_12
REMARK    4  A    between atoms: C_8  and  C_13
REMARK    5  A    between atoms: C_12  and  C_14
REMARK    6  A    between atoms: C_17  and  C_21
REMARK    7  A    between atoms: C_27  and  C_28
REMARK                            x       y       z     vdW  Elec       q    Type
REMARK                         _______ _______ _______ _____ _____    ______ ____
ROOT
ATOM      5  N   UNL     1      -4.307 -10.587   9.377  0.00  0.00    -0.297 NA
ATOM      8  C   UNL     1      -3.126 -11.269  11.284  0.00  0.00    +0.092 C 
ATOM      9  C   UNL     1      -4.350 -12.179  11.084  0.00  0.00    +0.029 C 
ATOM     10  C   UNL     1      -3.398 -10.050  10.391  0.00  0.00    +0.097 C 
ATOM     11  C   UNL     1      -5.253 -11.420  10.120  0.00  0.00    +0.085 C 
ENDROOT
BRANCH   8  13
ATOM      2  O   UNL     1      -3.869 -11.020  13.604  0.00  0.00    -0.420 OA
ATOM      6  N   UNL     1      -1.730 -10.456  13.265  0.00  0.00    -0.112 NA
ATOM      7  N   UNL     1      -2.014 -10.269  14.605  0.00  0.00    -0.107 NA
ATOM     13  C   UNL     1      -2.841 -10.895  12.720  0.00  0.00    +0.222 A 
ATOM     17  C   UNL     1      -3.273 -10.610  14.756  0.00  0.00    +0.248 A 
BRANCH  17  21
ATOM     21  C   UNL     1      -4.100 -10.618  15.929  0.00  0.00    +0.038 A 
ATOM     22  C   UNL     1      -3.649 -11.236  17.096  0.00  0.00    +0.013 A 
ATOM     23  C   UNL     1      -5.354 -10.009  15.901  0.00  0.00    +0.013 A 
ATOM     25  C   UNL     1      -4.454 -11.243  18.235  0.00  0.00    +0.004 A 
ATOM     26  C   UNL     1      -6.158 -10.016  17.041  0.00  0.00    +0.004 A 
ATOM     27  C   UNL     1      -5.708 -10.633  18.208  0.00  0.00    -0.050 A 
ATOM     28  C   UNL     1      -6.568 -10.641  19.427  0.00  0.00    +0.044 C 
ENDBRANCH  17  21
ENDBRANCH   8  13
BRANCH   5  12
ATOM     12  C   UNL     1      -4.973  -9.538   8.617  0.00  0.00    +0.119 C 
BRANCH  12  14
ATOM     14  C   UNL     1      -5.451 -10.033   7.277  0.00  0.00    -0.033 A 
ATOM     15  C   UNL     1      -6.561  -9.444   6.672  0.00  0.00    +0.007 A 
ATOM     16  C   UNL     1      -4.783 -11.080   6.642  0.00  0.00    +0.007 A 
ATOM     18  C   UNL     1      -7.004  -9.902   5.432  0.00  0.00    +0.027 A 
ATOM     19  C   UNL     1      -5.226 -11.538   5.402  0.00  0.00    +0.027 A 
ATOM     20  C   UNL     1      -6.336 -10.950   4.797  0.00  0.00    +0.088 A 
BRANCH  20   1
ATOM      1  S   UNL     1      -6.890 -11.522   3.242  0.00  0.00    -0.006 S 
ATOM      3  O   UNL     1      -7.545 -10.425   2.542  0.00  0.00    -0.170 OA
ATOM      4  O   UNL     1      -5.788 -12.229   2.606  0.00  0.00    -0.170 OA
ATOM     24  C   UNL     1      -8.151 -12.714   3.632  0.00  0.00    +0.200 C 
ENDBRANCH  20   1
ENDBRANCH  12  14
ENDBRANCH   5  12
TORSDOF 5
ENDMDL
MODEL 8
REMARK VINA RESULT:      -6.8     27.152     29.553
REMARK  Name = 51137446
REMARK  7 active torsions:
REMARK  status: ('A' for Active; 'I' for Inactive)
REMARK    1  A    between atoms: S_1  and  C_20
REMARK    2  A    between atoms: S_1  and  C_24
REMARK    3  A    between atoms: N_5  and  C_12
REMARK    4  A    between atoms: C_8  and  C_13
REMARK    5  A    between atoms: C_12  and  C_14
REMARK    6  A    between atoms: C_17  and  C_21
REMARK    7  A    between atoms: C_27  and  C_28
REMARK                            x       y       z     vdW  Elec       q    Type
REMARK                         _______ _______ _______ _____ _____    ______ ____
ROOT
ATOM      5  N   UNL     1      -2.110 -10.933  13.959  0.00  0.00    -0.297 NA
ATOM      8  C   UNL     1      -3.197 -10.295  15.936  0.00  0.00    +0.092 C 
ATOM      9  C   UNL     1      -1.722 -10.613  16.239  0.00  0.00    +0.029 C 
ATOM     10  C   UNL     1      -3.449 -10.905  14.550  0.00  0.00    +0.097 C 
ATOM     11  C   UNL     1      -1.233 -11.402  15.032  0.00  0.00    +0.085 C 
ENDROOT
BRANCH   8  13
ATOM      2  O   UNL     1      -5.443 -10.282  16.913  0.00  0.00    -0.420 OA
ATOM      6  N   UNL     1      -3.995 -11.623  17.968  0.00  0.00    -0.112 NA
ATOM      7  N   UNL     1      -5.212 -11.711  18.619  0.00  0.00    -0.107 NA
ATOM     13  C   UNL     1      -4.177 -10.778  16.980  0.00  0.00    +0.222 A 
ATOM     17  C   UNL     1      -6.025 -10.911  17.969  0.00  0.00    +0.248 A 
BRANCH  17  21
ATOM     21  C   UNL     1      -7.409 -10.606  18.196  0.00  0.00    +0.038 A 
ATOM     22  C   UNL     1      -8.078  -9.728  17.344  0.00  0.00    +0.013 A 
ATOM     23  C   UNL     1      -8.084 -11.189  19.268  0.00  0.00    +0.013 A 
ATOM     25  C   UNL     1      -9.424  -9.433  17.564  0.00  0.00    +0.004 A 
ATOM     26  C   UNL     1      -9.430 -10.894  19.487  0.00  0.00    +0.004 A 
ATOM     27  C   UNL     1     -10.099 -10.015  18.635  0.00  0.00    -0.050 A 
ATOM     28  C   UNL     1     -11.538  -9.699  18.871  0.00  0.00    +0.044 C 
ENDBRANCH  17  21
ENDBRANCH   8  13
BRANCH   5  12
ATOM     12  C   UNL     1      -2.042 -11.782  12.777  0.00  0.00    +0.119 C 
BRANCH  12  14
ATOM     14  C   UNL     1      -3.009 -11.338  11.712  0.00  0.00    -0.033 A 
ATOM     15  C   UNL     1      -2.872 -10.079  11.126  0.00  0.00    +0.007 A 
ATOM     16  C   UNL     1      -4.042 -12.185  11.310  0.00  0.00    +0.007 A 
ATOM     18  C   UNL     1      -3.767  -9.668  10.139  0.00  0.00    +0.027 A 
ATOM     19  C   UNL     1      -4.937 -11.774  10.323  0.00  0.00    +0.027 A 
ATOM     20  C   UNL     1      -4.800 -10.516   9.738  0.00  0.00    +0.088 A 
BRANCH  20   1
ATOM      1  S   UNL     1      -5.919 -10.001   8.500  0.00  0.00    -0.006 S 
ATOM      3  O   UNL     1      -5.182  -9.762   7.267  0.00  0.00    -0.170 OA
ATOM      4  O   UNL     1      -7.045 -10.924   8.501  0.00  0.00    -0.170 OA
ATOM     24  C   UNL     1      -6.508  -8.421   9.065  0.00  0.00    +0.200 C 
ENDBRANCH  20   1
ENDBRANCH  12  14
ENDBRANCH   5  12
TORSDOF 5
ENDMDL
MODEL 9
REMARK VINA RESULT:      -6.7     28.693     31.230
REMARK  Name = 51137446
REMARK  7 active torsions:
REMARK  status: ('A' for Active; 'I' for Inactive)
REMARK    1  A    between atoms: S_1  and  C_20
REMARK    2  A    between atoms: S_1  and  C_24
REMARK    3  A    between atoms: N_5  and  C_12
REMARK    4  A    between atoms: C_8  and  C_13
REMARK    5  A    between atoms: C_12  and  C_14
REMARK    6  A    between atoms: C_17  and  C_21
REMARK    7  A    between atoms: C_27  and  C_28
REMARK                            x       y       z     vdW  Elec       q    Type
REMARK                         _______ _______ _______ _____ _____    ______ ____
ROOT
ATOM      5  N   UNL     1      -5.169 -10.109   8.808  0.00  0.00    -0.297 NA
ATOM      8  C   UNL     1      -5.181  -9.806  11.133  0.00  0.00    +0.092 C 
ATOM      9  C   UNL     1      -4.687  -8.519  10.448  0.00  0.00    +0.029 C 
ATOM     10  C   UNL     1      -5.084 -10.885  10.045  0.00  0.00    +0.097 C 
ATOM     11  C   UNL     1      -4.315  -8.943   9.033  0.00  0.00    +0.085 C 
ENDROOT
BRANCH   8  13
ATOM      2  O   UNL     1      -5.161 -10.188  13.552  0.00  0.00    -0.420 OA
ATOM      6  N   UNL     1      -3.177 -10.492  12.563  0.00  0.00    -0.112 NA
ATOM      7  N   UNL     1      -3.023 -10.738  13.916  0.00  0.00    -0.107 NA
ATOM     13  C   UNL     1      -4.440 -10.175  12.397  0.00  0.00    +0.222 A 
ATOM     17  C   UNL     1      -4.207 -10.548  14.452  0.00  0.00    +0.248 A 
BRANCH  17  21
ATOM     21  C   UNL     1      -4.640 -10.662  15.815  0.00  0.00    +0.038 A 
ATOM     22  C   UNL     1      -3.815 -11.270  16.760  0.00  0.00    +0.013 A 
ATOM     23  C   UNL     1      -5.886 -10.162  16.194  0.00  0.00    +0.013 A 
ATOM     25  C   UNL     1      -4.236 -11.380  18.085  0.00  0.00    +0.004 A 
ATOM     26  C   UNL     1      -6.306 -10.271  17.520  0.00  0.00    +0.004 A 
ATOM     27  C   UNL     1      -5.481 -10.880  18.465  0.00  0.00    -0.050 A 
ATOM     28  C   UNL     1      -5.932 -10.998  19.882  0.00  0.00    +0.044 C 
ENDBRANCH  17  21
ENDBRANCH   8  13
BRANCH   5  12
ATOM     12  C   UNL     1      -4.760 -10.877   7.640  0.00  0.00    +0.119 C 
BRANCH  12  14
ATOM     14  C   UNL     1      -5.635 -10.595   6.448  0.00  0.00    -0.033 A 
ATOM     15  C   UNL     1      -6.367  -9.409   6.385  0.00  0.00    +0.007 A 
ATOM     16  C   UNL     1      -5.713 -11.518   5.405  0.00  0.00    +0.007 A 
ATOM     18  C   UNL     1      -7.177  -9.146   5.281  0.00  0.00    +0.027 A 
ATOM     19  C   UNL     1      -6.523 -11.256   4.301  0.00  0.00    +0.027 A 
ATOM     20  C   UNL     1      -7.255 -10.071   4.239  0.00  0.00    +0.088 A 
BRANCH  20   1
ATOM      1  S   UNL     1      -8.268  -9.740   2.854  0.00  0.00    -0.006 S 
ATOM      3  O   UNL     1      -7.803 -10.539   1.729  0.00  0.00    -0.170 OA
ATOM      4  O   UNL     1      -9.656  -9.833   3.282  0.00  0.00    -0.170 OA
ATOM     24  C   UNL     1      -7.931  -8.039   2.457  0.00  0.00    +0.200 C 
ENDBRANCH  20   1
ENDBRANCH  12  14
ENDBRANCH   5  12
TORSDOF 5
ENDMDL
MODEL 10
REMARK VINA RESULT:      -6.6     28.819     31.088
REMARK  Name = 51137446
REMARK  7 active torsions:
REMARK  status: ('A' for Active; 'I' for Inactive)
REMARK    1  A    between atoms: S_1  and  C_20
REMARK    2  A    between atoms: S_1  and  C_24
REMARK    3  A    between atoms: N_5  and  C_12
REMARK    4  A    between atoms: C_8  and  C_13
REMARK    5  A    between atoms: C_12  and  C_14
REMARK    6  A    between atoms: C_17  and  C_21
REMARK    7  A    between atoms: C_27  and  C_28
REMARK                            x       y       z     vdW  Elec       q    Type
REMARK                         _______ _______ _______ _____ _____    ______ ____
ROOT
ATOM      5  N   UNL     1      -6.431  -8.484   8.833  0.00  0.00    -0.297 NA
ATOM      8  C   UNL     1      -4.998  -8.889  10.644  0.00  0.00    +0.092 C 
ATOM      9  C   UNL     1      -4.268  -9.210   9.328  0.00  0.00    +0.029 C 
ATOM     10  C   UNL     1      -6.482  -8.818  10.257  0.00  0.00    +0.097 C 
ATOM     11  C   UNL     1      -5.371  -9.329   8.285  0.00  0.00    +0.085 C 
ENDROOT
BRANCH   8  13
ATOM      2  O   UNL     1      -5.196  -9.516  13.004  0.00  0.00    -0.420 OA
ATOM      6  N   UNL     1      -4.097 -11.009  11.750  0.00  0.00    -0.112 NA
ATOM      7  N   UNL     1      -4.133 -11.485  13.049  0.00  0.00    -0.107 NA
ATOM     13  C   UNL     1      -4.729  -9.858  11.772  0.00  0.00    +0.222 A 
ATOM     17  C   UNL     1      -4.784 -10.581  13.744  0.00  0.00    +0.248 A 
BRANCH  17  21
ATOM     21  C   UNL     1      -5.122 -10.545  15.138  0.00  0.00    +0.038 A 
ATOM     22  C   UNL     1      -4.188 -10.947  16.092  0.00  0.00    +0.013 A 
ATOM     23  C   UNL     1      -6.385 -10.107  15.537  0.00  0.00    +0.013 A 
ATOM     25  C   UNL     1      -4.518 -10.911  17.447  0.00  0.00    +0.004 A 
ATOM     26  C   UNL     1      -6.714 -10.071  16.893  0.00  0.00    +0.004 A 
ATOM     27  C   UNL     1      -5.780 -10.473  17.848  0.00  0.00    -0.050 A 
ATOM     28  C   UNL     1      -6.132 -10.435  19.296  0.00  0.00    +0.044 C 
ENDBRANCH  17  21
ENDBRANCH   8  13
BRANCH   5  12
ATOM     12  C   UNL     1      -7.709  -8.696   8.167  0.00  0.00    +0.119 C 
BRANCH  12  14
ATOM     14  C   UNL     1      -8.708  -7.625   8.515  0.00  0.00    -0.033 A 
ATOM     15  C   UNL     1      -9.898  -7.964   9.159  0.00  0.00    +0.007 A 
ATOM     16  C   UNL     1      -8.443  -6.294   8.195  0.00  0.00    +0.007 A 
ATOM     18  C   UNL     1     -10.824  -6.972   9.481  0.00  0.00    +0.027 A 
ATOM     19  C   UNL     1      -9.368  -5.301   8.517  0.00  0.00    +0.027 A 
ATOM     20  C   UNL     1     -10.558  -5.640   9.160  0.00  0.00    +0.088 A 
BRANCH  20   1
ATOM      1  S   UNL     1     -11.716  -4.398   9.567  0.00  0.00    -0.006 S 
ATOM      3  O   UNL     1     -11.954  -4.427  11.004  0.00  0.00    -0.170 OA
ATOM      4  O   UNL     1     -11.289  -3.161   8.930  0.00  0.00    -0.170 OA
ATOM     24  C   UNL     1     -13.223  -4.924   8.783  0.00  0.00    +0.200 C 
ENDBRANCH  20   1
ENDBRANCH  12  14
ENDBRANCH   5  12
TORSDOF 5
ENDMDL
