REMARK  Name = 38027041
REMARK  12 active torsions:
REMARK  status: ('A' for Active; 'I' for Inactive)
REMARK    1  A    between atoms: N_4  and  C_15
REMARK    2  A    between atoms: N_5  and  C_22
REMARK    3  A    between atoms: N_6  and  C_23
REMARK    4  A    between atoms: N_7  and  C_28
REMARK    5  A    between atoms: C_8  and  C_12
REMARK    6  A    between atoms: C_9  and  C_15
REMARK    7  A    between atoms: C_11  and  C_16
REMARK    8  A    between atoms: C_12  and  C_17
REMARK    9  A    between atoms: C_12  and  C_18
REMARK   10  A    between atoms: C_13  and  C_19
REMARK   11  A    between atoms: C_16  and  C_20
REMARK   12  A    between atoms: C_22  and  C_23
REMARK                            x       y       z     vdW  Elec       q    Type
REMARK                         _______ _______ _______ _____ _____    ______ ____
ROOT
ATOM      8  C   UNL     1      -1.607   2.268   1.066  0.00  0.00    +0.000 C 
ATOM      9  C   UNL     1      -2.929   2.839   0.494  0.00  0.00    +0.032 C 
ATOM     10  C   UNL     1      -0.404   3.055   0.524  0.00  0.00    +0.012 C 
ATOM     11  C   UNL     1      -0.327   3.017  -1.014  0.00  0.00    +0.023 C 
ATOM     13  C   UNL     1      -1.670   3.310  -1.652  0.00  0.00    -0.073 C 
ATOM     14  C   UNL     1      -2.821   3.238  -0.959  0.00  0.00    -0.022 C 
ATOM     19  C   UNL     1      -1.656   3.731  -3.095  0.00  0.00    +0.039 C 
ENDROOT
BRANCH   8  12
ATOM     12  C   UNL     1      -1.594   2.289   2.597  0.00  0.00    -0.013 C 
ATOM     17  C   UNL     1      -0.634   1.233   3.136  0.00  0.00    +0.007 C 
ATOM     18  C   UNL     1      -1.214   3.675   3.107  0.00  0.00    +0.007 C 
ENDBRANCH   8  12
BRANCH   9  15
ATOM     15  C   UNL     1      -4.082   1.844   0.666  0.00  0.00    +0.113 C 
BRANCH  15   4
ATOM      2  O   UNL     1      -3.852  -0.846   1.624  0.00  0.00    -0.253 OA
ATOM      4  N   UNL     1      -3.862   0.672  -0.122  0.00  0.00    -0.299 N 
ATOM      7  N   UNL     1      -3.545  -1.567  -0.589  0.00  0.00    -0.269 N 
ATOM     21  C   UNL     1      -3.759  -0.623   0.419  0.00  0.00    +0.304 C 
ATOM     34  H   UNL     1      -3.844   0.764  -1.133  0.00  0.00    +0.150 HD
ATOM     36  H   UNL     1      -3.491  -1.214  -1.540  0.00  0.00    +0.156 HD
BRANCH   7  28
ATOM     28  C   UNL     1      -3.390  -2.966  -0.449  0.00  0.00    +0.035 A 
ATOM     29  C   UNL     1      -3.181  -3.761  -1.576  0.00  0.00    +0.023 A 
ATOM     30  C   UNL     1      -3.446  -3.551   0.816  0.00  0.00    +0.023 A 
ATOM     31  C   UNL     1      -3.028  -5.141  -1.438  0.00  0.00    +0.002 A 
ATOM     32  C   UNL     1      -3.293  -4.931   0.954  0.00  0.00    +0.002 A 
ATOM     33  C   UNL     1      -3.084  -5.725  -0.173  0.00  0.00    +0.000 A 
ENDBRANCH   7  28
ENDBRANCH  15   4
ENDBRANCH   9  15
BRANCH  11  16
ATOM     16  C   UNL     1       0.234   1.679  -1.506  0.00  0.00    +0.103 C 
BRANCH  16  20
ATOM      1  O   UNL     1       2.402   2.456  -0.765  0.00  0.00    -0.276 OA
ATOM      5  N   UNL     1       2.207   0.344  -1.714  0.00  0.00    -0.314 N 
ATOM     20  C   UNL     1       1.724   1.568  -1.275  0.00  0.00    +0.214 C 
ATOM     35  H   UNL     1       1.560  -0.330  -2.116  0.00  0.00    +0.149 HD
BRANCH   5  22
ATOM     22  C   UNL     1       3.598  -0.036  -1.621  0.00  0.00    +0.119 C 
BRANCH  22  23
ATOM     23  C   UNL     1       3.890  -0.736  -0.301  0.00  0.00    +0.103 C 
BRANCH  23   6
ATOM      3  O   UNL     1       7.776  -1.337   1.166  0.00  0.00    -0.377 OA
ATOM      6  N   UNL     1       5.302  -1.102  -0.223  0.00  0.00    -0.297 NA
ATOM     24  C   UNL     1       5.516  -2.140   0.795  0.00  0.00    +0.112 C 
ATOM     25  C   UNL     1       6.131   0.074   0.075  0.00  0.00    +0.112 C 
ATOM     26  C   UNL     1       6.998  -2.497   0.867  0.00  0.00    +0.175 C 
ATOM     27  C   UNL     1       7.598  -0.335   0.164  0.00  0.00    +0.175 C 
ENDBRANCH  23   6
ENDBRANCH  22  23
ENDBRANCH   5  22
ENDBRANCH  16  20
ENDBRANCH  11  16
TORSDOF 9
