MODEL 1
REMARK VINA RESULT:      -6.5      0.000      0.000
REMARK  Name = 38026982
REMARK  13 active torsions:
REMARK  status: ('A' for Active; 'I' for Inactive)
REMARK    1  A    between atoms: S_1  and  N_6
REMARK    2  A    between atoms: S_1  and  C_24
REMARK    3  A    between atoms: N_6  and  C_16
REMARK    4  A    between atoms: N_7  and  C_22
REMARK    5  A    between atoms: N_8  and  C_23
REMARK    6  A    between atoms: C_9  and  C_13
REMARK    7  A    between atoms: C_10  and  C_16
REMARK    8  A    between atoms: C_12  and  C_17
REMARK    9  A    between atoms: C_13  and  C_18
REMARK   10  A    between atoms: C_13  and  C_19
REMARK   11  A    between atoms: C_14  and  C_20
REMARK   12  A    between atoms: C_17  and  C_21
REMARK   13  A    between atoms: C_22  and  C_23
REMARK                            x       y       z     vdW  Elec       q    Type
REMARK                         _______ _______ _______ _____ _____    ______ ____
ROOT
ATOM      9  C   UNL     1      13.386  11.145  22.923  0.00  0.00    +0.000 C 
ATOM     10  C   UNL     1      12.477  11.318  21.680  0.00  0.00    +0.030 C 
ATOM     11  C   UNL     1      14.774  11.749  22.661  0.00  0.00    +0.012 C 
ATOM     12  C   UNL     1      15.473  11.100  21.451  0.00  0.00    +0.023 C 
ATOM     14  C   UNL     1      14.546  10.990  20.257  0.00  0.00    -0.073 C 
ATOM     15  C   UNL     1      13.211  11.103  20.377  0.00  0.00    -0.023 C 
ATOM     20  C   UNL     1      15.192  10.793  18.914  0.00  0.00    +0.039 C 
ENDROOT
BRANCH   9  13
ATOM     13  C   UNL     1      12.769  11.783  24.171  0.00  0.00    -0.013 C 
ATOM     18  C   UNL     1      13.774  11.786  25.319  0.00  0.00    +0.007 C 
ATOM     19  C   UNL     1      12.295  13.201  23.865  0.00  0.00    +0.007 C 
ENDBRANCH   9  13
BRANCH  10  16
ATOM     16  C   UNL     1      11.267  10.378  21.745  0.00  0.00    +0.113 C 
BRANCH  16   6
ATOM      6  N   UNL     1      11.741   8.990  21.861  0.00  0.00    -0.189 NA
ATOM     34  H   UNL     1      12.600   8.837  22.404  0.00  0.00    +0.148 HD
BRANCH   6   1
ATOM      1  S   UNL     1      11.350   7.848  20.660  0.00  0.00    +0.058 S 
ATOM      3  O   UNL     1      10.580   8.496  19.615  0.00  0.00    -0.153 OA
ATOM      4  O   UNL     1      10.848   6.644  21.295  0.00  0.00    -0.153 OA
BRANCH   1  24
ATOM     24  C   UNL     1      12.943   7.459  20.001  0.00  0.00    +0.105 A 
ATOM     29  C   UNL     1      13.920   6.897  20.822  0.00  0.00    +0.028 A 
ATOM     30  C   UNL     1      13.224   7.716  18.659  0.00  0.00    +0.028 A 
ATOM     31  C   UNL     1      15.178   6.594  20.303  0.00  0.00    +0.002 A 
ATOM     32  C   UNL     1      14.483   7.413  18.140  0.00  0.00    +0.002 A 
ATOM     33  C   UNL     1      15.460   6.851  18.962  0.00  0.00    +0.000 A 
ENDBRANCH   1  24
ENDBRANCH   6   1
ENDBRANCH  16   6
ENDBRANCH  10  16
BRANCH  12  17
ATOM     17  C   UNL     1      16.058   9.732  21.819  0.00  0.00    +0.103 C 
BRANCH  17  21
ATOM      2  O   UNL     1      18.144  10.474  20.843  0.00  0.00    -0.276 OA
ATOM      7  N   UNL     1      18.101   8.524  22.106  0.00  0.00    -0.314 N 
ATOM     21  C   UNL     1      17.538   9.648  21.519  0.00  0.00    +0.214 C 
ATOM     35  H   UNL     1      17.517   7.897  22.652  0.00  0.00    +0.149 HD
BRANCH   7  22
ATOM     22  C   UNL     1      19.501   8.188  21.984  0.00  0.00    +0.119 C 
BRANCH  22  23
ATOM     23  C   UNL     1      19.947   7.269  23.112  0.00  0.00    +0.103 C 
BRANCH  23   8
ATOM      5  O   UNL     1      22.221   4.417  21.036  0.00  0.00    -0.377 OA
ATOM      8  N   UNL     1      20.417   5.994  22.572  0.00  0.00    -0.297 NA
ATOM     25  C   UNL     1      20.391   6.009  21.103  0.00  0.00    +0.112 C 
ATOM     26  C   UNL     1      21.774   5.695  23.049  0.00  0.00    +0.112 C 
ATOM     27  C   UNL     1      20.898   4.674  20.563  0.00  0.00    +0.175 C 
ATOM     28  C   UNL     1      22.249   4.369  22.464  0.00  0.00    +0.175 C 
ENDBRANCH  23   8
ENDBRANCH  22  23
ENDBRANCH   7  22
ENDBRANCH  17  21
ENDBRANCH  12  17
TORSDOF 10
ENDMDL
MODEL 2
REMARK VINA RESULT:      -6.4      1.973      4.288
REMARK  Name = 38026982
REMARK  13 active torsions:
REMARK  status: ('A' for Active; 'I' for Inactive)
REMARK    1  A    between atoms: S_1  and  N_6
REMARK    2  A    between atoms: S_1  and  C_24
REMARK    3  A    between atoms: N_6  and  C_16
REMARK    4  A    between atoms: N_7  and  C_22
REMARK    5  A    between atoms: N_8  and  C_23
REMARK    6  A    between atoms: C_9  and  C_13
REMARK    7  A    between atoms: C_10  and  C_16
REMARK    8  A    between atoms: C_12  and  C_17
REMARK    9  A    between atoms: C_13  and  C_18
REMARK   10  A    between atoms: C_13  and  C_19
REMARK   11  A    between atoms: C_14  and  C_20
REMARK   12  A    between atoms: C_17  and  C_21
REMARK   13  A    between atoms: C_22  and  C_23
REMARK                            x       y       z     vdW  Elec       q    Type
REMARK                         _______ _______ _______ _____ _____    ______ ____
ROOT
ATOM      9  C   UNL     1      16.034   8.700  21.247  0.00  0.00    +0.000 C 
ATOM     10  C   UNL     1      15.251   8.016  20.099  0.00  0.00    +0.030 C 
ATOM     11  C   UNL     1      17.527   8.792  20.897  0.00  0.00    +0.012 C 
ATOM     12  C   UNL     1      18.151   7.408  20.637  0.00  0.00    +0.023 C 
ATOM     14  C   UNL     1      17.291   6.566  19.716  0.00  0.00    -0.073 C 
ATOM     15  C   UNL     1      16.001   6.860  19.478  0.00  0.00    -0.023 C 
ATOM     20  C   UNL     1      17.961   5.403  19.040  0.00  0.00    +0.039 C 
ENDROOT
BRANCH   9  13
ATOM     13  C   UNL     1      15.486  10.096  21.557  0.00  0.00    -0.013 C 
ATOM     18  C   UNL     1      14.860  10.126  22.947  0.00  0.00    +0.007 C 
ATOM     19  C   UNL     1      16.593  11.140  21.439  0.00  0.00    +0.007 C 
ENDBRANCH   9  13
BRANCH  10  16
ATOM     16  C   UNL     1      13.877   7.533  20.579  0.00  0.00    +0.113 C 
BRANCH  16   6
ATOM      6  N   UNL     1      12.849   7.981  19.627  0.00  0.00    -0.189 NA
ATOM     34  H   UNL     1      13.170   8.542  18.828  0.00  0.00    +0.148 HD
BRANCH   6   1
ATOM      1  S   UNL     1      11.236   8.179  20.136  0.00  0.00    +0.058 S 
ATOM      3  O   UNL     1      10.858   7.058  20.976  0.00  0.00    -0.153 OA
ATOM      4  O   UNL     1      10.418   8.544  18.995  0.00  0.00    -0.153 OA
BRANCH   1  24
ATOM     24  C   UNL     1      11.357   9.612  21.163  0.00  0.00    +0.105 A 
ATOM     29  C   UNL     1      10.857   9.582  22.465  0.00  0.00    +0.028 A 
ATOM     30  C   UNL     1      11.950  10.776  20.671  0.00  0.00    +0.028 A 
ATOM     31  C   UNL     1      10.949  10.715  23.274  0.00  0.00    +0.002 A 
ATOM     32  C   UNL     1      12.042  11.908  21.481  0.00  0.00    +0.002 A 
ATOM     33  C   UNL     1      11.541  11.877  22.783  0.00  0.00    +0.000 A 
ENDBRANCH   1  24
ENDBRANCH   6   1
ENDBRANCH  16   6
ENDBRANCH  10  16
BRANCH  12  17
ATOM     17  C   UNL     1      18.431   6.672  21.951  0.00  0.00    +0.103 C 
BRANCH  17  21
ATOM      2  O   UNL     1      20.392   6.307  23.321  0.00  0.00    -0.276 OA
ATOM      7  N   UNL     1      20.639   6.629  21.033  0.00  0.00    -0.314 N 
ATOM     21  C   UNL     1      19.913   6.512  22.210  0.00  0.00    +0.214 C 
ATOM     35  H   UNL     1      20.151   6.797  20.157  0.00  0.00    +0.149 HD
BRANCH   7  22
ATOM     22  C   UNL     1      22.078   6.521  20.980  0.00  0.00    +0.119 C 
BRANCH  22  23
ATOM     23  C   UNL     1      22.509   5.152  20.476  0.00  0.00    +0.103 C 
BRANCH  23   8
ATOM      5  O   UNL     1      23.292   3.591  24.293  0.00  0.00    -0.377 OA
ATOM      8  N   UNL     1      23.103   4.374  21.563  0.00  0.00    -0.297 NA
ATOM     25  C   UNL     1      23.690   5.260  22.578  0.00  0.00    +0.112 C 
ATOM     26  C   UNL     1      22.101   3.494  22.181  0.00  0.00    +0.112 C 
ATOM     27  C   UNL     1      24.291   4.427  23.707  0.00  0.00    +0.175 C 
ATOM     28  C   UNL     1      22.738   2.703  23.320  0.00  0.00    +0.175 C 
ENDBRANCH  23   8
ENDBRANCH  22  23
ENDBRANCH   7  22
ENDBRANCH  17  21
ENDBRANCH  12  17
TORSDOF 10
ENDMDL
MODEL 3
REMARK VINA RESULT:      -6.3      2.265      4.455
REMARK  Name = 38026982
REMARK  13 active torsions:
REMARK  status: ('A' for Active; 'I' for Inactive)
REMARK    1  A    between atoms: S_1  and  N_6
REMARK    2  A    between atoms: S_1  and  C_24
REMARK    3  A    between atoms: N_6  and  C_16
REMARK    4  A    between atoms: N_7  and  C_22
REMARK    5  A    between atoms: N_8  and  C_23
REMARK    6  A    between atoms: C_9  and  C_13
REMARK    7  A    between atoms: C_10  and  C_16
REMARK    8  A    between atoms: C_12  and  C_17
REMARK    9  A    between atoms: C_13  and  C_18
REMARK   10  A    between atoms: C_13  and  C_19
REMARK   11  A    between atoms: C_14  and  C_20
REMARK   12  A    between atoms: C_17  and  C_21
REMARK   13  A    between atoms: C_22  and  C_23
REMARK                            x       y       z     vdW  Elec       q    Type
REMARK                         _______ _______ _______ _____ _____    ______ ____
ROOT
ATOM      9  C   UNL     1      16.670   8.510  21.243  0.00  0.00    +0.000 C 
ATOM     10  C   UNL     1      16.029   7.598  20.167  0.00  0.00    +0.030 C 
ATOM     11  C   UNL     1      18.177   8.666  20.986  0.00  0.00    +0.012 C 
ATOM     12  C   UNL     1      18.912   7.312  20.992  0.00  0.00    +0.023 C 
ATOM     14  C   UNL     1      18.186   6.273  20.160  0.00  0.00    -0.073 C 
ATOM     15  C   UNL     1      16.902   6.424  19.790  0.00  0.00    -0.023 C 
ATOM     20  C   UNL     1      18.985   5.076  19.725  0.00  0.00    +0.039 C 
ENDROOT
BRANCH   9  13
ATOM     13  C   UNL     1      16.006   9.890  21.288  0.00  0.00    -0.013 C 
ATOM     18  C   UNL     1      15.316  10.105  22.632  0.00  0.00    +0.007 C 
ATOM     19  C   UNL     1      17.037  10.985  21.028  0.00  0.00    +0.007 C 
ENDBRANCH   9  13
BRANCH  10  16
ATOM     16  C   UNL     1      14.656   7.088  20.622  0.00  0.00    +0.113 C 
BRANCH  16   6
ATOM      6  N   UNL     1      13.887   6.659  19.444  0.00  0.00    -0.189 NA
ATOM     34  H   UNL     1      14.421   6.260  18.662  0.00  0.00    +0.148 HD
BRANCH   6   1
ATOM      1  S   UNL     1      12.386   7.381  19.091  0.00  0.00    +0.058 S 
ATOM      3  O   UNL     1      11.432   7.033  20.128  0.00  0.00    -0.153 OA
ATOM      4  O   UNL     1      12.063   7.150  17.696  0.00  0.00    -0.153 OA
BRANCH   1  24
ATOM     24  C   UNL     1      12.766   9.100  19.255  0.00  0.00    +0.105 A 
ATOM     29  C   UNL     1      13.569   9.731  18.306  0.00  0.00    +0.028 A 
ATOM     30  C   UNL     1      12.265   9.825  20.337  0.00  0.00    +0.028 A 
ATOM     31  C   UNL     1      13.872  11.085  18.437  0.00  0.00    +0.002 A 
ATOM     32  C   UNL     1      12.568  11.179  20.469  0.00  0.00    +0.002 A 
ATOM     33  C   UNL     1      13.372  11.811  19.519  0.00  0.00    +0.000 A 
ENDBRANCH   1  24
ENDBRANCH   6   1
ENDBRANCH  16   6
ENDBRANCH  10  16
BRANCH  12  17
ATOM     17  C   UNL     1      19.134   6.810  22.423  0.00  0.00    +0.103 C 
BRANCH  17  21
ATOM      2  O   UNL     1      20.968   7.612  23.782  0.00  0.00    -0.276 OA
ATOM      7  N   UNL     1      21.397   6.140  22.036  0.00  0.00    -0.314 N 
ATOM     21  C   UNL     1      20.583   6.919  22.845  0.00  0.00    +0.214 C 
ATOM     35  H   UNL     1      20.983   5.596  21.283  0.00  0.00    +0.149 HD
BRANCH   7  22
ATOM     22  C   UNL     1      22.828   6.052  22.208  0.00  0.00    +0.119 C 
BRANCH  22  23
ATOM     23  C   UNL     1      23.206   4.873  23.092  0.00  0.00    +0.103 C 
BRANCH  23   8
ATOM      5  O   UNL     1      24.606   2.517  19.913  0.00  0.00    -0.377 OA
ATOM      8  N   UNL     1      23.963   3.886  22.325  0.00  0.00    -0.297 NA
ATOM     25  C   UNL     1      23.069   2.868  21.757  0.00  0.00    +0.112 C 
ATOM     26  C   UNL     1      24.731   4.536  21.254  0.00  0.00    +0.112 C 
ATOM     27  C   UNL     1      23.880   1.857  20.950  0.00  0.00    +0.175 C 
ATOM     28  C   UNL     1      25.503   3.486  20.459  0.00  0.00    +0.175 C 
ENDBRANCH  23   8
ENDBRANCH  22  23
ENDBRANCH   7  22
ENDBRANCH  17  21
ENDBRANCH  12  17
TORSDOF 10
ENDMDL
MODEL 4
REMARK VINA RESULT:      -6.2      1.620      2.192
REMARK  Name = 38026982
REMARK  13 active torsions:
REMARK  status: ('A' for Active; 'I' for Inactive)
REMARK    1  A    between atoms: S_1  and  N_6
REMARK    2  A    between atoms: S_1  and  C_24
REMARK    3  A    between atoms: N_6  and  C_16
REMARK    4  A    between atoms: N_7  and  C_22
REMARK    5  A    between atoms: N_8  and  C_23
REMARK    6  A    between atoms: C_9  and  C_13
REMARK    7  A    between atoms: C_10  and  C_16
REMARK    8  A    between atoms: C_12  and  C_17
REMARK    9  A    between atoms: C_13  and  C_18
REMARK   10  A    between atoms: C_13  and  C_19
REMARK   11  A    between atoms: C_14  and  C_20
REMARK   12  A    between atoms: C_17  and  C_21
REMARK   13  A    between atoms: C_22  and  C_23
REMARK                            x       y       z     vdW  Elec       q    Type
REMARK                         _______ _______ _______ _____ _____    ______ ____
ROOT
ATOM      9  C   UNL     1      11.921  11.587  23.161  0.00  0.00    +0.000 C 
ATOM     10  C   UNL     1      11.443  10.877  21.870  0.00  0.00    +0.030 C 
ATOM     11  C   UNL     1      12.969  12.660  22.826  0.00  0.00    +0.012 C 
ATOM     12  C   UNL     1      14.199  12.069  22.110  0.00  0.00    +0.023 C 
ATOM     14  C   UNL     1      13.801  11.137  20.983  0.00  0.00    -0.073 C 
ATOM     15  C   UNL     1      12.561  10.624  20.885  0.00  0.00    -0.023 C 
ATOM     20  C   UNL     1      14.848  10.843  19.946  0.00  0.00    +0.039 C 
ENDROOT
BRANCH   9  13
ATOM     13  C   UNL     1      10.755  12.222  23.926  0.00  0.00    -0.013 C 
ATOM     18  C   UNL     1      11.000  12.143  25.429  0.00  0.00    +0.007 C 
ATOM     19  C   UNL     1      10.554  13.669  23.484  0.00  0.00    +0.007 C 
ENDBRANCH   9  13
BRANCH  10  16
ATOM     16  C   UNL     1      10.741   9.553  22.195  0.00  0.00    +0.113 C 
BRANCH  16   6
ATOM      6  N   UNL     1      11.753   8.496  22.349  0.00  0.00    -0.189 NA
ATOM     34  H   UNL     1      12.603   8.741  22.873  0.00  0.00    +0.148 HD
BRANCH   6   1
ATOM      1  S   UNL     1      11.863   7.242  21.203  0.00  0.00    +0.058 S 
ATOM      3  O   UNL     1      11.142   7.624  20.003  0.00  0.00    -0.153 OA
ATOM      4  O   UNL     1      11.577   5.977  21.853  0.00  0.00    -0.153 OA
BRANCH   1  24
ATOM     24  C   UNL     1      13.590   7.249  20.826  0.00  0.00    +0.105 A 
ATOM     29  C   UNL     1      14.026   6.914  19.544  0.00  0.00    +0.028 A 
ATOM     30  C   UNL     1      14.518   7.585  21.812  0.00  0.00    +0.028 A 
ATOM     31  C   UNL     1      15.389   6.916  19.248  0.00  0.00    +0.002 A 
ATOM     32  C   UNL     1      15.881   7.587  21.516  0.00  0.00    +0.002 A 
ATOM     33  C   UNL     1      16.317   7.252  20.233  0.00  0.00    +0.000 A 
ENDBRANCH   1  24
ENDBRANCH   6   1
ENDBRANCH  16   6
ENDBRANCH  10  16
BRANCH  12  17
ATOM     17  C   UNL     1      15.130  11.365  23.102  0.00  0.00    +0.103 C 
BRANCH  17  21
ATOM      2  O   UNL     1      16.986  12.905  22.908  0.00  0.00    -0.276 OA
ATOM      7  N   UNL     1      17.365  10.624  22.680  0.00  0.00    -0.314 N 
ATOM     21  C   UNL     1      16.579  11.747  22.891  0.00  0.00    +0.214 C 
ATOM     35  H   UNL     1      16.935   9.702  22.686  0.00  0.00    +0.149 HD
BRANCH   7  22
ATOM     22  C   UNL     1      18.789  10.690  22.448  0.00  0.00    +0.119 C 
BRANCH  22  23
ATOM     23  C   UNL     1      19.242   9.599  21.489  0.00  0.00    +0.103 C 
BRANCH  23   8
ATOM      5  O   UNL     1      21.008   6.233  23.268  0.00  0.00    -0.377 OA
ATOM      8  N   UNL     1      19.411   8.334  22.203  0.00  0.00    -0.297 NA
ATOM     25  C   UNL     1      20.030   7.323  21.334  0.00  0.00    +0.112 C 
ATOM     26  C   UNL     1      20.223   8.523  23.413  0.00  0.00    +0.112 C 
ATOM     27  C   UNL     1      20.208   6.018  22.105  0.00  0.00    +0.175 C 
ATOM     28  C   UNL     1      20.397   7.190  24.135  0.00  0.00    +0.175 C 
ENDBRANCH  23   8
ENDBRANCH  22  23
ENDBRANCH   7  22
ENDBRANCH  17  21
ENDBRANCH  12  17
TORSDOF 10
ENDMDL
MODEL 5
REMARK VINA RESULT:      -6.2      2.281      3.887
REMARK  Name = 38026982
REMARK  13 active torsions:
REMARK  status: ('A' for Active; 'I' for Inactive)
REMARK    1  A    between atoms: S_1  and  N_6
REMARK    2  A    between atoms: S_1  and  C_24
REMARK    3  A    between atoms: N_6  and  C_16
REMARK    4  A    between atoms: N_7  and  C_22
REMARK    5  A    between atoms: N_8  and  C_23
REMARK    6  A    between atoms: C_9  and  C_13
REMARK    7  A    between atoms: C_10  and  C_16
REMARK    8  A    between atoms: C_12  and  C_17
REMARK    9  A    between atoms: C_13  and  C_18
REMARK   10  A    between atoms: C_13  and  C_19
REMARK   11  A    between atoms: C_14  and  C_20
REMARK   12  A    between atoms: C_17  and  C_21
REMARK   13  A    between atoms: C_22  and  C_23
REMARK                            x       y       z     vdW  Elec       q    Type
REMARK                         _______ _______ _______ _____ _____    ______ ____
ROOT
ATOM      9  C   UNL     1      15.500   8.531  21.058  0.00  0.00    +0.000 C 
ATOM     10  C   UNL     1      14.719   7.784  19.948  0.00  0.00    +0.030 C 
ATOM     11  C   UNL     1      16.966   8.727  20.643  0.00  0.00    +0.012 C 
ATOM     12  C   UNL     1      17.676   7.389  20.363  0.00  0.00    +0.023 C 
ATOM     14  C   UNL     1      16.840   6.481  19.484  0.00  0.00    -0.073 C 
ATOM     15  C   UNL     1      15.523   6.680  19.300  0.00  0.00    -0.023 C 
ATOM     20  C   UNL     1      17.563   5.363  18.785  0.00  0.00    +0.039 C 
ENDROOT
BRANCH   9  13
ATOM     13  C   UNL     1      14.866   9.887  21.384  0.00  0.00    -0.013 C 
ATOM     18  C   UNL     1      14.609  10.007  22.883  0.00  0.00    +0.007 C 
ATOM     19  C   UNL     1      15.760  11.023  20.895  0.00  0.00    +0.007 C 
ENDBRANCH   9  13
BRANCH  10  16
ATOM     16  C   UNL     1      13.405   7.207  20.488  0.00  0.00    +0.113 C 
BRANCH  16   6
ATOM      6  N   UNL     1      12.387   7.251  19.428  0.00  0.00    -0.189 NA
ATOM     34  H   UNL     1      12.453   6.537  18.692  0.00  0.00    +0.148 HD
BRANCH   6   1
ATOM      1  S   UNL     1      11.617   8.719  19.039  0.00  0.00    +0.058 S 
ATOM      3  O   UNL     1      11.574   9.565  20.217  0.00  0.00    -0.153 OA
ATOM      4  O   UNL     1      10.402   8.438  18.298  0.00  0.00    -0.153 OA
BRANCH   1  24
ATOM     24  C   UNL     1      12.762   9.435  17.897  0.00  0.00    +0.105 A 
ATOM     29  C   UNL     1      13.279  10.708  18.133  0.00  0.00    +0.028 A 
ATOM     30  C   UNL     1      13.146   8.727  16.758  0.00  0.00    +0.028 A 
ATOM     31  C   UNL     1      14.179  11.274  17.230  0.00  0.00    +0.002 A 
ATOM     32  C   UNL     1      14.045   9.293  15.855  0.00  0.00    +0.002 A 
ATOM     33  C   UNL     1      14.562  10.567  16.091  0.00  0.00    +0.000 A 
ENDBRANCH   1  24
ENDBRANCH   6   1
ENDBRANCH  16   6
ENDBRANCH  10  16
BRANCH  12  17
ATOM     17  C   UNL     1      18.064   6.686  21.668  0.00  0.00    +0.103 C 
BRANCH  17  21
ATOM      2  O   UNL     1      20.104   6.507  22.957  0.00  0.00    -0.276 OA
ATOM      7  N   UNL     1      20.226   6.744  20.649  0.00  0.00    -0.314 N 
ATOM     21  C   UNL     1      19.564   6.633  21.862  0.00  0.00    +0.214 C 
ATOM     35  H   UNL     1      19.690   6.842  19.790  0.00  0.00    +0.149 HD
BRANCH   7  22
ATOM     22  C   UNL     1      21.666   6.727  20.532  0.00  0.00    +0.119 C 
BRANCH  22  23
ATOM     23  C   UNL     1      22.182   5.315  20.296  0.00  0.00    +0.103 C 
BRANCH  23   8
ATOM      5  O   UNL     1      23.440   4.668  24.248  0.00  0.00    -0.377 OA
ATOM      8  N   UNL     1      22.956   4.858  21.449  0.00  0.00    -0.297 NA
ATOM     25  C   UNL     1      23.467   6.000  22.220  0.00  0.00    +0.112 C 
ATOM     26  C   UNL     1      22.142   3.991  22.313  0.00  0.00    +0.112 C 
ATOM     27  C   UNL     1      24.260   5.499  23.425  0.00  0.00    +0.175 C 
ATOM     28  C   UNL     1      22.965   3.537  23.515  0.00  0.00    +0.175 C 
ENDBRANCH  23   8
ENDBRANCH  22  23
ENDBRANCH   7  22
ENDBRANCH  17  21
ENDBRANCH  12  17
TORSDOF 10
ENDMDL
MODEL 6
REMARK VINA RESULT:      -5.9     27.519     31.083
REMARK  Name = 38026982
REMARK  13 active torsions:
REMARK  status: ('A' for Active; 'I' for Inactive)
REMARK    1  A    between atoms: S_1  and  N_6
REMARK    2  A    between atoms: S_1  and  C_24
REMARK    3  A    between atoms: N_6  and  C_16
REMARK    4  A    between atoms: N_7  and  C_22
REMARK    5  A    between atoms: N_8  and  C_23
REMARK    6  A    between atoms: C_9  and  C_13
REMARK    7  A    between atoms: C_10  and  C_16
REMARK    8  A    between atoms: C_12  and  C_17
REMARK    9  A    between atoms: C_13  and  C_18
REMARK   10  A    between atoms: C_13  and  C_19
REMARK   11  A    between atoms: C_14  and  C_20
REMARK   12  A    between atoms: C_17  and  C_21
REMARK   13  A    between atoms: C_22  and  C_23
REMARK                            x       y       z     vdW  Elec       q    Type
REMARK                         _______ _______ _______ _____ _____    ______ ____
ROOT
ATOM      9  C   UNL     1      -6.515 -11.113  17.794  0.00  0.00    +0.000 C 
ATOM     10  C   UNL     1      -5.713 -11.506  16.528  0.00  0.00    +0.030 C 
ATOM     11  C   UNL     1      -8.020 -11.084  17.486  0.00  0.00    +0.012 C 
ATOM     12  C   UNL     1      -8.366 -10.090  16.361  0.00  0.00    +0.023 C 
ATOM     14  C   UNL     1      -7.436 -10.238  15.174  0.00  0.00    -0.073 C 
ATOM     15  C   UNL     1      -6.260 -10.885  15.264  0.00  0.00    -0.023 C 
ATOM     20  C   UNL     1      -7.908  -9.663  13.868  0.00  0.00    +0.039 C 
ENDROOT
BRANCH   9  13
ATOM     13  C   UNL     1      -6.242 -12.068  18.960  0.00  0.00    -0.013 C 
ATOM     18  C   UNL     1      -5.554 -11.328  20.103  0.00  0.00    +0.007 C 
ATOM     19  C   UNL     1      -7.541 -12.711  19.436  0.00  0.00    +0.007 C 
ENDBRANCH   9  13
BRANCH  10  16
ATOM     16  C   UNL     1      -4.231 -11.138  16.677  0.00  0.00    +0.113 C 
BRANCH  16   6
ATOM      6  N   UNL     1      -3.798 -10.392  15.486  0.00  0.00    -0.189 NA
ATOM     34  H   UNL     1      -4.522  -9.869  14.977  0.00  0.00    +0.148 HD
BRANCH   6   1
ATOM      1  S   UNL     1      -2.424 -10.894  14.614  0.00  0.00    +0.058 S 
ATOM      3  O   UNL     1      -2.348 -12.343  14.631  0.00  0.00    -0.153 OA
ATOM      4  O   UNL     1      -1.282 -10.099  15.027  0.00  0.00    -0.153 OA
BRANCH   1  24
ATOM     24  C   UNL     1      -2.836 -10.389  12.971  0.00  0.00    +0.105 A 
ATOM     29  C   UNL     1      -1.828 -10.020  12.081  0.00  0.00    +0.028 A 
ATOM     30  C   UNL     1      -4.170 -10.356  12.565  0.00  0.00    +0.028 A 
ATOM     31  C   UNL     1      -2.153  -9.618  10.786  0.00  0.00    +0.002 A 
ATOM     32  C   UNL     1      -4.496  -9.954  11.270  0.00  0.00    +0.002 A 
ATOM     33  C   UNL     1      -3.487  -9.585  10.380  0.00  0.00    +0.000 A 
ENDBRANCH   1  24
ENDBRANCH   6   1
ENDBRANCH  16   6
ENDBRANCH  10  16
BRANCH  12  17
ATOM     17  C   UNL     1      -8.370  -8.648  16.878  0.00  0.00    +0.103 C 
BRANCH  17  21
ATOM      2  O   UNL     1     -10.652  -8.277  17.594  0.00  0.00    -0.276 OA
ATOM      7  N   UNL     1      -9.834  -7.136  15.742  0.00  0.00    -0.314 N 
ATOM     21  C   UNL     1      -9.746  -8.022  16.806  0.00  0.00    +0.214 C 
ATOM     35  H   UNL     1      -9.026  -6.988  15.144  0.00  0.00    +0.149 HD
BRANCH   7  22
ATOM     22  C   UNL     1     -11.034  -6.394  15.430  0.00  0.00    +0.119 C 
BRANCH  22  23
ATOM     23  C   UNL     1     -11.958  -7.197  14.527  0.00  0.00    +0.103 C 
BRANCH  23   8
ATOM      5  O   UNL     1     -14.289  -3.947  13.256  0.00  0.00    -0.377 OA
ATOM      8  N   UNL     1     -12.748  -6.301  13.684  0.00  0.00    -0.297 NA
ATOM     25  C   UNL     1     -14.120  -6.176  14.196  0.00  0.00    +0.112 C 
ATOM     26  C   UNL     1     -12.119  -4.975  13.601  0.00  0.00    +0.112 C 
ATOM     27  C   UNL     1     -14.920  -5.227  13.308  0.00  0.00    +0.175 C 
ATOM     28  C   UNL     1     -12.966  -4.054  12.728  0.00  0.00    +0.175 C 
ENDBRANCH  23   8
ENDBRANCH  22  23
ENDBRANCH   7  22
ENDBRANCH  17  21
ENDBRANCH  12  17
TORSDOF 10
ENDMDL
MODEL 7
REMARK VINA RESULT:      -5.8     28.554     31.243
REMARK  Name = 38026982
REMARK  13 active torsions:
REMARK  status: ('A' for Active; 'I' for Inactive)
REMARK    1  A    between atoms: S_1  and  N_6
REMARK    2  A    between atoms: S_1  and  C_24
REMARK    3  A    between atoms: N_6  and  C_16
REMARK    4  A    between atoms: N_7  and  C_22
REMARK    5  A    between atoms: N_8  and  C_23
REMARK    6  A    between atoms: C_9  and  C_13
REMARK    7  A    between atoms: C_10  and  C_16
REMARK    8  A    between atoms: C_12  and  C_17
REMARK    9  A    between atoms: C_13  and  C_18
REMARK   10  A    between atoms: C_13  and  C_19
REMARK   11  A    between atoms: C_14  and  C_20
REMARK   12  A    between atoms: C_17  and  C_21
REMARK   13  A    between atoms: C_22  and  C_23
REMARK                            x       y       z     vdW  Elec       q    Type
REMARK                         _______ _______ _______ _____ _____    ______ ____
ROOT
ATOM      9  C   UNL     1      -5.922 -11.274  14.797  0.00  0.00    +0.000 C 
ATOM     10  C   UNL     1      -4.562 -11.702  15.402  0.00  0.00    +0.030 C 
ATOM     11  C   UNL     1      -6.446 -10.010  15.497  0.00  0.00    +0.012 C 
ATOM     12  C   UNL     1      -6.628 -10.217  17.013  0.00  0.00    +0.023 C 
ATOM     14  C   UNL     1      -5.422 -10.887  17.639  0.00  0.00    -0.073 C 
ATOM     15  C   UNL     1      -4.502 -11.535  16.902  0.00  0.00    -0.023 C 
ATOM     20  C   UNL     1      -5.273 -10.757  19.129  0.00  0.00    +0.039 C 
ENDROOT
BRANCH   9  13
ATOM     13  C   UNL     1      -5.822 -11.028  13.288  0.00  0.00    -0.013 C 
ATOM     18  C   UNL     1      -6.783 -11.943  12.535  0.00  0.00    +0.007 C 
ATOM     19  C   UNL     1      -6.107  -9.563  12.968  0.00  0.00    +0.007 C 
ENDBRANCH   9  13
BRANCH  10  16
ATOM     16  C   UNL     1      -4.228 -13.154  15.037  0.00  0.00    +0.113 C 
BRANCH  16   6
ATOM      6  N   UNL     1      -2.770 -13.292  14.895  0.00  0.00    -0.189 NA
ATOM     34  H   UNL     1      -2.188 -12.687  15.486  0.00  0.00    +0.148 HD
BRANCH   6   1
ATOM      1  S   UNL     1      -2.101 -13.852  13.433  0.00  0.00    +0.058 S 
ATOM      3  O   UNL     1      -2.778 -15.071  13.032  0.00  0.00    -0.153 OA
ATOM      4  O   UNL     1      -0.653 -13.820  13.529  0.00  0.00    -0.153 OA
BRANCH   1  24
ATOM     24  C   UNL     1      -2.571 -12.572  12.308  0.00  0.00    +0.105 A 
ATOM     29  C   UNL     1      -3.376 -12.870  11.209  0.00  0.00    +0.028 A 
ATOM     30  C   UNL     1      -2.133 -11.264  12.517  0.00  0.00    +0.028 A 
ATOM     31  C   UNL     1      -3.744 -11.862  10.319  0.00  0.00    +0.002 A 
ATOM     32  C   UNL     1      -2.501 -10.255  11.627  0.00  0.00    +0.002 A 
ATOM     33  C   UNL     1      -3.306 -10.554  10.527  0.00  0.00    +0.000 A 
ENDBRANCH   1  24
ENDBRANCH   6   1
ENDBRANCH  16   6
ENDBRANCH  10  16
BRANCH  12  17
ATOM     17  C   UNL     1      -7.909 -11.002  17.313  0.00  0.00    +0.103 C 
BRANCH  17  21
ATOM      2  O   UNL     1     -10.082 -10.636  16.314  0.00  0.00    -0.276 OA
ATOM      7  N   UNL     1      -9.096  -8.940  17.559  0.00  0.00    -0.314 N 
ATOM     21  C   UNL     1      -9.154 -10.204  16.991  0.00  0.00    +0.214 C 
ATOM     35  H   UNL     1      -8.283  -8.673  18.109  0.00  0.00    +0.149 HD
BRANCH   7  22
ATOM     22  C   UNL     1     -10.148  -7.961  17.414  0.00  0.00    +0.119 C 
BRANCH  22  23
ATOM     23  C   UNL     1     -10.042  -7.232  16.083  0.00  0.00    +0.103 C 
BRANCH  23   8
ATOM      5  O   UNL     1     -13.057  -6.634  13.225  0.00  0.00    -0.377 OA
ATOM      8  N   UNL     1     -11.358  -7.132  15.453  0.00  0.00    -0.297 NA
ATOM     25  C   UNL     1     -11.598  -5.769  14.959  0.00  0.00    +0.112 C 
ATOM     26  C   UNL     1     -11.483  -8.097  14.351  0.00  0.00    +0.112 C 
ATOM     27  C   UNL     1     -12.970  -5.693  14.295  0.00  0.00    +0.175 C 
ATOM     28  C   UNL     1     -12.858  -7.966  13.701  0.00  0.00    +0.175 C 
ENDBRANCH  23   8
ENDBRANCH  22  23
ENDBRANCH   7  22
ENDBRANCH  17  21
ENDBRANCH  12  17
TORSDOF 10
ENDMDL
MODEL 8
REMARK VINA RESULT:      -5.7     16.095     19.071
REMARK  Name = 38026982
REMARK  13 active torsions:
REMARK  status: ('A' for Active; 'I' for Inactive)
REMARK    1  A    between atoms: S_1  and  N_6
REMARK    2  A    between atoms: S_1  and  C_24
REMARK    3  A    between atoms: N_6  and  C_16
REMARK    4  A    between atoms: N_7  and  C_22
REMARK    5  A    between atoms: N_8  and  C_23
REMARK    6  A    between atoms: C_9  and  C_13
REMARK    7  A    between atoms: C_10  and  C_16
REMARK    8  A    between atoms: C_12  and  C_17
REMARK    9  A    between atoms: C_13  and  C_18
REMARK   10  A    between atoms: C_13  and  C_19
REMARK   11  A    between atoms: C_14  and  C_20
REMARK   12  A    between atoms: C_17  and  C_21
REMARK   13  A    between atoms: C_22  and  C_23
REMARK                            x       y       z     vdW  Elec       q    Type
REMARK                         _______ _______ _______ _____ _____    ______ ____
ROOT
ATOM      9  C   UNL     1       8.972   8.414   3.251  0.00  0.00    +0.000 C 
ATOM     10  C   UNL     1       8.000   7.897   4.342  0.00  0.00    +0.030 C 
ATOM     11  C   UNL     1       9.488   7.247   2.397  0.00  0.00    +0.012 C 
ATOM     12  C   UNL     1      10.221   6.186   3.240  0.00  0.00    +0.023 C 
ATOM     14  C   UNL     1       9.439   5.819   4.486  0.00  0.00    -0.073 C 
ATOM     15  C   UNL     1       8.441   6.589   4.955  0.00  0.00    -0.023 C 
ATOM     20  C   UNL     1       9.800   4.521   5.154  0.00  0.00    +0.039 C 
ENDROOT
BRANCH   9  13
ATOM     13  C   UNL     1       8.312   9.464   2.352  0.00  0.00    -0.013 C 
ATOM     18  C   UNL     1       9.086  10.777   2.411  0.00  0.00    +0.007 C 
ATOM     19  C   UNL     1       8.221   8.953   0.917  0.00  0.00    +0.007 C 
ENDBRANCH   9  13
BRANCH  10  16
ATOM     16  C   UNL     1       7.807   8.940   5.449  0.00  0.00    +0.113 C 
BRANCH  16   6
ATOM      6  N   UNL     1       9.123   9.348   5.962  0.00  0.00    -0.189 NA
ATOM     34  H   UNL     1       9.872   9.475   5.269  0.00  0.00    +0.148 HD
BRANCH   6   1
ATOM      1  S   UNL     1       9.578   8.965   7.558  0.00  0.00    +0.058 S 
ATOM      3  O   UNL     1       8.666   7.969   8.089  0.00  0.00    -0.153 OA
ATOM      4  O   UNL     1       9.824  10.193   8.290  0.00  0.00    -0.153 OA
BRANCH   1  24
ATOM     24  C   UNL     1      11.146   8.189   7.309  0.00  0.00    +0.105 A 
ATOM     29  C   UNL     1      11.290   6.819   7.530  0.00  0.00    +0.028 A 
ATOM     30  C   UNL     1      12.241   8.947   6.894  0.00  0.00    +0.028 A 
ATOM     31  C   UNL     1      12.529   6.208   7.339  0.00  0.00    +0.002 A 
ATOM     32  C   UNL     1      13.480   8.335   6.702  0.00  0.00    +0.002 A 
ATOM     33  C   UNL     1      13.624   6.965   6.924  0.00  0.00    +0.000 A 
ENDBRANCH   1  24
ENDBRANCH   6   1
ENDBRANCH  16   6
ENDBRANCH  10  16
BRANCH  12  17
ATOM     17  C   UNL     1      11.638   6.645   3.598  0.00  0.00    +0.103 C 
BRANCH  17  21
ATOM      2  O   UNL     1      13.777   6.393   2.496  0.00  0.00    -0.276 OA
ATOM      7  N   UNL     1      12.267   4.627   2.481  0.00  0.00    -0.314 N 
ATOM     21  C   UNL     1      12.693   5.907   2.804  0.00  0.00    +0.214 C 
ATOM     35  H   UNL     1      11.349   4.311   2.784  0.00  0.00    +0.149 HD
BRANCH   7  22
ATOM     22  C   UNL     1      13.071   3.696   1.723  0.00  0.00    +0.119 C 
BRANCH  22  23
ATOM     23  C   UNL     1      12.741   3.764   0.240  0.00  0.00    +0.103 C 
BRANCH  23   8
ATOM      5  O   UNL     1      16.345   5.012  -1.512  0.00  0.00    -0.377 OA
ATOM      8  N   UNL     1      13.969   3.772  -0.553  0.00  0.00    -0.297 NA
ATOM     25  C   UNL     1      13.926   4.831  -1.571  0.00  0.00    +0.112 C 
ATOM     26  C   UNL     1      15.146   3.950   0.310  0.00  0.00    +0.112 C 
ATOM     27  C   UNL     1      15.223   4.828  -2.376  0.00  0.00    +0.175 C 
ATOM     28  C   UNL     1      16.414   3.969  -0.539  0.00  0.00    +0.175 C 
ENDBRANCH  23   8
ENDBRANCH  22  23
ENDBRANCH   7  22
ENDBRANCH  17  21
ENDBRANCH  12  17
TORSDOF 10
ENDMDL
MODEL 9
REMARK VINA RESULT:      -5.7     27.452     30.968
REMARK  Name = 38026982
REMARK  13 active torsions:
REMARK  status: ('A' for Active; 'I' for Inactive)
REMARK    1  A    between atoms: S_1  and  N_6
REMARK    2  A    between atoms: S_1  and  C_24
REMARK    3  A    between atoms: N_6  and  C_16
REMARK    4  A    between atoms: N_7  and  C_22
REMARK    5  A    between atoms: N_8  and  C_23
REMARK    6  A    between atoms: C_9  and  C_13
REMARK    7  A    between atoms: C_10  and  C_16
REMARK    8  A    between atoms: C_12  and  C_17
REMARK    9  A    between atoms: C_13  and  C_18
REMARK   10  A    between atoms: C_13  and  C_19
REMARK   11  A    between atoms: C_14  and  C_20
REMARK   12  A    between atoms: C_17  and  C_21
REMARK   13  A    between atoms: C_22  and  C_23
REMARK                            x       y       z     vdW  Elec       q    Type
REMARK                         _______ _______ _______ _____ _____    ______ ____
ROOT
ATOM      9  C   UNL     1     -14.057   7.461  20.911  0.00  0.00    +0.000 C 
ATOM     10  C   UNL     1     -14.995   7.706  19.702  0.00  0.00    +0.030 C 
ATOM     11  C   UNL     1     -13.911   5.956  21.179  0.00  0.00    +0.012 C 
ATOM     12  C   UNL     1     -15.266   5.281  21.468  0.00  0.00    +0.023 C 
ATOM     14  C   UNL     1     -16.324   5.689  20.462  0.00  0.00    -0.073 C 
ATOM     15  C   UNL     1     -16.180   6.768  19.672  0.00  0.00    -0.023 C 
ATOM     20  C   UNL     1     -17.533   4.802  20.353  0.00  0.00    +0.039 C 
ENDROOT
BRANCH   9  13
ATOM     13  C   UNL     1     -12.676   8.086  20.695  0.00  0.00    -0.013 C 
ATOM     18  C   UNL     1     -12.451   9.232  21.677  0.00  0.00    +0.007 C 
ATOM     19  C   UNL     1     -11.585   7.029  20.839  0.00  0.00    +0.007 C 
ENDBRANCH   9  13
BRANCH  10  16
ATOM     16  C   UNL     1     -15.491   9.157  19.672  0.00  0.00    +0.113 C 
BRANCH  16   6
ATOM      6  N   UNL     1     -15.142   9.760  18.377  0.00  0.00    -0.189 NA
ATOM     34  H   UNL     1     -15.207   9.153  17.551  0.00  0.00    +0.148 HD
BRANCH   6   1
ATOM      1  S   UNL     1     -14.068  11.079  18.308  0.00  0.00    +0.058 S 
ATOM      3  O   UNL     1     -14.003  11.713  19.612  0.00  0.00    -0.153 OA
ATOM      4  O   UNL     1     -14.362  11.870  17.128  0.00  0.00    -0.153 OA
BRANCH   1  24
ATOM     24  C   UNL     1     -12.523  10.272  18.017  0.00  0.00    +0.105 A 
ATOM     29  C   UNL     1     -11.344  10.817  18.524  0.00  0.00    +0.028 A 
ATOM     30  C   UNL     1     -12.483   9.090  17.277  0.00  0.00    +0.028 A 
ATOM     31  C   UNL     1     -10.124  10.183  18.291  0.00  0.00    +0.002 A 
ATOM     32  C   UNL     1     -11.263   8.455  17.044  0.00  0.00    +0.002 A 
ATOM     33  C   UNL     1     -10.083   9.001  17.551  0.00  0.00    +0.000 A 
ENDBRANCH   1  24
ENDBRANCH   6   1
ENDBRANCH  16   6
ENDBRANCH  10  16
BRANCH  12  17
ATOM     17  C   UNL     1     -15.732   5.565  22.899  0.00  0.00    +0.103 C 
BRANCH  17  21
ATOM      2  O   UNL     1     -16.023   3.181  23.195  0.00  0.00    -0.276 OA
ATOM      7  N   UNL     1     -15.941   4.564  25.061  0.00  0.00    -0.314 N 
ATOM     21  C   UNL     1     -15.914   4.295  23.700  0.00  0.00    +0.214 C 
ATOM     35  H   UNL     1     -15.839   5.522  25.385  0.00  0.00    +0.149 HD
BRANCH   7  22
ATOM     22  C   UNL     1     -16.105   3.538  26.065  0.00  0.00    +0.119 C 
BRANCH  22  23
ATOM     23  C   UNL     1     -16.751   4.099  27.323  0.00  0.00    +0.103 C 
BRANCH  23   8
ATOM      5  O   UNL     1     -15.000   1.274  29.886  0.00  0.00    -0.377 OA
ATOM      8  N   UNL     1     -16.534   3.194  28.451  0.00  0.00    -0.297 NA
ATOM     25  C   UNL     1     -16.417   1.804  27.989  0.00  0.00    +0.112 C 
ATOM     26  C   UNL     1     -15.332   3.578  29.204  0.00  0.00    +0.112 C 
ATOM     27  C   UNL     1     -16.178   0.881  29.182  0.00  0.00    +0.175 C 
ATOM     28  C   UNL     1     -15.119   2.613  30.367  0.00  0.00    +0.175 C 
ENDBRANCH  23   8
ENDBRANCH  22  23
ENDBRANCH   7  22
ENDBRANCH  17  21
ENDBRANCH  12  17
TORSDOF 10
ENDMDL
MODEL 10
REMARK VINA RESULT:      -5.7     27.487     30.509
REMARK  Name = 38026982
REMARK  13 active torsions:
REMARK  status: ('A' for Active; 'I' for Inactive)
REMARK    1  A    between atoms: S_1  and  N_6
REMARK    2  A    between atoms: S_1  and  C_24
REMARK    3  A    between atoms: N_6  and  C_16
REMARK    4  A    between atoms: N_7  and  C_22
REMARK    5  A    between atoms: N_8  and  C_23
REMARK    6  A    between atoms: C_9  and  C_13
REMARK    7  A    between atoms: C_10  and  C_16
REMARK    8  A    between atoms: C_12  and  C_17
REMARK    9  A    between atoms: C_13  and  C_18
REMARK   10  A    between atoms: C_13  and  C_19
REMARK   11  A    between atoms: C_14  and  C_20
REMARK   12  A    between atoms: C_17  and  C_21
REMARK   13  A    between atoms: C_22  and  C_23
REMARK                            x       y       z     vdW  Elec       q    Type
REMARK                         _______ _______ _______ _____ _____    ______ ____
ROOT
ATOM      9  C   UNL     1      -6.208 -10.519  15.961  0.00  0.00    +0.000 C 
ATOM     10  C   UNL     1      -6.845 -10.752  17.355  0.00  0.00    +0.030 C 
ATOM     11  C   UNL     1      -5.160 -11.603  15.664  0.00  0.00    +0.012 C 
ATOM     12  C   UNL     1      -4.035 -11.631  16.717  0.00  0.00    +0.023 C 
ATOM     14  C   UNL     1      -4.585 -11.591  18.128  0.00  0.00    -0.073 C 
ATOM     15  C   UNL     1      -5.846 -11.208  18.393  0.00  0.00    -0.023 C 
ATOM     20  C   UNL     1      -3.664 -12.044  19.226  0.00  0.00    +0.039 C 
ENDROOT
BRANCH   9  13
ATOM     13  C   UNL     1      -7.262 -10.497  14.851  0.00  0.00    -0.013 C 
ATOM     18  C   UNL     1      -6.663  -9.946  13.560  0.00  0.00    +0.007 C 
ATOM     19  C   UNL     1      -7.831 -11.896  14.629  0.00  0.00    +0.007 C 
ENDBRANCH   9  13
BRANCH  10  16
ATOM     16  C   UNL     1      -7.559  -9.490  17.853  0.00  0.00    +0.113 C 
BRANCH  16   6
ATOM      6  N   UNL     1      -8.948  -9.827  18.199  0.00  0.00    -0.189 NA
ATOM     34  H   UNL     1      -9.108 -10.746  18.631  0.00  0.00    +0.148 HD
BRANCH   6   1
ATOM      1  S   UNL     1     -10.241  -9.117  17.348  0.00  0.00    +0.058 S 
ATOM      3  O   UNL     1     -10.450  -9.837  16.106  0.00  0.00    -0.153 OA
ATOM      4  O   UNL     1     -10.067  -7.676  17.336  0.00  0.00    -0.153 OA
BRANCH   1  24
ATOM     24  C   UNL     1     -11.607  -9.462  18.415  0.00  0.00    +0.105 A 
ATOM     29  C   UNL     1     -12.912  -9.354  17.935  0.00  0.00    +0.028 A 
ATOM     30  C   UNL     1     -11.381  -9.839  19.739  0.00  0.00    +0.028 A 
ATOM     31  C   UNL     1     -13.990  -9.622  18.778  0.00  0.00    +0.002 A 
ATOM     32  C   UNL     1     -12.459 -10.107  20.582  0.00  0.00    +0.002 A 
ATOM     33  C   UNL     1     -13.765  -9.999  20.101  0.00  0.00    +0.000 A 
ENDBRANCH   1  24
ENDBRANCH   6   1
ENDBRANCH  16   6
ENDBRANCH  10  16
BRANCH  12  17
ATOM     17  C   UNL     1      -3.033 -10.495  16.485  0.00  0.00    +0.103 C 
BRANCH  17  21
ATOM      2  O   UNL     1      -1.064 -11.423  15.430  0.00  0.00    -0.276 OA
ATOM      7  N   UNL     1      -2.592 -10.229  14.150  0.00  0.00    -0.314 N 
ATOM     21  C   UNL     1      -2.106 -10.783  15.325  0.00  0.00    +0.214 C 
ATOM     35  H   UNL     1      -3.470  -9.716  14.162  0.00  0.00    +0.149 HD
BRANCH   7  22
ATOM     22  C   UNL     1      -1.910 -10.345  12.882  0.00  0.00    +0.119 C 
BRANCH  22  23
ATOM     23  C   UNL     1      -2.396 -11.560  12.104  0.00  0.00    +0.103 C 
BRANCH  23   8
ATOM      5  O   UNL     1      -5.168  -9.633   9.611  0.00  0.00    -0.377 OA
ATOM      8  N   UNL     1      -3.135 -11.139  10.915  0.00  0.00    -0.297 NA
ATOM     25  C   UNL     1      -4.554 -11.505  11.026  0.00  0.00    +0.112 C 
ATOM     26  C   UNL     1      -3.004  -9.690  10.706  0.00  0.00    +0.112 C 
ATOM     27  C   UNL     1      -5.306 -11.044   9.781  0.00  0.00    +0.175 C 
ATOM     28  C   UNL     1      -3.793  -9.271   9.469  0.00  0.00    +0.175 C 
ENDBRANCH  23   8
ENDBRANCH  22  23
ENDBRANCH   7  22
ENDBRANCH  17  21
ENDBRANCH  12  17
TORSDOF 10
ENDMDL
