MODEL 1
REMARK VINA RESULT:      -6.7      0.000      0.000
REMARK  Name = 11884337
REMARK  5 active torsions:
REMARK  status: ('A' for Active; 'I' for Inactive)
REMARK    1  A    between atoms: O_3  and  C_10
REMARK    2  A    between atoms: O_5  and  C_19
REMARK    3  A    between atoms: O_5  and  C_20
REMARK    4  A    between atoms: N_6  and  C_9
REMARK    5  A    between atoms: C_13  and  C_14
REMARK                            x       y       z     vdW  Elec       q    Type
REMARK                         _______ _______ _______ _____ _____    ______ ____
ROOT
ATOM      4  O   UNL     1      16.150   9.394  21.225  0.00  0.00    -0.270 OA
ATOM      6  N   UNL     1      14.702   7.887  20.220  0.00  0.00    -0.304 N 
ATOM     13  C   UNL     1      15.935   8.305  20.702  0.00  0.00    +0.244 C 
ATOM     21  H   UNL     1      14.622   7.019  19.700  0.00  0.00    +0.149 HD
ENDROOT
BRANCH   6   9
ATOM      1  O   UNL     1      11.653   7.232  20.157  0.00  0.00    -0.369 OA
ATOM      2  O   UNL     1      11.961   9.764  21.840  0.00  0.00    -0.369 OA
ATOM      7  C   UNL     1      12.844   8.637  21.648  0.00  0.00    +0.172 C 
ATOM      8  C   UNL     1      11.965   7.406  21.551  0.00  0.00    +0.179 C 
ATOM      9  C   UNL     1      13.506   8.726  20.289  0.00  0.00    +0.130 C 
ATOM     10  C   UNL     1      10.749   7.810  22.348  0.00  0.00    +0.171 C 
ATOM     11  C   UNL     1      12.425   8.161  19.380  0.00  0.00    +0.185 C 
ATOM     12  C   UNL     1      10.621   9.280  22.012  0.00  0.00    +0.194 C 
BRANCH  10   3
ATOM      3  O   UNL     1       9.588   7.086  22.009  0.00  0.00    -0.387 OA
ATOM     22  H   UNL     1       9.200   6.738  22.830  0.00  0.00    +0.210 HD
ENDBRANCH  10   3
ENDBRANCH   6   9
BRANCH  13  14
ATOM     14  C   UNL     1      17.058   7.346  20.534  0.00  0.00    +0.037 A 
ATOM     15  C   UNL     1      18.150   7.447  21.371  0.00  0.00    +0.016 A 
ATOM     16  C   UNL     1      16.973   6.386  19.548  0.00  0.00    +0.016 A 
ATOM     17  C   UNL     1      19.205   6.548  21.213  0.00  0.00    +0.046 A 
ATOM     18  C   UNL     1      18.027   5.486  19.389  0.00  0.00    +0.046 A 
ATOM     19  C   UNL     1      19.143   5.568  20.222  0.00  0.00    +0.120 A 
BRANCH  19   5
ATOM      5  O   UNL     1      20.173   4.691  20.068  0.00  0.00    -0.495 OA
ATOM     20  C   UNL     1      21.461   5.120  20.503  0.00  0.00    +0.277 C 
ENDBRANCH  19   5
ENDBRANCH  13  14
TORSDOF 4
ENDMDL
MODEL 2
REMARK VINA RESULT:      -6.5      2.481      3.749
REMARK  Name = 11884337
REMARK  5 active torsions:
REMARK  status: ('A' for Active; 'I' for Inactive)
REMARK    1  A    between atoms: O_3  and  C_10
REMARK    2  A    between atoms: O_5  and  C_19
REMARK    3  A    between atoms: O_5  and  C_20
REMARK    4  A    between atoms: N_6  and  C_9
REMARK    5  A    between atoms: C_13  and  C_14
REMARK                            x       y       z     vdW  Elec       q    Type
REMARK                         _______ _______ _______ _____ _____    ______ ____
ROOT
ATOM      4  O   UNL     1      14.465   7.875  21.415  0.00  0.00    -0.270 OA
ATOM      6  N   UNL     1      14.601   7.866  19.099  0.00  0.00    -0.304 N 
ATOM     13  C   UNL     1      15.106   7.699  20.382  0.00  0.00    +0.244 C 
ATOM     21  H   UNL     1      15.218   7.811  18.295  0.00  0.00    +0.149 HD
ENDROOT
BRANCH   6   9
ATOM      1  O   UNL     1      13.367  10.176  17.406  0.00  0.00    -0.369 OA
ATOM      2  O   UNL     1      11.329   7.899  17.382  0.00  0.00    -0.369 OA
ATOM      7  C   UNL     1      12.772   7.883  17.455  0.00  0.00    +0.172 C 
ATOM      8  C   UNL     1      13.266   9.009  16.569  0.00  0.00    +0.179 C 
ATOM      9  C   UNL     1      13.223   8.281  18.845  0.00  0.00    +0.130 C 
ATOM     10  C   UNL     1      12.152   9.143  15.559  0.00  0.00    +0.171 C 
ATOM     11  C   UNL     1      13.144   9.799  18.773  0.00  0.00    +0.185 C 
ATOM     12  C   UNL     1      10.925   8.864  16.400  0.00  0.00    +0.194 C 
BRANCH  10   3
ATOM      3  O   UNL     1      12.098  10.410  14.946  0.00  0.00    -0.387 OA
ATOM     22  H   UNL     1      12.302  11.080  15.621  0.00  0.00    +0.210 HD
ENDBRANCH  10   3
ENDBRANCH   6   9
BRANCH  13  14
ATOM     14  C   UNL     1      16.533   7.299  20.473  0.00  0.00    +0.037 A 
ATOM     15  C   UNL     1      16.985   6.258  19.688  0.00  0.00    +0.016 A 
ATOM     16  C   UNL     1      17.362   7.980  21.341  0.00  0.00    +0.016 A 
ATOM     17  C   UNL     1      18.326   5.882  19.774  0.00  0.00    +0.046 A 
ATOM     18  C   UNL     1      18.703   7.603  21.427  0.00  0.00    +0.046 A 
ATOM     19  C   UNL     1      19.184   6.555  20.643  0.00  0.00    +0.120 A 
BRANCH  19   5
ATOM      5  O   UNL     1      20.492   6.187  20.728  0.00  0.00    -0.495 OA
ATOM     20  C   UNL     1      20.798   4.817  20.476  0.00  0.00    +0.277 C 
ENDBRANCH  19   5
ENDBRANCH  13  14
TORSDOF 4
ENDMDL
MODEL 3
REMARK VINA RESULT:      -6.1      2.436      3.681
REMARK  Name = 11884337
REMARK  5 active torsions:
REMARK  status: ('A' for Active; 'I' for Inactive)
REMARK    1  A    between atoms: O_3  and  C_10
REMARK    2  A    between atoms: O_5  and  C_19
REMARK    3  A    between atoms: O_5  and  C_20
REMARK    4  A    between atoms: N_6  and  C_9
REMARK    5  A    between atoms: C_13  and  C_14
REMARK                            x       y       z     vdW  Elec       q    Type
REMARK                         _______ _______ _______ _____ _____    ______ ____
ROOT
ATOM      4  O   UNL     1      16.577   5.511  18.429  0.00  0.00    -0.270 OA
ATOM      6  N   UNL     1      15.718   7.104  19.879  0.00  0.00    -0.304 N 
ATOM     13  C   UNL     1      16.698   6.240  19.409  0.00  0.00    +0.244 C 
ATOM     21  H   UNL     1      15.845   7.594  20.758  0.00  0.00    +0.149 HD
ENDROOT
BRANCH   6   9
ATOM      1  O   UNL     1      13.799   9.526  19.457  0.00  0.00    -0.369 OA
ATOM      2  O   UNL     1      13.337   7.634  17.102  0.00  0.00    -0.369 OA
ATOM      7  C   UNL     1      14.520   7.906  17.886  0.00  0.00    +0.172 C 
ATOM      8  C   UNL     1      14.499   9.387  18.208  0.00  0.00    +0.179 C 
ATOM      9  C   UNL     1      14.410   7.233  19.237  0.00  0.00    +0.130 C 
ATOM     10  C   UNL     1      13.706   9.960  17.058  0.00  0.00    +0.171 C 
ATOM     11  C   UNL     1      13.551   8.224  20.008  0.00  0.00    +0.185 C 
ATOM     12  C   UNL     1      12.681   8.876  16.807  0.00  0.00    +0.194 C 
BRANCH  10   3
ATOM      3  O   UNL     1      13.105  11.200  17.352  0.00  0.00    -0.387 OA
ATOM     22  H   UNL     1      12.186  11.033  17.624  0.00  0.00    +0.210 HD
ENDBRANCH  10   3
ENDBRANCH   6   9
BRANCH  13  14
ATOM     14  C   UNL     1      17.963   6.206  20.188  0.00  0.00    +0.037 A 
ATOM     15  C   UNL     1      18.102   7.052  21.269  0.00  0.00    +0.016 A 
ATOM     16  C   UNL     1      18.958   5.331  19.804  0.00  0.00    +0.016 A 
ATOM     17  C   UNL     1      19.290   7.021  21.999  0.00  0.00    +0.046 A 
ATOM     18  C   UNL     1      20.146   5.300  20.535  0.00  0.00    +0.046 A 
ATOM     19  C   UNL     1      20.312   6.145  21.632  0.00  0.00    +0.120 A 
BRANCH  19   5
ATOM      5  O   UNL     1      21.472   6.115  22.344  0.00  0.00    -0.495 OA
ATOM     20  C   UNL     1      22.022   4.832  22.635  0.00  0.00    +0.277 C 
ENDBRANCH  19   5
ENDBRANCH  13  14
TORSDOF 4
ENDMDL
MODEL 4
REMARK VINA RESULT:      -6.0     16.514     18.730
REMARK  Name = 11884337
REMARK  5 active torsions:
REMARK  status: ('A' for Active; 'I' for Inactive)
REMARK    1  A    between atoms: O_3  and  C_10
REMARK    2  A    between atoms: O_5  and  C_19
REMARK    3  A    between atoms: O_5  and  C_20
REMARK    4  A    between atoms: N_6  and  C_9
REMARK    5  A    between atoms: C_13  and  C_14
REMARK                            x       y       z     vdW  Elec       q    Type
REMARK                         _______ _______ _______ _____ _____    ______ ____
ROOT
ATOM      4  O   UNL     1      10.101   6.436   3.069  0.00  0.00    -0.270 OA
ATOM      6  N   UNL     1      11.971   5.066   3.148  0.00  0.00    -0.304 N 
ATOM     13  C   UNL     1      10.905   5.760   3.704  0.00  0.00    +0.244 C 
ATOM     21  H   UNL     1      12.660   4.620   3.744  0.00  0.00    +0.149 HD
ENDROOT
BRANCH   6   9
ATOM      1  O   UNL     1      14.439   5.988   1.478  0.00  0.00    -0.369 OA
ATOM      2  O   UNL     1      13.129   3.716  -0.092  0.00  0.00    -0.369 OA
ATOM      7  C   UNL     1      13.210   3.968   1.328  0.00  0.00    +0.172 C 
ATOM      8  C   UNL     1      14.580   4.560   1.590  0.00  0.00    +0.179 C 
ATOM      9  C   UNL     1      12.250   5.074   1.712  0.00  0.00    +0.130 C 
ATOM     10  C   UNL     1      15.402   3.991   0.459  0.00  0.00    +0.171 C 
ATOM     11  C   UNL     1      13.047   6.317   1.346  0.00  0.00    +0.185 C 
ATOM     12  C   UNL     1      14.410   3.981  -0.683  0.00  0.00    +0.194 C 
BRANCH  10   3
ATOM      3  O   UNL     1      16.548   4.754   0.158  0.00  0.00    -0.387 OA
ATOM     22  H   UNL     1      16.396   5.205  -0.690  0.00  0.00    +0.210 HD
ENDBRANCH  10   3
ENDBRANCH   6   9
BRANCH  13  14
ATOM     14  C   UNL     1      10.772   5.673   5.181  0.00  0.00    +0.037 A 
ATOM     15  C   UNL     1       9.854   4.793   5.717  0.00  0.00    +0.016 A 
ATOM     16  C   UNL     1      11.570   6.475   5.970  0.00  0.00    +0.016 A 
ATOM     17  C   UNL     1       9.729   4.713   7.104  0.00  0.00    +0.046 A 
ATOM     18  C   UNL     1      11.445   6.395   7.358  0.00  0.00    +0.046 A 
ATOM     19  C   UNL     1      10.524   5.513   7.924  0.00  0.00    +0.120 A 
BRANCH  19   5
ATOM      5  O   UNL     1      10.401   5.435   9.278  0.00  0.00    -0.495 OA
ATOM     20  C   UNL     1       9.274   4.724   9.786  0.00  0.00    +0.277 C 
ENDBRANCH  19   5
ENDBRANCH  13  14
TORSDOF 4
ENDMDL
MODEL 5
REMARK VINA RESULT:      -6.0      1.733      2.225
REMARK  Name = 11884337
REMARK  5 active torsions:
REMARK  status: ('A' for Active; 'I' for Inactive)
REMARK    1  A    between atoms: O_3  and  C_10
REMARK    2  A    between atoms: O_5  and  C_19
REMARK    3  A    between atoms: O_5  and  C_20
REMARK    4  A    between atoms: N_6  and  C_9
REMARK    5  A    between atoms: C_13  and  C_14
REMARK                            x       y       z     vdW  Elec       q    Type
REMARK                         _______ _______ _______ _____ _____    ______ ____
ROOT
ATOM      4  O   UNL     1      16.158   5.958  18.763  0.00  0.00    -0.270 OA
ATOM      6  N   UNL     1      15.778   7.593  20.365  0.00  0.00    -0.304 N 
ATOM     13  C   UNL     1      16.540   6.628  19.719  0.00  0.00    +0.244 C 
ATOM     21  H   UNL     1      16.117   8.028  21.216  0.00  0.00    +0.149 HD
ENDROOT
BRANCH   6   9
ATOM      1  O   UNL     1      13.026   7.307  21.803  0.00  0.00    -0.369 OA
ATOM      2  O   UNL     1      12.777   9.704  19.924  0.00  0.00    -0.369 OA
ATOM      7  C   UNL     1      13.912   9.172  20.641  0.00  0.00    +0.172 C 
ATOM      8  C   UNL     1      13.394   8.687  21.980  0.00  0.00    +0.179 C 
ATOM      9  C   UNL     1      14.411   7.915  19.960  0.00  0.00    +0.130 C 
ATOM     10  C   UNL     1      12.184   9.562  22.199  0.00  0.00    +0.171 C 
ATOM     11  C   UNL     1      13.450   6.867  20.504  0.00  0.00    +0.185 C 
ATOM     12  C   UNL     1      11.637   9.705  20.795  0.00  0.00    +0.194 C 
BRANCH  10   3
ATOM      3  O   UNL     1      11.239   9.005  23.082  0.00  0.00    -0.387 OA
ATOM     22  H   UNL     1      11.556   9.145  23.991  0.00  0.00    +0.210 HD
ENDBRANCH  10   3
ENDBRANCH   6   9
BRANCH  13  14
ATOM     14  C   UNL     1      17.902   6.400  20.267  0.00  0.00    +0.037 A 
ATOM     15  C   UNL     1      18.671   5.385  19.737  0.00  0.00    +0.016 A 
ATOM     16  C   UNL     1      18.354   7.210  21.288  0.00  0.00    +0.016 A 
ATOM     17  C   UNL     1      19.950   5.170  20.253  0.00  0.00    +0.046 A 
ATOM     18  C   UNL     1      19.633   6.996  21.803  0.00  0.00    +0.046 A 
ATOM     19  C   UNL     1      20.431   5.976  21.285  0.00  0.00    +0.120 A 
BRANCH  19   5
ATOM      5  O   UNL     1      21.678   5.766  21.788  0.00  0.00    -0.495 OA
ATOM     20  C   UNL     1      22.673   5.296  20.881  0.00  0.00    +0.277 C 
ENDBRANCH  19   5
ENDBRANCH  13  14
TORSDOF 4
ENDMDL
MODEL 6
REMARK VINA RESULT:      -5.8      1.925      2.953
REMARK  Name = 11884337
REMARK  5 active torsions:
REMARK  status: ('A' for Active; 'I' for Inactive)
REMARK    1  A    between atoms: O_3  and  C_10
REMARK    2  A    between atoms: O_5  and  C_19
REMARK    3  A    between atoms: O_5  and  C_20
REMARK    4  A    between atoms: N_6  and  C_9
REMARK    5  A    between atoms: C_13  and  C_14
REMARK                            x       y       z     vdW  Elec       q    Type
REMARK                         _______ _______ _______ _____ _____    ______ ____
ROOT
ATOM      4  O   UNL     1      18.217   9.016  21.880  0.00  0.00    -0.270 OA
ATOM      6  N   UNL     1      16.790   7.285  21.289  0.00  0.00    -0.304 N 
ATOM     13  C   UNL     1      18.022   7.831  21.620  0.00  0.00    +0.244 C 
ATOM     21  H   UNL     1      16.723   6.322  20.979  0.00  0.00    +0.149 HD
ENDROOT
BRANCH   6   9
ATOM      1  O   UNL     1      14.726   7.783  19.005  0.00  0.00    -0.369 OA
ATOM      2  O   UNL     1      13.184   8.020  21.632  0.00  0.00    -0.369 OA
ATOM      7  C   UNL     1      14.331   7.219  21.271  0.00  0.00    +0.172 C 
ATOM      8  C   UNL     1      14.121   6.777  19.837  0.00  0.00    +0.179 C 
ATOM      9  C   UNL     1      15.569   8.087  21.213  0.00  0.00    +0.130 C 
ATOM     10  C   UNL     1      12.616   6.782  19.711  0.00  0.00    +0.171 C 
ATOM     11  C   UNL     1      15.446   8.711  19.830  0.00  0.00    +0.185 C 
ATOM     12  C   UNL     1      12.229   7.971  20.562  0.00  0.00    +0.194 C 
BRANCH  10   3
ATOM      3  O   UNL     1      12.163   6.910  18.383  0.00  0.00    -0.387 OA
ATOM     22  H   UNL     1      11.678   6.100  18.151  0.00  0.00    +0.210 HD
ENDBRANCH  10   3
ENDBRANCH   6   9
BRANCH  13  14
ATOM     14  C   UNL     1      19.170   6.889  21.629  0.00  0.00    +0.037 A 
ATOM     15  C   UNL     1      19.362   6.062  20.542  0.00  0.00    +0.016 A 
ATOM     16  C   UNL     1      20.008   6.870  22.725  0.00  0.00    +0.016 A 
ATOM     17  C   UNL     1      20.440   5.176  20.551  0.00  0.00    +0.046 A 
ATOM     18  C   UNL     1      21.086   5.983  22.734  0.00  0.00    +0.046 A 
ATOM     19  C   UNL     1      21.301   5.137  21.647  0.00  0.00    +0.120 A 
BRANCH  19   5
ATOM      5  O   UNL     1      22.352   4.271  21.656  0.00  0.00    -0.495 OA
ATOM     20  C   UNL     1      22.399   3.319  22.717  0.00  0.00    +0.277 C 
ENDBRANCH  19   5
ENDBRANCH  13  14
TORSDOF 4
ENDMDL
MODEL 7
REMARK VINA RESULT:      -5.7     29.135     31.691
REMARK  Name = 11884337
REMARK  5 active torsions:
REMARK  status: ('A' for Active; 'I' for Inactive)
REMARK    1  A    between atoms: O_3  and  C_10
REMARK    2  A    between atoms: O_5  and  C_19
REMARK    3  A    between atoms: O_5  and  C_20
REMARK    4  A    between atoms: N_6  and  C_9
REMARK    5  A    between atoms: C_13  and  C_14
REMARK                            x       y       z     vdW  Elec       q    Type
REMARK                         _______ _______ _______ _____ _____    ______ ____
ROOT
ATOM      4  O   UNL     1       1.837   0.398  -5.383  0.00  0.00    -0.270 OA
ATOM      6  N   UNL     1       1.044   2.546  -5.761  0.00  0.00    -0.304 N 
ATOM     13  C   UNL     1       0.960   1.160  -5.782  0.00  0.00    +0.244 C 
ATOM     21  H   UNL     1       0.329   3.110  -6.208  0.00  0.00    +0.149 HD
ENDROOT
BRANCH   6   9
ATOM      1  O   UNL     1       2.718   4.935  -6.864  0.00  0.00    -0.369 OA
ATOM      2  O   UNL     1       2.896   5.085  -3.817  0.00  0.00    -0.369 OA
ATOM      7  C   UNL     1       1.845   4.608  -4.686  0.00  0.00    +0.172 C 
ATOM      8  C   UNL     1       1.830   5.521  -5.895  0.00  0.00    +0.179 C 
ATOM      9  C   UNL     1       2.217   3.254  -5.250  0.00  0.00    +0.130 C 
ATOM     10  C   UNL     1       2.386   6.810  -5.338  0.00  0.00    +0.171 C 
ATOM     11  C   UNL     1       3.132   3.639  -6.403  0.00  0.00    +0.185 C 
ATOM     12  C   UNL     1       3.419   6.311  -4.351  0.00  0.00    +0.194 C 
BRANCH  10   3
ATOM      3  O   UNL     1       2.952   7.648  -6.319  0.00  0.00    -0.387 OA
ATOM     22  H   UNL     1       2.299   7.763  -7.030  0.00  0.00    +0.210 HD
ENDBRANCH  10   3
ENDBRANCH   6   9
BRANCH  13  14
ATOM     14  C   UNL     1      -0.288   0.593  -6.356  0.00  0.00    +0.037 A 
ATOM     15  C   UNL     1      -0.986   1.330  -7.290  0.00  0.00    +0.016 A 
ATOM     16  C   UNL     1      -0.709  -0.652  -5.937  0.00  0.00    +0.016 A 
ATOM     17  C   UNL     1      -2.158   0.798  -7.828  0.00  0.00    +0.046 A 
ATOM     18  C   UNL     1      -1.881  -1.184  -6.475  0.00  0.00    +0.046 A 
ATOM     19  C   UNL     1      -2.605  -0.459  -7.421  0.00  0.00    +0.120 A 
BRANCH  19   5
ATOM      5  O   UNL     1      -3.749  -0.977  -7.946  0.00  0.00    -0.495 OA
ATOM     20  C   UNL     1      -4.941  -0.210  -7.787  0.00  0.00    +0.277 C 
ENDBRANCH  19   5
ENDBRANCH  13  14
TORSDOF 4
ENDMDL
MODEL 8
REMARK VINA RESULT:      -5.6     16.555     18.847
REMARK  Name = 11884337
REMARK  5 active torsions:
REMARK  status: ('A' for Active; 'I' for Inactive)
REMARK    1  A    between atoms: O_3  and  C_10
REMARK    2  A    between atoms: O_5  and  C_19
REMARK    3  A    between atoms: O_5  and  C_20
REMARK    4  A    between atoms: N_6  and  C_9
REMARK    5  A    between atoms: C_13  and  C_14
REMARK                            x       y       z     vdW  Elec       q    Type
REMARK                         _______ _______ _______ _____ _____    ______ ____
ROOT
ATOM      4  O   UNL     1       8.810   7.262   3.373  0.00  0.00    -0.270 OA
ATOM      6  N   UNL     1      10.256   5.451   3.274  0.00  0.00    -0.304 N 
ATOM     13  C   UNL     1       9.436   6.362   3.926  0.00  0.00    +0.244 C 
ATOM     21  H   UNL     1      10.829   4.805   3.806  0.00  0.00    +0.149 HD
ENDROOT
BRANCH   6   9
ATOM      1  O   UNL     1      12.820   5.429   1.499  0.00  0.00    -0.369 OA
ATOM      2  O   UNL     1      10.632   4.043  -0.123  0.00  0.00    -0.369 OA
ATOM      7  C   UNL     1      10.862   4.110   1.302  0.00  0.00    +0.172 C 
ATOM      8  C   UNL     1      12.362   4.064   1.505  0.00  0.00    +0.179 C 
ATOM      9  C   UNL     1      10.460   5.473   1.826  0.00  0.00    +0.130 C 
ATOM     10  C   UNL     1      12.834   3.314   0.283  0.00  0.00    +0.171 C 
ATOM     11  C   UNL     1      11.685   6.308   1.489  0.00  0.00    +0.185 C 
ATOM     12  C   UNL     1      11.885   3.813  -0.784  0.00  0.00    +0.194 C 
BRANCH  10   3
ATOM      3  O   UNL     1      14.181   3.565  -0.046  0.00  0.00    -0.387 OA
ATOM     22  H   UNL     1      14.408   4.456   0.270  0.00  0.00    +0.210 HD
ENDBRANCH  10   3
ENDBRANCH   6   9
BRANCH  13  14
ATOM     14  C   UNL     1       9.354   6.223   5.403  0.00  0.00    +0.037 A 
ATOM     15  C   UNL     1       8.812   7.255   6.140  0.00  0.00    +0.016 A 
ATOM     16  C   UNL     1       9.823   5.066   5.990  0.00  0.00    +0.016 A 
ATOM     17  C   UNL     1       8.736   7.125   7.527  0.00  0.00    +0.046 A 
ATOM     18  C   UNL     1       9.747   4.936   7.377  0.00  0.00    +0.046 A 
ATOM     19  C   UNL     1       9.203   5.965   8.145  0.00  0.00    +0.120 A 
BRANCH  19   5
ATOM      5  O   UNL     1       9.130   5.839   9.499  0.00  0.00    -0.495 OA
ATOM     20  C   UNL     1       9.107   4.514  10.026  0.00  0.00    +0.277 C 
ENDBRANCH  19   5
ENDBRANCH  13  14
TORSDOF 4
ENDMDL
MODEL 9
REMARK VINA RESULT:      -5.6     26.771     28.362
REMARK  Name = 11884337
REMARK  5 active torsions:
REMARK  status: ('A' for Active; 'I' for Inactive)
REMARK    1  A    between atoms: O_3  and  C_10
REMARK    2  A    between atoms: O_5  and  C_19
REMARK    3  A    between atoms: O_5  and  C_20
REMARK    4  A    between atoms: N_6  and  C_9
REMARK    5  A    between atoms: C_13  and  C_14
REMARK                            x       y       z     vdW  Elec       q    Type
REMARK                         _______ _______ _______ _____ _____    ______ ____
ROOT
ATOM      4  O   UNL     1     -13.622   9.796  18.550  0.00  0.00    -0.270 OA
ATOM      6  N   UNL     1     -12.502   8.240  17.245  0.00  0.00    -0.304 N 
ATOM     13  C   UNL     1     -13.130   8.681  18.402  0.00  0.00    +0.244 C 
ATOM     21  H   UNL     1     -12.021   7.347  17.232  0.00  0.00    +0.149 HD
ENDROOT
BRANCH   6   9
ATOM      1  O   UNL     1     -10.153   8.693  15.244  0.00  0.00    -0.369 OA
ATOM      2  O   UNL     1     -12.732   9.128  13.665  0.00  0.00    -0.369 OA
ATOM      7  C   UNL     1     -12.437   8.266  14.786  0.00  0.00    +0.172 C 
ATOM      8  C   UNL     1     -11.024   7.757  14.585  0.00  0.00    +0.179 C 
ATOM      9  C   UNL     1     -12.359   9.083  16.058  0.00  0.00    +0.130 C 
ATOM     10  C   UNL     1     -10.868   7.812  13.085  0.00  0.00    +0.171 C 
ATOM     11  C   UNL     1     -10.943   9.636  15.984  0.00  0.00    +0.185 C 
ATOM     12  C   UNL     1     -11.647   9.058  12.728  0.00  0.00    +0.194 C 
BRANCH  10   3
ATOM      3  O   UNL     1      -9.526   7.886  12.662  0.00  0.00    -0.387 OA
ATOM     22  H   UNL     1      -9.269   7.013  12.318  0.00  0.00    +0.210 HD
ENDBRANCH  10   3
ENDBRANCH   6   9
BRANCH  13  14
ATOM     14  C   UNL     1     -13.171   7.714  19.529  0.00  0.00    +0.037 A 
ATOM     15  C   UNL     1     -11.983   7.212  20.019  0.00  0.00    +0.016 A 
ATOM     16  C   UNL     1     -14.395   7.349  20.049  0.00  0.00    +0.016 A 
ATOM     17  C   UNL     1     -12.022   6.303  21.077  0.00  0.00    +0.046 A 
ATOM     18  C   UNL     1     -14.434   6.440  21.107  0.00  0.00    +0.046 A 
ATOM     19  C   UNL     1     -13.247   5.917  21.621  0.00  0.00    +0.120 A 
BRANCH  19   5
ATOM      5  O   UNL     1     -13.285   5.029  22.652  0.00  0.00    -0.495 OA
ATOM     20  C   UNL     1     -14.434   5.063  23.495  0.00  0.00    +0.277 C 
ENDBRANCH  19   5
ENDBRANCH  13  14
TORSDOF 4
ENDMDL
MODEL 10
REMARK VINA RESULT:      -5.5      3.051      9.169
REMARK  Name = 11884337
REMARK  5 active torsions:
REMARK  status: ('A' for Active; 'I' for Inactive)
REMARK    1  A    between atoms: O_3  and  C_10
REMARK    2  A    between atoms: O_5  and  C_19
REMARK    3  A    between atoms: O_5  and  C_20
REMARK    4  A    between atoms: N_6  and  C_9
REMARK    5  A    between atoms: C_13  and  C_14
REMARK                            x       y       z     vdW  Elec       q    Type
REMARK                         _______ _______ _______ _____ _____    ______ ____
ROOT
ATOM      4  O   UNL     1      20.814   7.697  20.823  0.00  0.00    -0.270 OA
ATOM      6  N   UNL     1      20.717   5.417  21.237  0.00  0.00    -0.304 N 
ATOM     13  C   UNL     1      20.185   6.644  20.863  0.00  0.00    +0.244 C 
ATOM     21  H   UNL     1      20.112   4.611  21.354  0.00  0.00    +0.149 HD
ENDROOT
BRANCH   6   9
ATOM      1  O   UNL     1      22.302   3.029  22.466  0.00  0.00    -0.369 OA
ATOM      2  O   UNL     1      24.299   4.624  20.790  0.00  0.00    -0.369 OA
ATOM      7  C   UNL     1      22.879   4.412  20.631  0.00  0.00    +0.172 C 
ATOM      8  C   UNL     1      22.600   2.986  21.058  0.00  0.00    +0.179 C 
ATOM      9  C   UNL     1      22.115   5.254  21.631  0.00  0.00    +0.130 C 
ATOM     10  C   UNL     1      23.918   2.300  20.789  0.00  0.00    +0.171 C 
ATOM     11  C   UNL     1      22.203   4.398  22.886  0.00  0.00    +0.185 C 
ATOM     12  C   UNL     1      24.917   3.379  21.146  0.00  0.00    +0.194 C 
BRANCH  10   3
ATOM      3  O   UNL     1      24.108   1.129  21.548  0.00  0.00    -0.387 OA
ATOM     22  H   UNL     1      25.062   0.938  21.574  0.00  0.00    +0.210 HD
ENDBRANCH  10   3
ENDBRANCH   6   9
BRANCH  13  14
ATOM     14  C   UNL     1      18.740   6.648  20.516  0.00  0.00    +0.037 A 
ATOM     15  C   UNL     1      17.889   7.473  21.220  0.00  0.00    +0.016 A 
ATOM     16  C   UNL     1      18.297   5.826  19.500  0.00  0.00    +0.016 A 
ATOM     17  C   UNL     1      16.532   7.477  20.894  0.00  0.00    +0.046 A 
ATOM     18  C   UNL     1      16.940   5.829  19.174  0.00  0.00    +0.046 A 
ATOM     19  C   UNL     1      16.058   6.655  19.871  0.00  0.00    +0.120 A 
BRANCH  19   5
ATOM      5  O   UNL     1      14.734   6.657  19.554  0.00  0.00    -0.495 OA
ATOM     20  C   UNL     1      13.813   6.899  20.616  0.00  0.00    +0.277 C 
ENDBRANCH  19   5
ENDBRANCH  13  14
TORSDOF 4
ENDMDL
