MODEL 1
REMARK VINA RESULT:      -7.2      0.000      0.000
REMARK  Name = 51138127
REMARK  11 active torsions:
REMARK  status: ('A' for Active; 'I' for Inactive)
REMARK    1  A    between atoms: O_2  and  C_31
REMARK    2  A    between atoms: O_2  and  C_32
REMARK    3  A    between atoms: N_4  and  C_22
REMARK    4  A    between atoms: N_5  and  C_24
REMARK    5  A    between atoms: C_6  and  C_10
REMARK    6  A    between atoms: C_8  and  C_17
REMARK    7  A    between atoms: C_10  and  C_14
REMARK    8  A    between atoms: C_14  and  C_20
REMARK    9  A    between atoms: C_14  and  C_21
REMARK   10  A    between atoms: C_22  and  C_23
REMARK   11  A    between atoms: C_24  and  C_25
REMARK                            x       y       z     vdW  Elec       q    Type
REMARK                         _______ _______ _______ _____ _____    ______ ____
ROOT
ATOM      3  N   UNL     1      -6.565 -11.072  16.176  0.00  0.00    -0.299 NA
ATOM      4  N   UNL     1      -4.072 -10.221  11.867  0.00  0.00    -0.343 N 
ATOM      6  C   UNL     1      -5.171 -10.821  16.566  0.00  0.00    +0.085 C 
ATOM      7  C   UNL     1      -4.164 -10.714  15.417  0.00  0.00    -0.021 A 
ATOM      8  C   UNL     1      -7.179 -10.008  15.396  0.00  0.00    +0.145 C 
ATOM      9  C   UNL     1      -4.500 -10.501  14.048  0.00  0.00    +0.008 A 
ATOM     11  C   UNL     1      -7.121 -10.304  13.899  0.00  0.00    +0.065 C 
ATOM     12  C   UNL     1      -5.737 -10.319  13.339  0.00  0.00    -0.020 A 
ATOM     13  C   UNL     1      -3.480 -10.409  13.094  0.00  0.00    +0.050 A 
ATOM     15  C   UNL     1      -5.427 -10.160  12.003  0.00  0.00    +0.090 A 
ATOM     16  C   UNL     1      -2.779 -10.750  15.723  0.00  0.00    +0.006 A 
ATOM     18  C   UNL     1      -2.123 -10.493  13.409  0.00  0.00    +0.026 A 
ATOM     19  C   UNL     1      -1.788 -10.653  14.748  0.00  0.00    +0.002 A 
ATOM     33  H   UNL     1      -6.655 -11.972  15.707  0.00  0.00    +0.123 HD
ENDROOT
BRANCH   8  17
ATOM      1  O   UNL     1      -9.473 -10.655  15.281  0.00  0.00    -0.274 OA
ATOM      5  N   UNL     1      -8.820  -9.098  16.884  0.00  0.00    -0.310 N 
ATOM     17  C   UNL     1      -8.612  -9.976  15.834  0.00  0.00    +0.231 C 
ATOM     34  H   UNL     1      -8.028  -8.603  17.284  0.00  0.00    +0.149 HD
BRANCH   5  24
ATOM     24  C   UNL     1     -10.118  -8.867  17.476  0.00  0.00    +0.139 C 
BRANCH  24  25
ATOM     25  C   UNL     1     -10.952  -7.928  16.652  0.00  0.00    -0.030 A 
ATOM     27  C   UNL     1     -10.373  -6.790  16.092  0.00  0.00    +0.009 A 
ATOM     28  C   UNL     1     -12.306  -8.195  16.449  0.00  0.00    +0.009 A 
ATOM     29  C   UNL     1     -11.149  -5.918  15.327  0.00  0.00    +0.046 A 
ATOM     30  C   UNL     1     -13.081  -7.324  15.684  0.00  0.00    +0.046 A 
ATOM     31  C   UNL     1     -12.503  -6.185  15.123  0.00  0.00    +0.120 A 
BRANCH  31   2
ATOM      2  O   UNL     1     -13.259  -5.335  14.376  0.00  0.00    -0.495 OA
ATOM     32  C   UNL     1     -12.588  -4.593  13.359  0.00  0.00    +0.277 C 
ENDBRANCH  31   2
ENDBRANCH  24  25
ENDBRANCH   5  24
ENDBRANCH   8  17
BRANCH   6  10
ATOM     10  C   UNL     1      -4.830 -11.957  17.546  0.00  0.00    +0.026 C 
BRANCH  10  14
ATOM     14  C   UNL     1      -4.560 -11.461  18.969  0.00  0.00    -0.015 C 
ATOM     20  C   UNL     1      -3.497 -12.348  19.621  0.00  0.00    +0.007 C 
ATOM     21  C   UNL     1      -5.821 -11.443  19.835  0.00  0.00    +0.007 C 
ENDBRANCH  10  14
ENDBRANCH   6  10
BRANCH   4  22
ATOM     22  C   UNL     1      -3.374 -10.086  10.607  0.00  0.00    +0.148 C 
BRANCH  22  23
ATOM     23  C   UNL     1      -4.056  -9.129   9.674  0.00  0.00    -0.013 C 
ATOM     26  C   UNL     1      -4.613  -9.489   8.512  0.00  0.00    +0.005 C 
ENDBRANCH  22  23
ENDBRANCH   4  22
TORSDOF 8
ENDMDL
MODEL 2
REMARK VINA RESULT:      -7.1      2.058      3.400
REMARK  Name = 51138127
REMARK  11 active torsions:
REMARK  status: ('A' for Active; 'I' for Inactive)
REMARK    1  A    between atoms: O_2  and  C_31
REMARK    2  A    between atoms: O_2  and  C_32
REMARK    3  A    between atoms: N_4  and  C_22
REMARK    4  A    between atoms: N_5  and  C_24
REMARK    5  A    between atoms: C_6  and  C_10
REMARK    6  A    between atoms: C_8  and  C_17
REMARK    7  A    between atoms: C_10  and  C_14
REMARK    8  A    between atoms: C_14  and  C_20
REMARK    9  A    between atoms: C_14  and  C_21
REMARK   10  A    between atoms: C_22  and  C_23
REMARK   11  A    between atoms: C_24  and  C_25
REMARK                            x       y       z     vdW  Elec       q    Type
REMARK                         _______ _______ _______ _____ _____    ______ ____
ROOT
ATOM      3  N   UNL     1      -6.662 -10.841  16.102  0.00  0.00    -0.299 NA
ATOM      4  N   UNL     1      -3.572 -10.455  12.127  0.00  0.00    -0.343 N 
ATOM      6  C   UNL     1      -5.306 -10.742  16.660  0.00  0.00    +0.085 C 
ATOM      7  C   UNL     1      -4.160 -10.799  15.646  0.00  0.00    -0.021 A 
ATOM      8  C   UNL     1      -7.041  -9.742  15.226  0.00  0.00    +0.145 C 
ATOM      9  C   UNL     1      -4.296 -10.599  14.241  0.00  0.00    +0.008 A 
ATOM     11  C   UNL     1      -6.835 -10.099  13.756  0.00  0.00    +0.065 C 
ATOM     12  C   UNL     1      -5.405 -10.299  13.377  0.00  0.00    -0.020 A 
ATOM     13  C   UNL     1      -3.162 -10.664  13.423  0.00  0.00    +0.050 A 
ATOM     15  C   UNL     1      -4.915 -10.228  12.088  0.00  0.00    +0.090 A 
ATOM     16  C   UNL     1      -2.839 -10.987  16.126  0.00  0.00    +0.006 A 
ATOM     18  C   UNL     1      -1.875 -10.898  13.909  0.00  0.00    +0.026 A 
ATOM     19  C   UNL     1      -1.730 -11.045  15.283  0.00  0.00    +0.002 A 
ATOM     33  H   UNL     1      -6.803 -11.741  15.645  0.00  0.00    +0.123 HD
ENDROOT
BRANCH   8  17
ATOM      1  O   UNL     1      -9.364 -10.048  14.779  0.00  0.00    -0.274 OA
ATOM      5  N   UNL     1      -8.729  -8.671  16.544  0.00  0.00    -0.310 N 
ATOM     17  C   UNL     1      -8.501  -9.524  15.478  0.00  0.00    +0.231 C 
ATOM     34  H   UNL     1      -7.939  -8.313  17.073  0.00  0.00    +0.149 HD
BRANCH   5  24
ATOM     24  C   UNL     1     -10.051  -8.282  16.978  0.00  0.00    +0.139 C 
BRANCH  24  25
ATOM     25  C   UNL     1     -10.608  -9.230  18.001  0.00  0.00    -0.030 A 
ATOM     27  C   UNL     1      -9.751 -10.055  18.727  0.00  0.00    +0.009 A 
ATOM     28  C   UNL     1     -11.984  -9.285  18.223  0.00  0.00    +0.009 A 
ATOM     29  C   UNL     1     -10.269 -10.936  19.677  0.00  0.00    +0.046 A 
ATOM     30  C   UNL     1     -12.503 -10.165  19.173  0.00  0.00    +0.046 A 
ATOM     31  C   UNL     1     -11.645 -10.991  19.899  0.00  0.00    +0.120 A 
BRANCH  31   2
ATOM      2  O   UNL     1     -12.150 -11.850  20.827  0.00  0.00    -0.495 OA
ATOM     32  C   UNL     1     -13.432 -11.539  21.369  0.00  0.00    +0.277 C 
ENDBRANCH  31   2
ENDBRANCH  24  25
ENDBRANCH   5  24
ENDBRANCH   8  17
BRANCH   6  10
ATOM     10  C   UNL     1      -5.231 -11.874  17.700  0.00  0.00    +0.026 C 
BRANCH  10  14
ATOM     14  C   UNL     1      -4.791 -11.387  19.084  0.00  0.00    -0.015 C 
ATOM     20  C   UNL     1      -3.643 -12.264  19.587  0.00  0.00    +0.007 C 
ATOM     21  C   UNL     1      -5.933 -11.396  20.102  0.00  0.00    +0.007 C 
ENDBRANCH  10  14
ENDBRANCH   6  10
BRANCH   4  22
ATOM     22  C   UNL     1      -2.712 -10.451  10.963  0.00  0.00    +0.148 C 
BRANCH  22  23
ATOM     23  C   UNL     1      -2.004  -9.141  10.777  0.00  0.00    -0.013 C 
ATOM     26  C   UNL     1      -0.730  -8.925  11.124  0.00  0.00    +0.005 C 
ENDBRANCH  22  23
ENDBRANCH   4  22
TORSDOF 8
ENDMDL
MODEL 3
REMARK VINA RESULT:      -7.0     26.884     29.805
REMARK  Name = 51138127
REMARK  11 active torsions:
REMARK  status: ('A' for Active; 'I' for Inactive)
REMARK    1  A    between atoms: O_2  and  C_31
REMARK    2  A    between atoms: O_2  and  C_32
REMARK    3  A    between atoms: N_4  and  C_22
REMARK    4  A    between atoms: N_5  and  C_24
REMARK    5  A    between atoms: C_6  and  C_10
REMARK    6  A    between atoms: C_8  and  C_17
REMARK    7  A    between atoms: C_10  and  C_14
REMARK    8  A    between atoms: C_14  and  C_20
REMARK    9  A    between atoms: C_14  and  C_21
REMARK   10  A    between atoms: C_22  and  C_23
REMARK   11  A    between atoms: C_24  and  C_25
REMARK                            x       y       z     vdW  Elec       q    Type
REMARK                         _______ _______ _______ _____ _____    ______ ____
ROOT
ATOM      3  N   UNL     1      13.256   8.942  20.194  0.00  0.00    -0.299 NA
ATOM      4  N   UNL     1      13.943  10.719  15.517  0.00  0.00    -0.343 N 
ATOM      6  C   UNL     1      12.201   8.328  19.376  0.00  0.00    +0.085 C 
ATOM      7  C   UNL     1      12.078   8.851  17.942  0.00  0.00    -0.021 A 
ATOM      8  C   UNL     1      14.611   8.705  19.717  0.00  0.00    +0.145 C 
ATOM      9  C   UNL     1      13.075   9.600  17.253  0.00  0.00    +0.008 A 
ATOM     11  C   UNL     1      15.125   9.874  18.881  0.00  0.00    +0.065 C 
ATOM     12  C   UNL     1      14.390  10.067  17.596  0.00  0.00    -0.020 A 
ATOM     13  C   UNL     1      12.842  10.008  15.934  0.00  0.00    +0.050 A 
ATOM     15  C   UNL     1      14.881  10.757  16.505  0.00  0.00    +0.090 A 
ATOM     16  C   UNL     1      10.922   8.510  17.193  0.00  0.00    +0.006 A 
ATOM     18  C   UNL     1      11.677   9.702  15.229  0.00  0.00    +0.026 A 
ATOM     19  C   UNL     1      10.722   8.931  15.880  0.00  0.00    +0.002 A 
ATOM     33  H   UNL     1      13.082   9.938  20.326  0.00  0.00    +0.123 HD
ENDROOT
BRANCH   8  17
ATOM      1  O   UNL     1      14.944   8.539  22.075  0.00  0.00    -0.274 OA
ATOM      5  N   UNL     1      16.802   8.549  20.671  0.00  0.00    -0.310 N 
ATOM     17  C   UNL     1      15.447   8.582  20.955  0.00  0.00    +0.231 C 
ATOM     34  H   UNL     1      17.109   8.564  19.704  0.00  0.00    +0.149 HD
BRANCH   5  24
ATOM     24  C   UNL     1      17.821   8.456  21.692  0.00  0.00    +0.139 C 
BRANCH  24  25
ATOM     25  C   UNL     1      18.742   7.293  21.461  0.00  0.00    -0.030 A 
ATOM     27  C   UNL     1      19.791   7.047  22.346  0.00  0.00    +0.009 A 
ATOM     28  C   UNL     1      18.548   6.458  20.361  0.00  0.00    +0.009 A 
ATOM     29  C   UNL     1      20.647   5.966  22.131  0.00  0.00    +0.046 A 
ATOM     30  C   UNL     1      19.403   5.377  20.145  0.00  0.00    +0.046 A 
ATOM     31  C   UNL     1      20.452   5.131  21.030  0.00  0.00    +0.120 A 
BRANCH  31   2
ATOM      2  O   UNL     1      21.287   4.076  20.822  0.00  0.00    -0.495 OA
ATOM     32  C   UNL     1      22.345   3.889  21.760  0.00  0.00    +0.277 C 
ENDBRANCH  31   2
ENDBRANCH  24  25
ENDBRANCH   5  24
ENDBRANCH   8  17
BRANCH   6  10
ATOM     10  C   UNL     1      10.912   8.529  20.191  0.00  0.00    +0.026 C 
BRANCH  10  14
ATOM     14  C   UNL     1      10.720   7.470  21.280  0.00  0.00    -0.015 C 
ATOM     20  C   UNL     1      10.856   8.127  22.655  0.00  0.00    +0.007 C 
ATOM     21  C   UNL     1      11.715   6.314  21.159  0.00  0.00    +0.007 C 
ENDBRANCH  10  14
ENDBRANCH   6  10
BRANCH   4  22
ATOM     22  C   UNL     1      14.107  11.329  14.215  0.00  0.00    +0.148 C 
BRANCH  22  23
ATOM     23  C   UNL     1      15.544  11.620  13.895  0.00  0.00    -0.013 C 
ATOM     26  C   UNL     1      15.979  11.992  12.687  0.00  0.00    +0.005 C 
ENDBRANCH  22  23
ENDBRANCH   4  22
TORSDOF 8
ENDMDL
MODEL 4
REMARK VINA RESULT:      -6.8     18.434     22.249
REMARK  Name = 51138127
REMARK  11 active torsions:
REMARK  status: ('A' for Active; 'I' for Inactive)
REMARK    1  A    between atoms: O_2  and  C_31
REMARK    2  A    between atoms: O_2  and  C_32
REMARK    3  A    between atoms: N_4  and  C_22
REMARK    4  A    between atoms: N_5  and  C_24
REMARK    5  A    between atoms: C_6  and  C_10
REMARK    6  A    between atoms: C_8  and  C_17
REMARK    7  A    between atoms: C_10  and  C_14
REMARK    8  A    between atoms: C_14  and  C_20
REMARK    9  A    between atoms: C_14  and  C_21
REMARK   10  A    between atoms: C_22  and  C_23
REMARK   11  A    between atoms: C_24  and  C_25
REMARK                            x       y       z     vdW  Elec       q    Type
REMARK                         _______ _______ _______ _____ _____    ______ ____
ROOT
ATOM      3  N   UNL     1     -15.161   2.731  28.913  0.00  0.00    -0.299 NA
ATOM      4  N   UNL     1     -15.975   6.507  32.166  0.00  0.00    -0.343 N 
ATOM      6  C   UNL     1     -14.985   2.149  30.250  0.00  0.00    +0.085 C 
ATOM      7  C   UNL     1     -15.000   3.140  31.418  0.00  0.00    -0.021 A 
ATOM      8  C   UNL     1     -16.451   3.368  28.692  0.00  0.00    +0.145 C 
ATOM      9  C   UNL     1     -15.493   4.475  31.355  0.00  0.00    +0.008 A 
ATOM     11  C   UNL     1     -16.376   4.878  28.908  0.00  0.00    +0.065 C 
ATOM     12  C   UNL     1     -16.090   5.273  30.319  0.00  0.00    -0.020 A 
ATOM     13  C   UNL     1     -15.462   5.276  32.503  0.00  0.00    +0.050 A 
ATOM     15  C   UNL     1     -16.360   6.515  30.859  0.00  0.00    +0.090 A 
ATOM     16  C   UNL     1     -14.565   2.693  32.692  0.00  0.00    +0.006 A 
ATOM     18  C   UNL     1     -14.986   4.833  33.738  0.00  0.00    +0.026 A 
ATOM     19  C   UNL     1     -14.548   3.516  33.816  0.00  0.00    +0.002 A 
ATOM     33  H   UNL     1     -14.394   3.364  28.688  0.00  0.00    +0.123 HD
ENDROOT
BRANCH   8  17
ATOM      1  O   UNL     1     -17.857   2.598  26.924  0.00  0.00    -0.274 OA
ATOM      5  N   UNL     1     -15.751   3.442  26.403  0.00  0.00    -0.310 N 
ATOM     17  C   UNL     1     -16.783   3.094  27.257  0.00  0.00    +0.231 C 
ATOM     34  H   UNL     1     -14.913   3.872  26.784  0.00  0.00    +0.149 HD
BRANCH   5  24
ATOM     24  C   UNL     1     -15.812   3.258  24.971  0.00  0.00    +0.139 C 
BRANCH  24  25
ATOM     25  C   UNL     1     -15.664   4.556  24.231  0.00  0.00    -0.030 A 
ATOM     27  C   UNL     1     -16.685   5.504  24.272  0.00  0.00    +0.009 A 
ATOM     28  C   UNL     1     -14.503   4.812  23.501  0.00  0.00    +0.009 A 
ATOM     29  C   UNL     1     -16.546   6.710  23.584  0.00  0.00    +0.046 A 
ATOM     30  C   UNL     1     -14.364   6.018  22.813  0.00  0.00    +0.046 A 
ATOM     31  C   UNL     1     -15.385   6.966  22.854  0.00  0.00    +0.120 A 
BRANCH  31   2
ATOM      2  O   UNL     1     -15.250   8.143  22.184  0.00  0.00    -0.495 OA
ATOM     32  C   UNL     1     -15.972   9.265  22.690  0.00  0.00    +0.277 C 
ENDBRANCH  31   2
ENDBRANCH  24  25
ENDBRANCH   5  24
ENDBRANCH   8  17
BRANCH   6  10
ATOM     10  C   UNL     1     -13.666   1.361  30.161  0.00  0.00    +0.026 C 
BRANCH  10  14
ATOM     14  C   UNL     1     -13.836  -0.129  30.474  0.00  0.00    -0.015 C 
ATOM     20  C   UNL     1     -13.370  -0.954  29.273  0.00  0.00    +0.007 C 
ATOM     21  C   UNL     1     -15.279  -0.496  30.825  0.00  0.00    +0.007 C 
ENDBRANCH  10  14
ENDBRANCH   6  10
BRANCH   4  22
ATOM     22  C   UNL     1     -16.113   7.635  33.062  0.00  0.00    +0.148 C 
BRANCH  22  23
ATOM     23  C   UNL     1     -15.015   8.644  32.887  0.00  0.00    -0.013 C 
ATOM     26  C   UNL     1     -13.713   8.349  32.957  0.00  0.00    +0.005 C 
ENDBRANCH  22  23
ENDBRANCH   4  22
TORSDOF 8
ENDMDL
MODEL 5
REMARK VINA RESULT:      -6.8     21.946     25.486
REMARK  Name = 51138127
REMARK  11 active torsions:
REMARK  status: ('A' for Active; 'I' for Inactive)
REMARK    1  A    between atoms: O_2  and  C_31
REMARK    2  A    between atoms: O_2  and  C_32
REMARK    3  A    between atoms: N_4  and  C_22
REMARK    4  A    between atoms: N_5  and  C_24
REMARK    5  A    between atoms: C_6  and  C_10
REMARK    6  A    between atoms: C_8  and  C_17
REMARK    7  A    between atoms: C_10  and  C_14
REMARK    8  A    between atoms: C_14  and  C_20
REMARK    9  A    between atoms: C_14  and  C_21
REMARK   10  A    between atoms: C_22  and  C_23
REMARK   11  A    between atoms: C_24  and  C_25
REMARK                            x       y       z     vdW  Elec       q    Type
REMARK                         _______ _______ _______ _____ _____    ______ ____
ROOT
ATOM      3  N   UNL     1     -14.340   6.222  33.168  0.00  0.00    -0.299 NA
ATOM      4  N   UNL     1     -14.706   2.023  30.386  0.00  0.00    -0.343 N 
ATOM      6  C   UNL     1     -15.405   6.484  32.190  0.00  0.00    +0.085 C 
ATOM      7  C   UNL     1     -15.589   5.423  31.101  0.00  0.00    -0.021 A 
ATOM      8  C   UNL     1     -14.550   5.042  33.993  0.00  0.00    +0.145 C 
ATOM      9  C   UNL     1     -15.072   4.096  31.152  0.00  0.00    +0.008 A 
ATOM     11  C   UNL     1     -13.801   3.831  33.442  0.00  0.00    +0.065 C 
ATOM     12  C   UNL     1     -14.305   3.359  32.119  0.00  0.00    -0.020 A 
ATOM     13  C   UNL     1     -15.324   3.217  30.093  0.00  0.00    +0.050 A 
ATOM     15  C   UNL     1     -14.096   2.095  31.602  0.00  0.00    +0.090 A 
ATOM     16  C   UNL     1     -16.396   5.737  29.977  0.00  0.00    +0.006 A 
ATOM     18  C   UNL     1     -16.083   3.559  28.973  0.00  0.00    +0.026 A 
ATOM     19  C   UNL     1     -16.629   4.836  28.939  0.00  0.00    +0.002 A 
ATOM     33  H   UNL     1     -13.428   6.197  32.715  0.00  0.00    +0.123 HD
ENDROOT
BRANCH   8  17
ATOM      1  O   UNL     1     -14.130   4.663  36.311  0.00  0.00    -0.274 OA
ATOM      5  N   UNL     1     -13.340   6.619  35.327  0.00  0.00    -0.310 N 
ATOM     17  C   UNL     1     -13.989   5.397  35.336  0.00  0.00    +0.231 C 
ATOM     34  H   UNL     1     -13.258   7.134  34.456  0.00  0.00    +0.149 HD
BRANCH   5  24
ATOM     24  C   UNL     1     -12.730   7.199  36.502  0.00  0.00    +0.139 C 
BRANCH  24  25
ATOM     25  C   UNL     1     -11.569   8.085  36.153  0.00  0.00    -0.030 A 
ATOM     27  C   UNL     1     -10.402   8.039  36.915  0.00  0.00    +0.009 A 
ATOM     28  C   UNL     1     -11.659   8.955  35.067  0.00  0.00    +0.009 A 
ATOM     29  C   UNL     1      -9.323   8.862  36.589  0.00  0.00    +0.046 A 
ATOM     30  C   UNL     1     -10.581   9.779  34.741  0.00  0.00    +0.046 A 
ATOM     31  C   UNL     1      -9.413   9.732  35.503  0.00  0.00    +0.120 A 
BRANCH  31   2
ATOM      2  O   UNL     1      -8.361  10.535  35.186  0.00  0.00    -0.495 OA
ATOM     32  C   UNL     1      -8.007  11.545  36.129  0.00  0.00    +0.277 C 
ENDBRANCH  31   2
ENDBRANCH  24  25
ENDBRANCH   5  24
ENDBRANCH   8  17
BRANCH   6  10
ATOM     10  C   UNL     1     -15.070   7.871  31.612  0.00  0.00    +0.026 C 
BRANCH  10  14
ATOM     14  C   UNL     1     -14.009   8.618  32.426  0.00  0.00    -0.015 C 
ATOM     20  C   UNL     1     -14.672   9.765  33.190  0.00  0.00    +0.007 C 
ATOM     21  C   UNL     1     -12.875   9.164  31.555  0.00  0.00    +0.007 C 
ENDBRANCH  10  14
ENDBRANCH   6  10
BRANCH   4  22
ATOM     22  C   UNL     1     -14.710   0.845  29.546  0.00  0.00    +0.148 C 
BRANCH  22  23
ATOM     23  C   UNL     1     -13.769  -0.214  30.039  0.00  0.00    -0.013 C 
ATOM     26  C   UNL     1     -13.202  -1.134  29.252  0.00  0.00    +0.005 C 
ENDBRANCH  22  23
ENDBRANCH   4  22
TORSDOF 8
ENDMDL
MODEL 6
REMARK VINA RESULT:      -6.8     23.506     28.072
REMARK  Name = 51138127
REMARK  11 active torsions:
REMARK  status: ('A' for Active; 'I' for Inactive)
REMARK    1  A    between atoms: O_2  and  C_31
REMARK    2  A    between atoms: O_2  and  C_32
REMARK    3  A    between atoms: N_4  and  C_22
REMARK    4  A    between atoms: N_5  and  C_24
REMARK    5  A    between atoms: C_6  and  C_10
REMARK    6  A    between atoms: C_8  and  C_17
REMARK    7  A    between atoms: C_10  and  C_14
REMARK    8  A    between atoms: C_14  and  C_20
REMARK    9  A    between atoms: C_14  and  C_21
REMARK   10  A    between atoms: C_22  and  C_23
REMARK   11  A    between atoms: C_24  and  C_25
REMARK                            x       y       z     vdW  Elec       q    Type
REMARK                         _______ _______ _______ _____ _____    ______ ____
ROOT
ATOM      3  N   UNL     1      10.727   5.129   0.704  0.00  0.00    -0.299 NA
ATOM      4  N   UNL     1       9.545   5.745   5.575  0.00  0.00    -0.343 N 
ATOM      6  C   UNL     1      10.439   6.561   0.866  0.00  0.00    +0.085 C 
ATOM      7  C   UNL     1       9.874   6.980   2.226  0.00  0.00    -0.021 A 
ATOM      8  C   UNL     1      11.767   4.615   1.583  0.00  0.00    +0.145 C 
ATOM      9  C   UNL     1       9.924   6.193   3.414  0.00  0.00    +0.008 A 
ATOM     11  C   UNL     1      11.175   3.953   2.826  0.00  0.00    +0.065 C 
ATOM     12  C   UNL     1      10.463   4.900   3.734  0.00  0.00    -0.020 A 
ATOM     13  C   UNL     1       9.380   6.701   4.599  0.00  0.00    +0.050 A 
ATOM     15  C   UNL     1      10.199   4.662   5.068  0.00  0.00    +0.090 A 
ATOM     16  C   UNL     1       9.319   8.279   2.359  0.00  0.00    +0.006 A 
ATOM     18  C   UNL     1       8.796   7.964   4.699  0.00  0.00    +0.026 A 
ATOM     19  C   UNL     1       8.787   8.754   3.556  0.00  0.00    +0.002 A 
ATOM     33  H   UNL     1       9.875   4.576   0.779  0.00  0.00    +0.123 HD
ENDROOT
BRANCH   8  17
ATOM      1  O   UNL     1      13.366   2.873   1.264  0.00  0.00    -0.274 OA
ATOM      5  N   UNL     1      12.066   3.556  -0.543  0.00  0.00    -0.310 N 
ATOM     17  C   UNL     1      12.490   3.581   0.775  0.00  0.00    +0.231 C 
ATOM     34  H   UNL     1      11.313   4.170  -0.837  0.00  0.00    +0.149 HD
BRANCH   5  24
ATOM     24  C   UNL     1      12.622   2.663  -1.535  0.00  0.00    +0.139 C 
BRANCH  24  25
ATOM     25  C   UNL     1      11.881   2.741  -2.839  0.00  0.00    -0.030 A 
ATOM     27  C   UNL     1      10.506   2.515  -2.874  0.00  0.00    +0.009 A 
ATOM     28  C   UNL     1      12.570   3.040  -4.014  0.00  0.00    +0.009 A 
ATOM     29  C   UNL     1       9.818   2.588  -4.086  0.00  0.00    +0.046 A 
ATOM     30  C   UNL     1      11.882   3.114  -5.226  0.00  0.00    +0.046 A 
ATOM     31  C   UNL     1      10.507   2.887  -5.262  0.00  0.00    +0.120 A 
BRANCH  31   2
ATOM      2  O   UNL     1       9.835   2.959  -6.444  0.00  0.00    -0.495 OA
ATOM     32  C   UNL     1      10.456   3.689  -7.500  0.00  0.00    +0.277 C 
ENDBRANCH  31   2
ENDBRANCH  24  25
ENDBRANCH   5  24
ENDBRANCH   8  17
BRANCH   6  10
ATOM     10  C   UNL     1       9.492   6.901  -0.298  0.00  0.00    +0.026 C 
BRANCH  10  14
ATOM     14  C   UNL     1       9.770   6.075  -1.557  0.00  0.00    -0.015 C 
ATOM     20  C   UNL     1      10.906   6.726  -2.348  0.00  0.00    +0.007 C 
ATOM     21  C   UNL     1       8.536   5.929  -2.450  0.00  0.00    +0.007 C 
ENDBRANCH  10  14
ENDBRANCH   6  10
BRANCH   4  22
ATOM     22  C   UNL     1       9.112   5.864   6.951  0.00  0.00    +0.148 C 
BRANCH  22  23
ATOM     23  C   UNL     1       9.826   4.909   7.861  0.00  0.00    -0.013 C 
ATOM     26  C   UNL     1       9.428   4.625   9.105  0.00  0.00    +0.005 C 
ENDBRANCH  22  23
ENDBRANCH   4  22
TORSDOF 8
ENDMDL
MODEL 7
REMARK VINA RESULT:      -6.7     26.292     30.406
REMARK  Name = 51138127
REMARK  11 active torsions:
REMARK  status: ('A' for Active; 'I' for Inactive)
REMARK    1  A    between atoms: O_2  and  C_31
REMARK    2  A    between atoms: O_2  and  C_32
REMARK    3  A    between atoms: N_4  and  C_22
REMARK    4  A    between atoms: N_5  and  C_24
REMARK    5  A    between atoms: C_6  and  C_10
REMARK    6  A    between atoms: C_8  and  C_17
REMARK    7  A    between atoms: C_10  and  C_14
REMARK    8  A    between atoms: C_14  and  C_20
REMARK    9  A    between atoms: C_14  and  C_21
REMARK   10  A    between atoms: C_22  and  C_23
REMARK   11  A    between atoms: C_24  and  C_25
REMARK                            x       y       z     vdW  Elec       q    Type
REMARK                         _______ _______ _______ _____ _____    ______ ____
ROOT
ATOM      3  N   UNL     1      14.634   7.715   4.757  0.00  0.00    -0.299 NA
ATOM      4  N   UNL     1      10.423   5.918   6.888  0.00  0.00    -0.343 N 
ATOM      6  C   UNL     1      13.737   7.380   3.643  0.00  0.00    +0.085 C 
ATOM      7  C   UNL     1      12.450   6.640   4.021  0.00  0.00    -0.021 A 
ATOM      8  C   UNL     1      14.078   8.646   5.728  0.00  0.00    +0.145 C 
ATOM      9  C   UNL     1      11.907   6.556   5.336  0.00  0.00    +0.008 A 
ATOM     11  C   UNL     1      13.494   7.917   6.935  0.00  0.00    +0.065 C 
ATOM     12  C   UNL     1      12.302   7.077   6.616  0.00  0.00    -0.020 A 
ATOM     13  C   UNL     1      10.712   5.857   5.544  0.00  0.00    +0.050 A 
ATOM     15  C   UNL     1      11.368   6.652   7.540  0.00  0.00    +0.090 A 
ATOM     16  C   UNL     1      11.681   6.046   2.987  0.00  0.00    +0.006 A 
ATOM     18  C   UNL     1       9.993   5.240   4.520  0.00  0.00    +0.026 A 
ATOM     19  C   UNL     1      10.493   5.359   3.229  0.00  0.00    +0.002 A 
ATOM     33  H   UNL     1      14.980   6.871   5.213  0.00  0.00    +0.123 HD
ENDROOT
BRANCH   8  17
ATOM      1  O   UNL     1      15.077  10.607   6.650  0.00  0.00    -0.274 OA
ATOM      5  N   UNL     1      16.452   8.858   5.965  0.00  0.00    -0.310 N 
ATOM     17  C   UNL     1      15.236   9.486   6.175  0.00  0.00    +0.231 C 
ATOM     34  H   UNL     1      16.467   7.915   5.587  0.00  0.00    +0.149 HD
BRANCH   5  24
ATOM     24  C   UNL     1      17.722   9.466   6.290  0.00  0.00    +0.139 C 
BRANCH  24  25
ATOM     25  C   UNL     1      18.879   8.655   5.781  0.00  0.00    -0.030 A 
ATOM     27  C   UNL     1      18.875   8.181   4.470  0.00  0.00    +0.009 A 
ATOM     28  C   UNL     1      19.957   8.375   6.621  0.00  0.00    +0.009 A 
ATOM     29  C   UNL     1      19.951   7.428   3.998  0.00  0.00    +0.046 A 
ATOM     30  C   UNL     1      21.032   7.622   6.149  0.00  0.00    +0.046 A 
ATOM     31  C   UNL     1      21.029   7.148   4.837  0.00  0.00    +0.120 A 
BRANCH  31   2
ATOM      2  O   UNL     1      22.078   6.414   4.376  0.00  0.00    -0.495 OA
ATOM     32  C   UNL     1      22.176   6.239   2.963  0.00  0.00    +0.277 C 
ENDBRANCH  31   2
ENDBRANCH  24  25
ENDBRANCH   5  24
ENDBRANCH   8  17
BRANCH   6  10
ATOM     10  C   UNL     1      14.613   6.579   2.665  0.00  0.00    +0.026 C 
BRANCH  10  14
ATOM     14  C   UNL     1      14.745   7.249   1.294  0.00  0.00    -0.015 C 
ATOM     20  C   UNL     1      14.043   8.607   1.324  0.00  0.00    +0.007 C 
ATOM     21  C   UNL     1      14.169   6.394   0.163  0.00  0.00    +0.007 C 
ENDBRANCH  10  14
ENDBRANCH   6  10
BRANCH   4  22
ATOM     22  C   UNL     1       9.276   5.313   7.531  0.00  0.00    +0.148 C 
BRANCH  22  23
ATOM     23  C   UNL     1       9.667   4.340   8.604  0.00  0.00    -0.013 C 
ATOM     26  C   UNL     1       9.380   4.504   9.900  0.00  0.00    +0.005 C 
ENDBRANCH  22  23
ENDBRANCH   4  22
TORSDOF 8
ENDMDL
MODEL 8
REMARK VINA RESULT:      -6.6     23.497     27.892
REMARK  Name = 51138127
REMARK  11 active torsions:
REMARK  status: ('A' for Active; 'I' for Inactive)
REMARK    1  A    between atoms: O_2  and  C_31
REMARK    2  A    between atoms: O_2  and  C_32
REMARK    3  A    between atoms: N_4  and  C_22
REMARK    4  A    between atoms: N_5  and  C_24
REMARK    5  A    between atoms: C_6  and  C_10
REMARK    6  A    between atoms: C_8  and  C_17
REMARK    7  A    between atoms: C_10  and  C_14
REMARK    8  A    between atoms: C_14  and  C_20
REMARK    9  A    between atoms: C_14  and  C_21
REMARK   10  A    between atoms: C_22  and  C_23
REMARK   11  A    between atoms: C_24  and  C_25
REMARK                            x       y       z     vdW  Elec       q    Type
REMARK                         _______ _______ _______ _____ _____    ______ ____
ROOT
ATOM      3  N   UNL     1       9.490   6.351   2.989  0.00  0.00    -0.299 NA
ATOM      4  N   UNL     1       9.877   6.002   8.012  0.00  0.00    -0.343 N 
ATOM      6  C   UNL     1       9.497   7.734   3.485  0.00  0.00    +0.085 C 
ATOM      7  C   UNL     1       9.423   7.900   5.006  0.00  0.00    -0.021 A 
ATOM      8  C   UNL     1      10.641   5.555   3.390  0.00  0.00    +0.145 C 
ATOM      9  C   UNL     1       9.685   6.872   5.957  0.00  0.00    +0.008 A 
ATOM     11  C   UNL     1      10.333   4.701   4.617  0.00  0.00    +0.065 C 
ATOM     12  C   UNL     1      10.076   5.492   5.856  0.00  0.00    -0.020 A 
ATOM     13  C   UNL     1       9.595   7.159   7.324  0.00  0.00    +0.050 A 
ATOM     15  C   UNL     1      10.172   4.996   7.141  0.00  0.00    +0.090 A 
ATOM     16  C   UNL     1       9.149   9.188   5.535  0.00  0.00    +0.006 A 
ATOM     18  C   UNL     1       9.279   8.422   7.826  0.00  0.00    +0.026 A 
ATOM     19  C   UNL     1       9.069   9.440   6.903  0.00  0.00    +0.002 A 
ATOM     33  H   UNL     1       8.617   5.883   3.229  0.00  0.00    +0.123 HD
ENDROOT
BRANCH   8  17
ATOM      1  O   UNL     1      10.225   4.671   1.213  0.00  0.00    -0.274 OA
ATOM      5  N   UNL     1      12.011   3.832   2.448  0.00  0.00    -0.310 N 
ATOM     17  C   UNL     1      10.922   4.657   2.224  0.00  0.00    +0.231 C 
ATOM     34  H   UNL     1      12.534   3.922   3.314  0.00  0.00    +0.149 HD
BRANCH   5  24
ATOM     24  C   UNL     1      12.476   2.857   1.488  0.00  0.00    +0.139 C 
BRANCH  24  25
ATOM     25  C   UNL     1      13.542   3.418   0.591  0.00  0.00    -0.030 A 
ATOM     27  C   UNL     1      13.263   3.667  -0.753  0.00  0.00    +0.009 A 
ATOM     28  C   UNL     1      14.811   3.687   1.101  0.00  0.00    +0.009 A 
ATOM     29  C   UNL     1      14.254   4.188  -1.586  0.00  0.00    +0.046 A 
ATOM     30  C   UNL     1      15.802   4.208   0.268  0.00  0.00    +0.046 A 
ATOM     31  C   UNL     1      15.523   4.457  -1.075  0.00  0.00    +0.120 A 
BRANCH  31   2
ATOM      2  O   UNL     1      16.489   4.966  -1.888  0.00  0.00    -0.495 OA
ATOM     32  C   UNL     1      17.288   6.026  -1.364  0.00  0.00    +0.277 C 
ENDBRANCH  31   2
ENDBRANCH  24  25
ENDBRANCH   5  24
ENDBRANCH   8  17
BRANCH   6  10
ATOM     10  C   UNL     1       8.323   8.414   2.759  0.00  0.00    +0.026 C 
BRANCH  10  14
ATOM     14  C   UNL     1       8.765   9.568   1.854  0.00  0.00    -0.015 C 
ATOM     20  C   UNL     1      10.293   9.619   1.810  0.00  0.00    +0.007 C 
ATOM     21  C   UNL     1       8.215  10.920   2.314  0.00  0.00    +0.007 C 
ENDBRANCH  10  14
ENDBRANCH   6  10
BRANCH   4  22
ATOM     22  C   UNL     1       9.884   5.860   9.452  0.00  0.00    +0.148 C 
BRANCH  22  23
ATOM     23  C   UNL     1       9.299   4.554   9.902  0.00  0.00    -0.013 C 
ATOM     26  C   UNL     1       8.219   4.450  10.685  0.00  0.00    +0.005 C 
ENDBRANCH  22  23
ENDBRANCH   4  22
TORSDOF 8
ENDMDL
MODEL 9
REMARK VINA RESULT:      -6.6     29.234     30.888
REMARK  Name = 51138127
REMARK  11 active torsions:
REMARK  status: ('A' for Active; 'I' for Inactive)
REMARK    1  A    between atoms: O_2  and  C_31
REMARK    2  A    between atoms: O_2  and  C_32
REMARK    3  A    between atoms: N_4  and  C_22
REMARK    4  A    between atoms: N_5  and  C_24
REMARK    5  A    between atoms: C_6  and  C_10
REMARK    6  A    between atoms: C_8  and  C_17
REMARK    7  A    between atoms: C_10  and  C_14
REMARK    8  A    between atoms: C_14  and  C_20
REMARK    9  A    between atoms: C_14  and  C_21
REMARK   10  A    between atoms: C_22  and  C_23
REMARK   11  A    between atoms: C_24  and  C_25
REMARK                            x       y       z     vdW  Elec       q    Type
REMARK                         _______ _______ _______ _____ _____    ______ ____
ROOT
ATOM      3  N   UNL     1      19.284  -7.232  -0.538  0.00  0.00    -0.299 NA
ATOM      4  N   UNL     1      21.638  -8.541   3.734  0.00  0.00    -0.343 N 
ATOM      6  C   UNL     1      20.169  -6.106  -0.210  0.00  0.00    +0.085 C 
ATOM      7  C   UNL     1      20.865  -6.177   1.152  0.00  0.00    -0.021 A 
ATOM      8  C   UNL     1      19.956  -8.517  -0.662  0.00  0.00    +0.145 C 
ATOM      9  C   UNL     1      20.996  -7.354   1.946  0.00  0.00    +0.008 A 
ATOM     11  C   UNL     1      19.859  -9.328   0.629  0.00  0.00    +0.065 C 
ATOM     12  C   UNL     1      20.590  -8.723   1.780  0.00  0.00    -0.020 A 
ATOM     13  C   UNL     1      21.670  -7.286   3.171  0.00  0.00    +0.050 A 
ATOM     15  C   UNL     1      20.997  -9.412   2.905  0.00  0.00    +0.090 A 
ATOM     16  C   UNL     1      21.505  -5.013   1.648  0.00  0.00    +0.006 A 
ATOM     18  C   UNL     1      22.254  -6.119   3.665  0.00  0.00    +0.026 A 
ATOM     19  C   UNL     1      22.171  -4.981   2.872  0.00  0.00    +0.002 A 
ATOM     33  H   UNL     1      18.505  -7.286   0.116  0.00  0.00    +0.123 HD
ENDROOT
BRANCH   8  17
ATOM      1  O   UNL     1      19.745 -10.158  -2.382  0.00  0.00    -0.274 OA
ATOM      5  N   UNL     1      17.952  -8.736  -1.953  0.00  0.00    -0.310 N 
ATOM     17  C   UNL     1      19.225  -9.240  -1.752  0.00  0.00    +0.231 C 
ATOM     34  H   UNL     1      17.611  -7.989  -1.355  0.00  0.00    +0.149 HD
BRANCH   5  24
ATOM     24  C   UNL     1      17.050  -9.246  -2.961  0.00  0.00    +0.139 C 
BRANCH  24  25
ATOM     25  C   UNL     1      16.119  -8.183  -3.470  0.00  0.00    -0.030 A 
ATOM     27  C   UNL     1      16.419  -6.837  -3.268  0.00  0.00    +0.009 A 
ATOM     28  C   UNL     1      14.952  -8.544  -4.143  0.00  0.00    +0.009 A 
ATOM     29  C   UNL     1      15.553  -5.850  -3.740  0.00  0.00    +0.046 A 
ATOM     30  C   UNL     1      14.085  -7.558  -4.616  0.00  0.00    +0.046 A 
ATOM     31  C   UNL     1      14.386  -6.211  -4.414  0.00  0.00    +0.120 A 
BRANCH  31   2
ATOM      2  O   UNL     1      13.542  -5.248  -4.876  0.00  0.00    -0.495 OA
ATOM     32  C   UNL     1      13.117  -5.353  -6.233  0.00  0.00    +0.277 C 
ENDBRANCH  31   2
ENDBRANCH  24  25
ENDBRANCH   5  24
ENDBRANCH   8  17
BRANCH   6  10
ATOM     10  C   UNL     1      19.279  -4.858  -0.354  0.00  0.00    +0.026 C 
BRANCH  10  14
ATOM     14  C   UNL     1      19.229  -4.320  -1.786  0.00  0.00    -0.015 C 
ATOM     20  C   UNL     1      20.493  -3.504  -2.065  0.00  0.00    +0.007 C 
ATOM     21  C   UNL     1      17.991  -3.461  -2.049  0.00  0.00    +0.007 C 
ENDBRANCH  10  14
ENDBRANCH   6  10
BRANCH   4  22
ATOM     22  C   UNL     1      22.213  -8.906   5.011  0.00  0.00    +0.148 C 
BRANCH  22  23
ATOM     23  C   UNL     1      22.469 -10.380   5.124  0.00  0.00    -0.013 C 
ATOM     26  C   UNL     1      22.017 -11.141   6.126  0.00  0.00    +0.005 C 
ENDBRANCH  22  23
ENDBRANCH   4  22
TORSDOF 8
ENDMDL
MODEL 10
REMARK VINA RESULT:      -6.5     22.397     26.060
REMARK  Name = 51138127
REMARK  11 active torsions:
REMARK  status: ('A' for Active; 'I' for Inactive)
REMARK    1  A    between atoms: O_2  and  C_31
REMARK    2  A    between atoms: O_2  and  C_32
REMARK    3  A    between atoms: N_4  and  C_22
REMARK    4  A    between atoms: N_5  and  C_24
REMARK    5  A    between atoms: C_6  and  C_10
REMARK    6  A    between atoms: C_8  and  C_17
REMARK    7  A    between atoms: C_10  and  C_14
REMARK    8  A    between atoms: C_14  and  C_20
REMARK    9  A    between atoms: C_14  and  C_21
REMARK   10  A    between atoms: C_22  and  C_23
REMARK   11  A    between atoms: C_24  and  C_25
REMARK                            x       y       z     vdW  Elec       q    Type
REMARK                         _______ _______ _______ _____ _____    ______ ____
ROOT
ATOM      3  N   UNL     1     -13.719   8.842  31.886  0.00  0.00    -0.299 NA
ATOM      4  N   UNL     1     -10.792   9.199  35.986  0.00  0.00    -0.343 N 
ATOM      6  C   UNL     1     -12.450   9.417  31.420  0.00  0.00    +0.085 C 
ATOM      7  C   UNL     1     -11.447   9.798  32.513  0.00  0.00    -0.021 A 
ATOM      8  C   UNL     1     -13.592   7.566  32.574  0.00  0.00    +0.145 C 
ATOM      9  C   UNL     1     -11.493   9.346  33.864  0.00  0.00    +0.008 A 
ATOM     11  C   UNL     1     -13.570   7.745  34.090  0.00  0.00    +0.065 C 
ATOM     12  C   UNL     1     -12.370   8.473  34.596  0.00  0.00    -0.020 A 
ATOM     13  C   UNL     1     -10.504   9.760  34.763  0.00  0.00    +0.050 A 
ATOM     15  C   UNL     1     -11.906   8.420  35.896  0.00  0.00    +0.090 A 
ATOM     16  C   UNL     1     -10.333  10.603  32.160  0.00  0.00    +0.006 A 
ATOM     18  C   UNL     1      -9.440  10.591  34.408  0.00  0.00    +0.026 A 
ATOM     19  C   UNL     1      -9.364  10.996  33.081  0.00  0.00    +0.002 A 
ATOM     33  H   UNL     1     -14.238   9.514  32.450  0.00  0.00    +0.123 HD
ENDROOT
BRANCH   8  17
ATOM      1  O   UNL     1     -15.539   7.139  31.262  0.00  0.00    -0.274 OA
ATOM      5  N   UNL     1     -15.013   5.687  33.004  0.00  0.00    -0.310 N 
ATOM     17  C   UNL     1     -14.814   6.789  32.190  0.00  0.00    +0.231 C 
ATOM     34  H   UNL     1     -14.335   5.474  33.729  0.00  0.00    +0.149 HD
BRANCH   5  24
ATOM     24  C   UNL     1     -16.134   4.786  32.855  0.00  0.00    +0.139 C 
BRANCH  24  25
ATOM     25  C   UNL     1     -15.705   3.433  32.366  0.00  0.00    -0.030 A 
ATOM     27  C   UNL     1     -15.813   3.113  31.013  0.00  0.00    +0.009 A 
ATOM     28  C   UNL     1     -15.199   2.495  33.267  0.00  0.00    +0.009 A 
ATOM     29  C   UNL     1     -15.414   1.855  30.560  0.00  0.00    +0.046 A 
ATOM     30  C   UNL     1     -14.800   1.237  32.813  0.00  0.00    +0.046 A 
ATOM     31  C   UNL     1     -14.908   0.917  31.460  0.00  0.00    +0.120 A 
BRANCH  31   2
ATOM      2  O   UNL     1     -14.519  -0.310  31.017  0.00  0.00    -0.495 OA
ATOM     32  C   UNL     1     -13.895  -0.369  29.735  0.00  0.00    +0.277 C 
ENDBRANCH  31   2
ENDBRANCH  24  25
ENDBRANCH   5  24
ENDBRANCH   8  17
BRANCH   6  10
ATOM     10  C   UNL     1     -12.863  10.618  30.552  0.00  0.00    +0.026 C 
BRANCH  10  14
ATOM     14  C   UNL     1     -12.470  10.458  29.080  0.00  0.00    -0.015 C 
ATOM     20  C   UNL     1     -11.387  11.481  28.732  0.00  0.00    +0.007 C 
ATOM     21  C   UNL     1     -13.659  10.620  28.132  0.00  0.00    +0.007 C 
ENDBRANCH  10  14
ENDBRANCH   6  10
BRANCH   4  22
ATOM     22  C   UNL     1     -10.022   9.382  37.197  0.00  0.00    +0.148 C 
BRANCH  22  23
ATOM     23  C   UNL     1      -8.888   8.405  37.309  0.00  0.00    -0.013 C 
ATOM     26  C   UNL     1      -7.635   8.670  36.924  0.00  0.00    +0.005 C 
ENDBRANCH  22  23
ENDBRANCH   4  22
TORSDOF 8
ENDMDL
