MODEL 1
REMARK VINA RESULT:      -6.4      0.000      0.000
REMARK  Name = 75536956
REMARK  4 active torsions:
REMARK  status: ('A' for Active; 'I' for Inactive)
REMARK    1  A    between atoms: O_2  and  C_8
REMARK    2  A    between atoms: N_3  and  C_6
REMARK    3  A    between atoms: N_4  and  C_17
REMARK    4  A    between atoms: C_6  and  C_9
REMARK                            x       y       z     vdW  Elec       q    Type
REMARK                         _______ _______ _______ _____ _____    ______ ____
ROOT
ATOM      6  C   UNL     1      14.559   8.291  19.263  0.00  0.00    +0.121 C 
ENDROOT
BRANCH   6   9
ATOM      4  N   UNL     1      17.472   9.265  21.289  0.00  0.00    -0.349 N 
ATOM      9  C   UNL     1      15.858   8.435  20.012  0.00  0.00    -0.008 A 
ATOM     12  C   UNL     1      16.916   7.487  20.063  0.00  0.00    +0.004 A 
ATOM     13  C   UNL     1      17.918   8.031  20.870  0.00  0.00    +0.049 A 
ATOM     14  C   UNL     1      16.228   9.518  20.776  0.00  0.00    +0.091 A 
ATOM     15  C   UNL     1      17.121   6.212  19.496  0.00  0.00    +0.010 A 
ATOM     16  C   UNL     1      19.116   7.364  21.140  0.00  0.00    +0.026 A 
ATOM     17  C   UNL     1      18.201  10.175  22.147  0.00  0.00    +0.149 C 
ATOM     18  C   UNL     1      18.315   5.533  19.758  0.00  0.00    +0.001 A 
ATOM     19  C   UNL     1      19.297   6.101  20.569  0.00  0.00    +0.002 A 
ENDBRANCH   6   9
BRANCH   6   3
ATOM      1  O   UNL     1      10.601   8.760  21.424  0.00  0.00    -0.376 OA
ATOM      3  N   UNL     1      13.410   8.256  20.168  0.00  0.00    -0.293 NA
ATOM      5  C   UNL     1      13.033   6.866  20.451  0.00  0.00    +0.118 C 
ATOM      7  C   UNL     1      12.313   9.089  19.673  0.00  0.00    +0.113 C 
ATOM      8  C   UNL     1      11.641   6.607  21.049  0.00  0.00    +0.154 C 
ATOM     10  C   UNL     1      11.528   9.670  20.849  0.00  0.00    +0.175 C 
ATOM     11  C   UNL     1      11.196   7.642  22.073  0.00  0.00    +0.192 C 
BRANCH   8   2
ATOM      2  O   UNL     1      11.664   5.332  21.691  0.00  0.00    -0.388 OA
ATOM     20  H   UNL     1      11.912   5.476  22.620  0.00  0.00    +0.210 HD
ENDBRANCH   8   2
ENDBRANCH   6   3
TORSDOF 3
ENDMDL
MODEL 2
REMARK VINA RESULT:      -5.9     15.832     16.966
REMARK  Name = 75536956
REMARK  4 active torsions:
REMARK  status: ('A' for Active; 'I' for Inactive)
REMARK    1  A    between atoms: O_2  and  C_8
REMARK    2  A    between atoms: N_3  and  C_6
REMARK    3  A    between atoms: N_4  and  C_17
REMARK    4  A    between atoms: C_6  and  C_9
REMARK                            x       y       z     vdW  Elec       q    Type
REMARK                         _______ _______ _______ _____ _____    ______ ____
ROOT
ATOM      6  C   UNL     1       9.717   6.014   3.956  0.00  0.00    +0.121 C 
ENDROOT
BRANCH   6   9
ATOM      4  N   UNL     1      13.050   7.118   2.855  0.00  0.00    -0.349 N 
ATOM      9  C   UNL     1      11.105   6.199   3.403  0.00  0.00    -0.008 A 
ATOM     12  C   UNL     1      11.887   5.219   2.731  0.00  0.00    +0.004 A 
ATOM     13  C   UNL     1      13.102   5.821   2.396  0.00  0.00    +0.049 A 
ATOM     14  C   UNL     1      11.847   7.356   3.464  0.00  0.00    +0.091 A 
ATOM     15  C   UNL     1      11.676   3.872   2.372  0.00  0.00    +0.010 A 
ATOM     16  C   UNL     1      14.120   5.142   1.719  0.00  0.00    +0.026 A 
ATOM     17  C   UNL     1      14.103   8.101   2.719  0.00  0.00    +0.149 C 
ATOM     18  C   UNL     1      12.686   3.181   1.694  0.00  0.00    +0.001 A 
ATOM     19  C   UNL     1      13.890   3.808   1.374  0.00  0.00    +0.002 A 
ENDBRANCH   6   9
BRANCH   6   3
ATOM      1  O   UNL     1       8.696   6.987   8.265  0.00  0.00    -0.376 OA
ATOM      3  N   UNL     1       9.673   6.230   5.402  0.00  0.00    -0.293 NA
ATOM      5  C   UNL     1      10.061   5.004   6.108  0.00  0.00    +0.118 C 
ATOM      7  C   UNL     1       8.386   6.786   5.822  0.00  0.00    +0.113 C 
ATOM      8  C   UNL     1       9.711   4.892   7.600  0.00  0.00    +0.154 C 
ATOM     10  C   UNL     1       8.580   7.693   7.038  0.00  0.00    +0.175 C 
ATOM     11  C   UNL     1       9.870   6.190   8.380  0.00  0.00    +0.192 C 
BRANCH   8   2
ATOM      2  O   UNL     1      10.572   3.916   8.187  0.00  0.00    -0.388 OA
ATOM     20  H   UNL     1      11.453   4.318   8.274  0.00  0.00    +0.210 HD
ENDBRANCH   8   2
ENDBRANCH   6   3
TORSDOF 3
ENDMDL
MODEL 3
REMARK VINA RESULT:      -5.6      3.437      5.245
REMARK  Name = 75536956
REMARK  4 active torsions:
REMARK  status: ('A' for Active; 'I' for Inactive)
REMARK    1  A    between atoms: O_2  and  C_8
REMARK    2  A    between atoms: N_3  and  C_6
REMARK    3  A    between atoms: N_4  and  C_17
REMARK    4  A    between atoms: C_6  and  C_9
REMARK                            x       y       z     vdW  Elec       q    Type
REMARK                         _______ _______ _______ _____ _____    ______ ____
ROOT
ATOM      6  C   UNL     1      11.033   9.164  22.329  0.00  0.00    +0.121 C 
ENDROOT
BRANCH   6   9
ATOM      4  N   UNL     1      12.159   8.172  18.969  0.00  0.00    -0.349 N 
ATOM      9  C   UNL     1      11.735   8.678  21.088  0.00  0.00    -0.008 A 
ATOM     12  C   UNL     1      13.043   8.126  21.016  0.00  0.00    +0.004 A 
ATOM     13  C   UNL     1      13.285   7.816  19.676  0.00  0.00    +0.049 A 
ATOM     14  C   UNL     1      11.216   8.694  19.814  0.00  0.00    +0.091 A 
ATOM     15  C   UNL     1      14.050   7.857  21.966  0.00  0.00    +0.010 A 
ATOM     16  C   UNL     1      14.486   7.250  19.236  0.00  0.00    +0.026 A 
ATOM     17  C   UNL     1      11.980   8.023  17.541  0.00  0.00    +0.149 C 
ATOM     18  C   UNL     1      15.256   7.291  21.541  0.00  0.00    +0.001 A 
ATOM     19  C   UNL     1      15.470   6.993  20.196  0.00  0.00    +0.002 A 
ENDBRANCH   6   9
BRANCH   6   3
ATOM      1  O   UNL     1      12.481  13.418  22.931  0.00  0.00    -0.376 OA
ATOM      3  N   UNL     1      11.581  10.436  22.801  0.00  0.00    -0.293 NA
ATOM      5  C   UNL     1      10.968  10.804  24.083  0.00  0.00    +0.118 C 
ATOM      7  C   UNL     1      11.495  11.472  21.771  0.00  0.00    +0.113 C 
ATOM      8  C   UNL     1      11.104  12.261  24.552  0.00  0.00    +0.154 C 
ATOM     10  C   UNL     1      12.665  12.446  21.912  0.00  0.00    +0.175 C 
ATOM     11  C   UNL     1      12.458  12.892  24.253  0.00  0.00    +0.192 C 
BRANCH   8   2
ATOM      2  O   UNL     1      10.904  12.294  25.965  0.00  0.00    -0.388 OA
ATOM     20  H   UNL     1      10.018  11.936  26.143  0.00  0.00    +0.210 HD
ENDBRANCH   8   2
ENDBRANCH   6   3
TORSDOF 3
ENDMDL
MODEL 4
REMARK VINA RESULT:      -5.6      3.304      6.478
REMARK  Name = 75536956
REMARK  4 active torsions:
REMARK  status: ('A' for Active; 'I' for Inactive)
REMARK    1  A    between atoms: O_2  and  C_8
REMARK    2  A    between atoms: N_3  and  C_6
REMARK    3  A    between atoms: N_4  and  C_17
REMARK    4  A    between atoms: C_6  and  C_9
REMARK                            x       y       z     vdW  Elec       q    Type
REMARK                         _______ _______ _______ _____ _____    ______ ____
ROOT
ATOM      6  C   UNL     1      13.647  10.800  20.737  0.00  0.00    +0.121 C 
ENDROOT
BRANCH   6   9
ATOM      4  N   UNL     1      11.434  13.735  20.907  0.00  0.00    -0.349 N 
ATOM      9  C   UNL     1      12.682  11.907  21.071  0.00  0.00    -0.008 A 
ATOM     12  C   UNL     1      11.967  12.069  22.290  0.00  0.00    +0.004 A 
ATOM     13  C   UNL     1      11.192  13.223  22.162  0.00  0.00    +0.049 A 
ATOM     14  C   UNL     1      12.333  12.946  20.240  0.00  0.00    +0.091 A 
ATOM     15  C   UNL     1      11.905  11.342  23.496  0.00  0.00    +0.010 A 
ATOM     16  C   UNL     1      10.355  13.689  23.181  0.00  0.00    +0.026 A 
ATOM     17  C   UNL     1      10.834  14.932  20.356  0.00  0.00    +0.149 C 
ATOM     18  C   UNL     1      11.073  11.796  24.524  0.00  0.00    +0.001 A 
ATOM     19  C   UNL     1      10.309  12.952  24.368  0.00  0.00    +0.002 A 
ENDBRANCH   6   9
BRANCH   6   3
ATOM      1  O   UNL     1      11.189   7.002  20.439  0.00  0.00    -0.376 OA
ATOM      3  N   UNL     1      13.030   9.480  20.873  0.00  0.00    -0.293 NA
ATOM      5  C   UNL     1      14.060   8.436  20.829  0.00  0.00    +0.118 C 
ATOM      7  C   UNL     1      11.942   9.296  19.913  0.00  0.00    +0.113 C 
ATOM      8  C   UNL     1      13.606   6.991  20.563  0.00  0.00    +0.154 C 
ATOM     10  C   UNL     1      10.869   8.384  20.509  0.00  0.00    +0.175 C 
ATOM     11  C   UNL     1      12.297   6.611  21.241  0.00  0.00    +0.192 C 
BRANCH   8   2
ATOM      2  O   UNL     1      14.624   6.111  21.041  0.00  0.00    -0.388 OA
ATOM     20  H   UNL     1      15.114   6.581  21.737  0.00  0.00    +0.210 HD
ENDBRANCH   8   2
ENDBRANCH   6   3
TORSDOF 3
ENDMDL
MODEL 5
REMARK VINA RESULT:      -5.6     27.378     28.607
REMARK  Name = 75536956
REMARK  4 active torsions:
REMARK  status: ('A' for Active; 'I' for Inactive)
REMARK    1  A    between atoms: O_2  and  C_8
REMARK    2  A    between atoms: N_3  and  C_6
REMARK    3  A    between atoms: N_4  and  C_17
REMARK    4  A    between atoms: C_6  and  C_9
REMARK                            x       y       z     vdW  Elec       q    Type
REMARK                         _______ _______ _______ _____ _____    ______ ____
ROOT
ATOM      6  C   UNL     1      -3.636 -10.708  14.910  0.00  0.00    +0.121 C 
ENDROOT
BRANCH   6   9
ATOM      4  N   UNL     1      -6.699  -9.762  16.717  0.00  0.00    -0.349 N 
ATOM      9  C   UNL     1      -4.768 -10.458  15.871  0.00  0.00    -0.008 A 
ATOM     12  C   UNL     1      -4.842 -10.887  17.225  0.00  0.00    +0.004 A 
ATOM     13  C   UNL     1      -6.062 -10.437  17.733  0.00  0.00    +0.049 A 
ATOM     14  C   UNL     1      -5.925  -9.769  15.587  0.00  0.00    +0.091 A 
ATOM     15  C   UNL     1      -3.982 -11.618  18.071  0.00  0.00    +0.010 A 
ATOM     16  C   UNL     1      -6.469 -10.682  19.049  0.00  0.00    +0.026 A 
ATOM     17  C   UNL     1      -7.997  -9.129  16.811  0.00  0.00    +0.149 C 
ATOM     18  C   UNL     1      -4.376 -11.869  19.390  0.00  0.00    +0.001 A 
ATOM     19  C   UNL     1      -5.601 -11.408  19.870  0.00  0.00    +0.002 A 
ENDBRANCH   6   9
BRANCH   6   3
ATOM      1  O   UNL     1      -3.715 -15.135  13.933  0.00  0.00    -0.376 OA
ATOM      3  N   UNL     1      -3.384 -12.138  14.726  0.00  0.00    -0.293 NA
ATOM      5  C   UNL     1      -2.094 -12.341  14.056  0.00  0.00    +0.118 C 
ATOM      7  C   UNL     1      -4.514 -12.801  14.073  0.00  0.00    +0.113 C 
ATOM      8  C   UNL     1      -1.822 -13.715  13.425  0.00  0.00    +0.154 C 
ATOM     10  C   UNL     1      -4.625 -14.245  14.563  0.00  0.00    +0.175 C 
ATOM     11  C   UNL     1      -2.346 -14.893  14.236  0.00  0.00    +0.192 C 
BRANCH   8   2
ATOM      2  O   UNL     1      -0.409 -13.868  13.287  0.00  0.00    -0.388 OA
ATOM     20  H   UNL     1      -0.124 -14.543  13.927  0.00  0.00    +0.210 HD
ENDBRANCH   8   2
ENDBRANCH   6   3
TORSDOF 3
ENDMDL
MODEL 6
REMARK VINA RESULT:      -5.6     26.586     28.510
REMARK  Name = 75536956
REMARK  4 active torsions:
REMARK  status: ('A' for Active; 'I' for Inactive)
REMARK    1  A    between atoms: O_2  and  C_8
REMARK    2  A    between atoms: N_3  and  C_6
REMARK    3  A    between atoms: N_4  and  C_17
REMARK    4  A    between atoms: C_6  and  C_9
REMARK                            x       y       z     vdW  Elec       q    Type
REMARK                         _______ _______ _______ _____ _____    ______ ____
ROOT
ATOM      6  C   UNL     1     -12.790   6.184  21.220  0.00  0.00    +0.121 C 
ENDROOT
BRANCH   6   9
ATOM      4  N   UNL     1     -12.198   9.799  20.872  0.00  0.00    -0.349 N 
ATOM      9  C   UNL     1     -12.422   7.591  20.830  0.00  0.00    -0.008 A 
ATOM     12  C   UNL     1     -11.734   7.991  19.651  0.00  0.00    +0.004 A 
ATOM     13  C   UNL     1     -11.607   9.381  19.701  0.00  0.00    +0.049 A 
ATOM     14  C   UNL     1     -12.694   8.724  21.561  0.00  0.00    +0.091 A 
ATOM     15  C   UNL     1     -11.207   7.301  18.540  0.00  0.00    +0.010 A 
ATOM     16  C   UNL     1     -10.977  10.119  18.694  0.00  0.00    +0.026 A 
ATOM     17  C   UNL     1     -12.292  11.171  21.324  0.00  0.00    +0.149 C 
ATOM     18  C   UNL     1     -10.573   8.027  17.525  0.00  0.00    +0.001 A 
ATOM     19  C   UNL     1     -10.460   9.414  17.603  0.00  0.00    +0.002 A 
ENDBRANCH   6   9
BRANCH   6   3
ATOM      1  O   UNL     1     -17.095   5.963  22.625  0.00  0.00    -0.376 OA
ATOM      3  N   UNL     1     -14.055   6.135  21.954  0.00  0.00    -0.293 NA
ATOM      5  C   UNL     1     -14.003   5.088  22.980  0.00  0.00    +0.118 C 
ATOM      7  C   UNL     1     -15.197   6.033  21.044  0.00  0.00    +0.113 C 
ATOM      8  C   UNL     1     -15.333   4.611  23.587  0.00  0.00    +0.154 C 
ATOM     10  C   UNL     1     -16.411   6.738  21.650  0.00  0.00    +0.175 C 
ATOM     11  C   UNL     1     -16.352   5.719  23.814  0.00  0.00    +0.192 C 
BRANCH   8   2
ATOM      2  O   UNL     1     -15.052   4.003  24.848  0.00  0.00    -0.388 OA
ATOM     20  H   UNL     1     -15.335   4.624  25.541  0.00  0.00    +0.210 HD
ENDBRANCH   8   2
ENDBRANCH   6   3
TORSDOF 3
ENDMDL
MODEL 7
REMARK VINA RESULT:      -5.5     25.795     27.408
REMARK  Name = 75536956
REMARK  4 active torsions:
REMARK  status: ('A' for Active; 'I' for Inactive)
REMARK    1  A    between atoms: O_2  and  C_8
REMARK    2  A    between atoms: N_3  and  C_6
REMARK    3  A    between atoms: N_4  and  C_17
REMARK    4  A    between atoms: C_6  and  C_9
REMARK                            x       y       z     vdW  Elec       q    Type
REMARK                         _______ _______ _______ _____ _____    ______ ____
ROOT
ATOM      6  C   UNL     1     -10.222   9.581  19.079  0.00  0.00    +0.121 C 
ENDROOT
BRANCH   6   9
ATOM      4  N   UNL     1     -12.990  10.318  21.387  0.00  0.00    -0.349 N 
ATOM      9  C   UNL     1     -11.378   9.597  20.043  0.00  0.00    -0.008 A 
ATOM     12  C   UNL     1     -12.042   8.464  20.590  0.00  0.00    +0.004 A 
ATOM     13  C   UNL     1     -13.049   8.944  21.430  0.00  0.00    +0.049 A 
ATOM     14  C   UNL     1     -11.984  10.723  20.552  0.00  0.00    +0.091 A 
ATOM     15  C   UNL     1     -11.881   7.070  20.451  0.00  0.00    +0.010 A 
ATOM     16  C   UNL     1     -13.906   8.098  22.141  0.00  0.00    +0.026 A 
ATOM     17  C   UNL     1     -13.858  11.220  22.114  0.00  0.00    +0.149 C 
ATOM     18  C   UNL     1     -12.732   6.212  21.155  0.00  0.00    +0.001 A 
ATOM     19  C   UNL     1     -13.730   6.719  21.987  0.00  0.00    +0.002 A 
ENDBRANCH   6   9
BRANCH   6   3
ATOM      1  O   UNL     1     -11.036  10.909  14.821  0.00  0.00    -0.376 OA
ATOM      3  N   UNL     1     -10.664   9.760  17.696  0.00  0.00    -0.293 NA
ATOM      5  C   UNL     1     -10.426   8.533  16.927  0.00  0.00    +0.118 C 
ATOM      7  C   UNL     1     -10.086  10.966  17.101  0.00  0.00    +0.113 C 
ATOM      8  C   UNL     1     -10.451   8.631  15.393  0.00  0.00    +0.154 C 
ATOM     10  C   UNL     1     -11.057  11.563  16.082  0.00  0.00    +0.175 C 
ATOM     11  C   UNL     1     -11.516   9.569  14.841  0.00  0.00    +0.192 C 
BRANCH   8   2
ATOM      2  O   UNL     1     -10.698   7.326  14.869  0.00  0.00    -0.388 OA
ATOM     20  H   UNL     1     -11.534   7.363  14.375  0.00  0.00    +0.210 HD
ENDBRANCH   8   2
ENDBRANCH   6   3
TORSDOF 3
ENDMDL
MODEL 8
REMARK VINA RESULT:      -5.4      3.655      5.641
REMARK  Name = 75536956
REMARK  4 active torsions:
REMARK  status: ('A' for Active; 'I' for Inactive)
REMARK    1  A    between atoms: O_2  and  C_8
REMARK    2  A    between atoms: N_3  and  C_6
REMARK    3  A    between atoms: N_4  and  C_17
REMARK    4  A    between atoms: C_6  and  C_9
REMARK                            x       y       z     vdW  Elec       q    Type
REMARK                         _______ _______ _______ _____ _____    ______ ____
ROOT
ATOM      6  C   UNL     1      13.817   8.802  20.181  0.00  0.00    +0.121 C 
ENDROOT
BRANCH   6   9
ATOM      4  N   UNL     1      14.302  10.151  16.793  0.00  0.00    -0.349 N 
ATOM      9  C   UNL     1      13.749   9.257  18.748  0.00  0.00    -0.008 A 
ATOM     12  C   UNL     1      12.656   9.086  17.855  0.00  0.00    +0.004 A 
ATOM     13  C   UNL     1      13.027   9.656  16.635  0.00  0.00    +0.049 A 
ATOM     14  C   UNL     1      14.747   9.915  18.066  0.00  0.00    +0.091 A 
ATOM     15  C   UNL     1      11.379   8.499  17.967  0.00  0.00    +0.010 A 
ATOM     16  C   UNL     1      12.185   9.668  15.519  0.00  0.00    +0.026 A 
ATOM     17  C   UNL     1      15.074  10.827  15.772  0.00  0.00    +0.149 C 
ATOM     18  C   UNL     1      10.525   8.504  16.859  0.00  0.00    +0.001 A 
ATOM     19  C   UNL     1      10.924   9.080  15.653  0.00  0.00    +0.002 A 
ENDBRANCH   6   9
BRANCH   6   3
ATOM      1  O   UNL     1      10.611  10.022  23.147  0.00  0.00    -0.376 OA
ATOM      3  N   UNL     1      12.818   9.474  21.013  0.00  0.00    -0.293 NA
ATOM      5  C   UNL     1      13.405  10.658  21.650  0.00  0.00    +0.118 C 
ATOM      7  C   UNL     1      12.182   8.541  21.944  0.00  0.00    +0.113 C 
ATOM      8  C   UNL     1      12.663  11.272  22.848  0.00  0.00    +0.154 C 
ATOM     10  C   UNL     1      10.736   8.968  22.204  0.00  0.00    +0.175 C 
ATOM     11  C   UNL     1      11.146  11.269  22.715  0.00  0.00    +0.192 C 
BRANCH   8   2
ATOM      2  O   UNL     1      13.091  12.627  22.989  0.00  0.00    -0.388 OA
ATOM     20  H   UNL     1      13.187  12.998  22.095  0.00  0.00    +0.210 HD
ENDBRANCH   8   2
ENDBRANCH   6   3
TORSDOF 3
ENDMDL
MODEL 9
REMARK VINA RESULT:      -5.3     25.887     28.200
REMARK  Name = 75536956
REMARK  4 active torsions:
REMARK  status: ('A' for Active; 'I' for Inactive)
REMARK    1  A    between atoms: O_2  and  C_8
REMARK    2  A    between atoms: N_3  and  C_6
REMARK    3  A    between atoms: N_4  and  C_17
REMARK    4  A    between atoms: C_6  and  C_9
REMARK                            x       y       z     vdW  Elec       q    Type
REMARK                         _______ _______ _______ _____ _____    ______ ____
ROOT
ATOM      6  C   UNL     1      -6.231 -10.607  15.478  0.00  0.00    +0.121 C 
ENDROOT
BRANCH   6   9
ATOM      4  N   UNL     1      -2.563 -10.699  15.207  0.00  0.00    -0.349 N 
ATOM      9  C   UNL     1      -4.778 -10.618  15.085  0.00  0.00    -0.008 A 
ATOM     12  C   UNL     1      -4.256 -10.525  13.765  0.00  0.00    +0.004 A 
ATOM     13  C   UNL     1      -2.864 -10.578  13.869  0.00  0.00    +0.049 A 
ATOM     14  C   UNL     1      -3.713 -10.724  15.950  0.00  0.00    +0.091 A 
ATOM     15  C   UNL     1      -4.836 -10.400  12.486  0.00  0.00    +0.010 A 
ATOM     16  C   UNL     1      -2.020 -10.511  12.756  0.00  0.00    +0.026 A 
ATOM     17  C   UNL     1      -1.230 -10.786  15.765  0.00  0.00    +0.149 C 
ATOM     18  C   UNL     1      -4.004 -10.333  11.364  0.00  0.00    +0.001 A 
ATOM     19  C   UNL     1      -2.617 -10.388  11.498  0.00  0.00    +0.002 A 
ENDBRANCH   6   9
BRANCH   6   3
ATOM      1  O   UNL     1      -7.248 -11.141  19.864  0.00  0.00    -0.376 OA
ATOM      3  N   UNL     1      -6.427 -11.053  16.857  0.00  0.00    -0.293 NA
ATOM      5  C   UNL     1      -7.091 -12.362  16.875  0.00  0.00    +0.118 C 
ATOM      7  C   UNL     1      -7.091 -10.028  17.663  0.00  0.00    +0.113 C 
ATOM      8  C   UNL     1      -7.732 -12.824  18.193  0.00  0.00    +0.154 C 
ATOM     10  C   UNL     1      -6.615 -10.115  19.113  0.00  0.00    +0.175 C 
ATOM     11  C   UNL     1      -6.935 -12.463  19.439  0.00  0.00    +0.192 C 
BRANCH   8   2
ATOM      2  O   UNL     1      -7.863 -14.245  18.148  0.00  0.00    -0.388 OA
ATOM     20  H   UNL     1      -7.740 -14.522  17.225  0.00  0.00    +0.210 HD
ENDBRANCH   8   2
ENDBRANCH   6   3
TORSDOF 3
ENDMDL
MODEL 10
REMARK VINA RESULT:      -5.3     31.371     32.410
REMARK  Name = 75536956
REMARK  4 active torsions:
REMARK  status: ('A' for Active; 'I' for Inactive)
REMARK    1  A    between atoms: O_2  and  C_8
REMARK    2  A    between atoms: N_3  and  C_6
REMARK    3  A    between atoms: N_4  and  C_17
REMARK    4  A    between atoms: C_6  and  C_9
REMARK                            x       y       z     vdW  Elec       q    Type
REMARK                         _______ _______ _______ _____ _____    ______ ____
ROOT
ATOM      6  C   UNL     1     -17.178   2.732  28.344  0.00  0.00    +0.121 C 
ENDROOT
BRANCH   6   9
ATOM      4  N   UNL     1     -14.448   0.894  29.989  0.00  0.00    -0.349 N 
ATOM      9  C   UNL     1     -16.030   2.219  29.173  0.00  0.00    -0.008 A 
ATOM     12  C   UNL     1     -15.343   2.926  30.198  0.00  0.00    +0.004 A 
ATOM     13  C   UNL     1     -14.355   2.072  30.695  0.00  0.00    +0.049 A 
ATOM     14  C   UNL     1     -15.457   0.973  29.067  0.00  0.00    +0.091 A 
ATOM     15  C   UNL     1     -15.468   4.215  30.755  0.00  0.00    +0.010 A 
ATOM     16  C   UNL     1     -13.483   2.443  31.723  0.00  0.00    +0.026 A 
ATOM     17  C   UNL     1     -13.609  -0.270  30.181  0.00  0.00    +0.149 C 
ATOM     18  C   UNL     1     -14.602   4.600  31.784  0.00  0.00    +0.001 A 
ATOM     19  C   UNL     1     -13.624   3.727  32.259  0.00  0.00    +0.002 A 
ENDBRANCH   6   9
BRANCH   6   3
ATOM      1  O   UNL     1     -17.026   2.135  23.851  0.00  0.00    -0.376 OA
ATOM      3  N   UNL     1     -16.871   2.705  26.913  0.00  0.00    -0.293 NA
ATOM      5  C   UNL     1     -16.662   4.069  26.416  0.00  0.00    +0.118 C 
ATOM      7  C   UNL     1     -17.868   1.936  26.166  0.00  0.00    +0.113 C 
ATOM      8  C   UNL     1     -16.717   4.296  24.897  0.00  0.00    +0.154 C 
ATOM     10  C   UNL     1     -17.212   1.265  24.959  0.00  0.00    +0.175 C 
ATOM     11  C   UNL     1     -16.087   3.182  24.073  0.00  0.00    +0.192 C 
BRANCH   8   2
ATOM      2  O   UNL     1     -16.023   5.509  24.603  0.00  0.00    -0.388 OA
ATOM     20  H   UNL     1     -16.667   6.132  24.226  0.00  0.00    +0.210 HD
ENDBRANCH   8   2
ENDBRANCH   6   3
TORSDOF 3
ENDMDL
