MODEL 1
REMARK VINA RESULT:      -6.3      0.000      0.000
REMARK  Name = 75536633
REMARK  7 active torsions:
REMARK  status: ('A' for Active; 'I' for Inactive)
REMARK    1  A    between atoms: O_3  and  C_8
REMARK    2  A    between atoms: N_5  and  C_7
REMARK    3  A    between atoms: N_5  and  C_12
REMARK    4  A    between atoms: N_5  and  C_13
REMARK    5  A    between atoms: N_6  and  C_11
REMARK    6  A    between atoms: C_9  and  C_11
REMARK    7  A    between atoms: C_14  and  C_15
REMARK                            x       y       z     vdW  Elec       q    Type
REMARK                         _______ _______ _______ _____ _____    ______ ____
ROOT
ATOM      4  O   UNL     1      14.106   7.005  18.701  0.00  0.00    -0.270 OA
ATOM      6  N   UNL     1      13.776   6.631  20.967  0.00  0.00    -0.309 N 
ATOM     14  C   UNL     1      14.549   6.742  19.815  0.00  0.00    +0.244 C 
ATOM     22  H   UNL     1      14.197   6.342  21.844  0.00  0.00    +0.149 HD
ENDROOT
BRANCH  14  15
ATOM      1  F   UNL     1      20.052   5.807  20.425  0.00  0.00    -0.205 F 
ATOM     15  C   UNL     1      16.006   6.494  19.977  0.00  0.00    +0.037 A 
ATOM     16  C   UNL     1      16.729   5.888  18.949  0.00  0.00    +0.016 A 
ATOM     17  C   UNL     1      16.650   6.867  21.156  0.00  0.00    +0.016 A 
ATOM     18  C   UNL     1      18.094   5.656  19.100  0.00  0.00    +0.039 A 
ATOM     19  C   UNL     1      18.017   6.635  21.307  0.00  0.00    +0.039 A 
ATOM     20  C   UNL     1      18.740   6.029  20.279  0.00  0.00    +0.123 A 
ENDBRANCH  14  15
BRANCH   6  11
ATOM     11  C   UNL     1      12.354   6.817  20.968  0.00  0.00    +0.138 C 
BRANCH  11   9
ATOM      2  O   UNL     1      10.627   8.444  21.433  0.00  0.00    -0.371 OA
ATOM      7  C   UNL     1      11.905  10.261  22.274  0.00  0.00    +0.113 C 
ATOM      8  C   UNL     1      12.835   9.098  21.977  0.00  0.00    +0.164 C 
ATOM      9  C   UNL     1      11.989   8.291  21.001  0.00  0.00    +0.165 C 
ATOM     10  C   UNL     1      10.558   9.561  22.337  0.00  0.00    +0.181 C 
BRANCH   7   5
ATOM      5  N   UNL     1      12.233  10.970  23.500  0.00  0.00    -0.301 NA
ATOM     12  C   UNL     1      12.851  12.265  23.203  0.00  0.00    +0.105 C 
ATOM     13  C   UNL     1      11.037  11.161  24.327  0.00  0.00    +0.105 C 
ENDBRANCH   7   5
BRANCH   8   3
ATOM      3  O   UNL     1      14.058   9.511  21.398  0.00  0.00    -0.388 OA
ATOM     21  H   UNL     1      14.081   9.199  20.478  0.00  0.00    +0.210 HD
ENDBRANCH   8   3
ENDBRANCH  11   9
ENDBRANCH   6  11
TORSDOF 5
ENDMDL
MODEL 2
REMARK VINA RESULT:      -6.2      1.410      1.958
REMARK  Name = 75536633
REMARK  7 active torsions:
REMARK  status: ('A' for Active; 'I' for Inactive)
REMARK    1  A    between atoms: O_3  and  C_8
REMARK    2  A    between atoms: N_5  and  C_7
REMARK    3  A    between atoms: N_5  and  C_12
REMARK    4  A    between atoms: N_5  and  C_13
REMARK    5  A    between atoms: N_6  and  C_11
REMARK    6  A    between atoms: C_9  and  C_11
REMARK    7  A    between atoms: C_14  and  C_15
REMARK                            x       y       z     vdW  Elec       q    Type
REMARK                         _______ _______ _______ _____ _____    ______ ____
ROOT
ATOM      4  O   UNL     1      14.486   7.302  18.558  0.00  0.00    -0.270 OA
ATOM      6  N   UNL     1      13.901   6.291  20.564  0.00  0.00    -0.309 N 
ATOM     14  C   UNL     1      14.803   6.783  19.625  0.00  0.00    +0.244 C 
ATOM     22  H   UNL     1      14.233   5.811  21.394  0.00  0.00    +0.149 HD
ENDROOT
BRANCH  14  15
ATOM      1  F   UNL     1      20.246   6.214  20.881  0.00  0.00    -0.205 F 
ATOM     15  C   UNL     1      16.244   6.632  19.958  0.00  0.00    +0.037 A 
ATOM     16  C   UNL     1      17.062   5.825  19.167  0.00  0.00    +0.016 A 
ATOM     17  C   UNL     1      16.778   7.297  21.061  0.00  0.00    +0.016 A 
ATOM     18  C   UNL     1      18.413   5.683  19.478  0.00  0.00    +0.039 A 
ATOM     19  C   UNL     1      18.130   7.156  21.373  0.00  0.00    +0.039 A 
ATOM     20  C   UNL     1      18.948   6.349  20.582  0.00  0.00    +0.123 A 
ENDBRANCH  14  15
BRANCH   6  11
ATOM     11  C   UNL     1      12.480   6.342  20.375  0.00  0.00    +0.138 C 
BRANCH  11   9
ATOM      2  O   UNL     1      12.747   8.014  22.101  0.00  0.00    -0.371 OA
ATOM      7  C   UNL     1      11.709   9.899  21.095  0.00  0.00    +0.113 C 
ATOM      8  C   UNL     1      11.690   8.742  20.113  0.00  0.00    +0.164 C 
ATOM      9  C   UNL     1      11.875   7.558  21.053  0.00  0.00    +0.165 C 
ATOM     10  C   UNL     1      12.788   9.451  22.068  0.00  0.00    +0.181 C 
BRANCH   7   5
ATOM      5  N   UNL     1      12.000  11.182  20.478  0.00  0.00    -0.301 NA
ATOM     12  C   UNL     1      12.106  12.236  21.491  0.00  0.00    +0.105 C 
ATOM     13  C   UNL     1      13.236  11.115  19.692  0.00  0.00    +0.105 C 
ENDBRANCH   7   5
BRANCH   8   3
ATOM      3  O   UNL     1      10.477   8.658  19.391  0.00  0.00    -0.388 OA
ATOM     21  H   UNL     1      10.065   7.799  19.585  0.00  0.00    +0.210 HD
ENDBRANCH   8   3
ENDBRANCH  11   9
ENDBRANCH   6  11
TORSDOF 5
ENDMDL
MODEL 3
REMARK VINA RESULT:      -6.1      3.028      4.248
REMARK  Name = 75536633
REMARK  7 active torsions:
REMARK  status: ('A' for Active; 'I' for Inactive)
REMARK    1  A    between atoms: O_3  and  C_8
REMARK    2  A    between atoms: N_5  and  C_7
REMARK    3  A    between atoms: N_5  and  C_12
REMARK    4  A    between atoms: N_5  and  C_13
REMARK    5  A    between atoms: N_6  and  C_11
REMARK    6  A    between atoms: C_9  and  C_11
REMARK    7  A    between atoms: C_14  and  C_15
REMARK                            x       y       z     vdW  Elec       q    Type
REMARK                         _______ _______ _______ _____ _____    ______ ____
ROOT
ATOM      4  O   UNL     1      16.151   5.895  18.845  0.00  0.00    -0.270 OA
ATOM      6  N   UNL     1      15.148   6.904  20.679  0.00  0.00    -0.309 N 
ATOM     14  C   UNL     1      16.236   6.510  19.905  0.00  0.00    +0.244 C 
ATOM     22  H   UNL     1      15.292   7.348  21.580  0.00  0.00    +0.149 HD
ENDROOT
BRANCH  14  15
ATOM      1  F   UNL     1      21.314   7.803  21.924  0.00  0.00    -0.205 F 
ATOM     15  C   UNL     1      17.580   6.852  20.440  0.00  0.00    +0.037 A 
ATOM     16  C   UNL     1      18.666   6.016  20.183  0.00  0.00    +0.016 A 
ATOM     17  C   UNL     1      17.754   8.009  21.200  0.00  0.00    +0.016 A 
ATOM     18  C   UNL     1      19.927   6.336  20.684  0.00  0.00    +0.039 A 
ATOM     19  C   UNL     1      19.016   8.330  21.701  0.00  0.00    +0.039 A 
ATOM     20  C   UNL     1      20.103   7.493  21.443  0.00  0.00    +0.123 A 
ENDBRANCH  14  15
BRANCH   6  11
ATOM     11  C   UNL     1      13.791   6.625  20.309  0.00  0.00    +0.138 C 
BRANCH  11   9
ATOM      2  O   UNL     1      13.944   8.991  19.834  0.00  0.00    -0.371 OA
ATOM      7  C   UNL     1      13.033   9.092  17.643  0.00  0.00    +0.113 C 
ATOM      8  C   UNL     1      13.074   7.643  18.095  0.00  0.00    +0.164 C 
ATOM      9  C   UNL     1      13.155   7.812  19.606  0.00  0.00    +0.165 C 
ATOM     10  C   UNL     1      14.016   9.736  18.605  0.00  0.00    +0.181 C 
BRANCH   7   5
ATOM      5  N   UNL     1      13.400   9.278  16.249  0.00  0.00    -0.301 NA
ATOM     12  C   UNL     1      12.217   9.557  15.430  0.00  0.00    +0.105 C 
ATOM     13  C   UNL     1      14.376  10.362  16.107  0.00  0.00    +0.105 C 
ENDBRANCH   7   5
BRANCH   8   3
ATOM      3  O   UNL     1      11.924   6.917  17.706  0.00  0.00    -0.388 OA
ATOM     21  H   UNL     1      11.214   7.104  18.343  0.00  0.00    +0.210 HD
ENDBRANCH   8   3
ENDBRANCH  11   9
ENDBRANCH   6  11
TORSDOF 5
ENDMDL
MODEL 4
REMARK VINA RESULT:      -5.8      5.813      9.977
REMARK  Name = 75536633
REMARK  7 active torsions:
REMARK  status: ('A' for Active; 'I' for Inactive)
REMARK    1  A    between atoms: O_3  and  C_8
REMARK    2  A    between atoms: N_5  and  C_7
REMARK    3  A    between atoms: N_5  and  C_12
REMARK    4  A    between atoms: N_5  and  C_13
REMARK    5  A    between atoms: N_6  and  C_11
REMARK    6  A    between atoms: C_9  and  C_11
REMARK    7  A    between atoms: C_14  and  C_15
REMARK                            x       y       z     vdW  Elec       q    Type
REMARK                         _______ _______ _______ _____ _____    ______ ____
ROOT
ATOM      4  O   UNL     1      19.856   6.381  22.426  0.00  0.00    -0.270 OA
ATOM      6  N   UNL     1      20.875   6.415  20.341  0.00  0.00    -0.309 N 
ATOM     14  C   UNL     1      19.782   6.446  21.202  0.00  0.00    +0.244 C 
ATOM     22  H   UNL     1      20.738   6.402  19.336  0.00  0.00    +0.149 HD
ENDROOT
BRANCH  14  15
ATOM      1  F   UNL     1      14.727   6.801  18.782  0.00  0.00    -0.205 F 
ATOM     15  C   UNL     1      18.444   6.540  20.561  0.00  0.00    +0.037 A 
ATOM     16  C   UNL     1      18.139   5.738  19.462  0.00  0.00    +0.016 A 
ATOM     17  C   UNL     1      17.494   7.431  21.059  0.00  0.00    +0.016 A 
ATOM     18  C   UNL     1      16.885   5.826  18.860  0.00  0.00    +0.039 A 
ATOM     19  C   UNL     1      16.238   7.519  20.459  0.00  0.00    +0.039 A 
ATOM     20  C   UNL     1      15.934   6.716  19.358  0.00  0.00    +0.123 A 
ENDBRANCH  14  15
BRANCH   6  11
ATOM     11  C   UNL     1      22.226   6.301  20.807  0.00  0.00    +0.138 C 
BRANCH  11   9
ATOM      2  O   UNL     1      24.292   5.092  20.466  0.00  0.00    -0.371 OA
ATOM      7  C   UNL     1      23.622   2.866  20.952  0.00  0.00    +0.113 C 
ATOM      8  C   UNL     1      22.444   3.796  21.175  0.00  0.00    +0.164 C 
ATOM      9  C   UNL     1      22.863   5.002  20.344  0.00  0.00    +0.165 C 
ATOM     10  C   UNL     1      24.786   3.841  20.978  0.00  0.00    +0.181 C 
BRANCH   7   5
ATOM      5  N   UNL     1      23.736   1.820  21.955  0.00  0.00    -0.301 NA
ATOM     12  C   UNL     1      24.854   0.923  21.648  0.00  0.00    +0.105 C 
ATOM     13  C   UNL     1      23.907   2.397  23.292  0.00  0.00    +0.105 C 
ENDBRANCH   7   5
BRANCH   8   3
ATOM      3  O   UNL     1      21.220   3.246  20.725  0.00  0.00    -0.388 OA
ATOM     21  H   UNL     1      21.365   2.307  20.521  0.00  0.00    +0.210 HD
ENDBRANCH   8   3
ENDBRANCH  11   9
ENDBRANCH   6  11
TORSDOF 5
ENDMDL
MODEL 5
REMARK VINA RESULT:      -5.7     26.087     27.560
REMARK  Name = 75536633
REMARK  7 active torsions:
REMARK  status: ('A' for Active; 'I' for Inactive)
REMARK    1  A    between atoms: O_3  and  C_8
REMARK    2  A    between atoms: N_5  and  C_7
REMARK    3  A    between atoms: N_5  and  C_12
REMARK    4  A    between atoms: N_5  and  C_13
REMARK    5  A    between atoms: N_6  and  C_11
REMARK    6  A    between atoms: C_9  and  C_11
REMARK    7  A    between atoms: C_14  and  C_15
REMARK                            x       y       z     vdW  Elec       q    Type
REMARK                         _______ _______ _______ _____ _____    ______ ____
ROOT
ATOM      4  O   UNL     1      -1.795 -10.828  16.542  0.00  0.00    -0.270 OA
ATOM      6  N   UNL     1      -2.939 -10.380  14.573  0.00  0.00    -0.309 N 
ATOM     14  C   UNL     1      -2.843 -10.597  15.945  0.00  0.00    +0.244 C 
ATOM     22  H   UNL     1      -3.846 -10.265  14.134  0.00  0.00    +0.149 HD
ENDROOT
BRANCH  14  15
ATOM      1  F   UNL     1      -7.665 -10.477  18.819  0.00  0.00    -0.205 F 
ATOM     15  C   UNL     1      -4.119 -10.565  16.706  0.00  0.00    +0.037 A 
ATOM     16  C   UNL     1      -5.216  -9.869  16.199  0.00  0.00    +0.016 A 
ATOM     17  C   UNL     1      -4.220 -11.231  17.927  0.00  0.00    +0.016 A 
ATOM     18  C   UNL     1      -6.413  -9.838  16.912  0.00  0.00    +0.039 A 
ATOM     19  C   UNL     1      -5.417 -11.201  18.640  0.00  0.00    +0.039 A 
ATOM     20  C   UNL     1      -6.515 -10.505  18.133  0.00  0.00    +0.123 A 
ENDBRANCH  14  15
BRANCH   6  11
ATOM     11  C   UNL     1      -1.801 -10.405  13.702  0.00  0.00    +0.138 C 
BRANCH  11   9
ATOM      2  O   UNL     1      -3.464 -11.445  12.289  0.00  0.00    -0.371 OA
ATOM      7  C   UNL     1      -3.337 -10.095  10.338  0.00  0.00    +0.113 C 
ATOM      8  C   UNL     1      -2.384  -9.545  11.384  0.00  0.00    +0.164 C 
ATOM      9  C   UNL     1      -2.200 -10.762  12.281  0.00  0.00    +0.165 C 
ATOM     10  C   UNL     1      -4.254 -10.956  11.191  0.00  0.00    +0.181 C 
BRANCH   7   5
ATOM      5  N   UNL     1      -4.049  -9.066   9.600  0.00  0.00    -0.301 NA
ATOM     12  C   UNL     1      -4.792  -9.648   8.479  0.00  0.00    +0.105 C 
ATOM     13  C   UNL     1      -4.962  -8.331  10.481  0.00  0.00    +0.105 C 
ENDBRANCH   7   5
BRANCH   8   3
ATOM      3  O   UNL     1      -1.158  -9.109  10.829  0.00  0.00    -0.388 OA
ATOM     21  H   UNL     1      -0.741  -8.493  11.456  0.00  0.00    +0.210 HD
ENDBRANCH   8   3
ENDBRANCH  11   9
ENDBRANCH   6  11
TORSDOF 5
ENDMDL
MODEL 6
REMARK VINA RESULT:      -5.7     26.323     27.512
REMARK  Name = 75536633
REMARK  7 active torsions:
REMARK  status: ('A' for Active; 'I' for Inactive)
REMARK    1  A    between atoms: O_3  and  C_8
REMARK    2  A    between atoms: N_5  and  C_7
REMARK    3  A    between atoms: N_5  and  C_12
REMARK    4  A    between atoms: N_5  and  C_13
REMARK    5  A    between atoms: N_6  and  C_11
REMARK    6  A    between atoms: C_9  and  C_11
REMARK    7  A    between atoms: C_14  and  C_15
REMARK                            x       y       z     vdW  Elec       q    Type
REMARK                         _______ _______ _______ _____ _____    ______ ____
ROOT
ATOM      4  O   UNL     1      -1.851 -12.004  14.264  0.00  0.00    -0.270 OA
ATOM      6  N   UNL     1      -3.199 -10.398  15.258  0.00  0.00    -0.309 N 
ATOM     14  C   UNL     1      -2.592 -11.029  14.176  0.00  0.00    +0.244 C 
ATOM     22  H   UNL     1      -3.744  -9.553  15.122  0.00  0.00    +0.149 HD
ENDROOT
BRANCH  14  15
ATOM      1  F   UNL     1      -3.603  -8.803   9.121  0.00  0.00    -0.205 F 
ATOM     15  C   UNL     1      -2.859 -10.439  12.838  0.00  0.00    +0.037 A 
ATOM     16  C   UNL     1      -1.799 -10.015  12.038  0.00  0.00    +0.016 A 
ATOM     17  C   UNL     1      -4.171 -10.310  12.383  0.00  0.00    +0.016 A 
ATOM     18  C   UNL     1      -2.049  -9.462  10.783  0.00  0.00    +0.039 A 
ATOM     19  C   UNL     1      -4.422  -9.758  11.127  0.00  0.00    +0.039 A 
ATOM     20  C   UNL     1      -3.361  -9.333  10.327  0.00  0.00    +0.123 A 
ENDBRANCH  14  15
BRANCH   6  11
ATOM     11  C   UNL     1      -3.017 -10.834  16.612  0.00  0.00    +0.138 C 
BRANCH  11   9
ATOM      2  O   UNL     1      -4.269 -11.582  18.541  0.00  0.00    -0.371 OA
ATOM      7  C   UNL     1      -6.489 -11.570  17.695  0.00  0.00    +0.113 C 
ATOM      8  C   UNL     1      -5.548 -11.061  16.619  0.00  0.00    +0.164 C 
ATOM      9  C   UNL     1      -4.218 -11.623  17.105  0.00  0.00    +0.165 C 
ATOM     10  C   UNL     1      -5.639 -11.403  18.944  0.00  0.00    +0.181 C 
BRANCH   7   5
ATOM      5  N   UNL     1      -7.745 -10.842  17.763  0.00  0.00    -0.301 NA
ATOM     12  C   UNL     1      -8.368 -10.999  19.080  0.00  0.00    +0.105 C 
ATOM     13  C   UNL     1      -7.538  -9.420  17.472  0.00  0.00    +0.105 C 
ENDBRANCH   7   5
BRANCH   8   3
ATOM      3  O   UNL     1      -5.882 -11.539  15.330  0.00  0.00    -0.388 OA
ATOM     21  H   UNL     1      -5.943 -10.778  14.729  0.00  0.00    +0.210 HD
ENDBRANCH   8   3
ENDBRANCH  11   9
ENDBRANCH   6  11
TORSDOF 5
ENDMDL
MODEL 7
REMARK VINA RESULT:      -5.7     16.658     19.003
REMARK  Name = 75536633
REMARK  7 active torsions:
REMARK  status: ('A' for Active; 'I' for Inactive)
REMARK    1  A    between atoms: O_3  and  C_8
REMARK    2  A    between atoms: N_5  and  C_7
REMARK    3  A    between atoms: N_5  and  C_12
REMARK    4  A    between atoms: N_5  and  C_13
REMARK    5  A    between atoms: N_6  and  C_11
REMARK    6  A    between atoms: C_9  and  C_11
REMARK    7  A    between atoms: C_14  and  C_15
REMARK                            x       y       z     vdW  Elec       q    Type
REMARK                         _______ _______ _______ _____ _____    ______ ____
ROOT
ATOM      4  O   UNL     1       9.532   7.044   4.799  0.00  0.00    -0.270 OA
ATOM      6  N   UNL     1      11.276   5.512   4.762  0.00  0.00    -0.309 N 
ATOM     14  C   UNL     1      10.190   6.161   5.343  0.00  0.00    +0.244 C 
ATOM     22  H   UNL     1      11.819   4.841   5.295  0.00  0.00    +0.149 HD
ENDROOT
BRANCH  14  15
ATOM      1  F   UNL     1       8.884   4.605  10.578  0.00  0.00    -0.205 F 
ATOM     15  C   UNL     1       9.845   5.749   6.729  0.00  0.00    +0.037 A 
ATOM     16  C   UNL     1       9.324   6.682   7.625  0.00  0.00    +0.016 A 
ATOM     17  C   UNL     1      10.042   4.429   7.134  0.00  0.00    +0.016 A 
ATOM     18  C   UNL     1       9.000   6.297   8.925  0.00  0.00    +0.039 A 
ATOM     19  C   UNL     1       9.717   4.042   8.434  0.00  0.00    +0.039 A 
ATOM     20  C   UNL     1       9.196   4.977   9.330  0.00  0.00    +0.123 A 
ENDBRANCH  14  15
BRANCH   6  11
ATOM     11  C   UNL     1      11.746   5.817   3.442  0.00  0.00    +0.138 C 
BRANCH  11   9
ATOM      2  O   UNL     1      10.423   4.766   1.712  0.00  0.00    -0.371 OA
ATOM      7  C   UNL     1      12.104   3.701   0.415  0.00  0.00    +0.113 C 
ATOM      8  C   UNL     1      12.765   4.478   1.539  0.00  0.00    +0.164 C 
ATOM      9  C   UNL     1      11.606   4.621   2.516  0.00  0.00    +0.165 C 
ATOM     10  C   UNL     1      10.729   4.347   0.370  0.00  0.00    +0.181 C 
BRANCH   7   5
ATOM      5  N   UNL     1      12.813   3.790  -0.850  0.00  0.00    -0.301 NA
ATOM     12  C   UNL     1      12.301   2.804  -1.806  0.00  0.00    +0.105 C 
ATOM     13  C   UNL     1      12.707   5.140  -1.414  0.00  0.00    +0.105 C 
ENDBRANCH   7   5
BRANCH   8   3
ATOM      3  O   UNL     1      13.857   3.786   2.114  0.00  0.00    -0.388 OA
ATOM     21  H   UNL     1      14.615   3.855   1.510  0.00  0.00    +0.210 HD
ENDBRANCH   8   3
ENDBRANCH  11   9
ENDBRANCH   6  11
TORSDOF 5
ENDMDL
MODEL 8
REMARK VINA RESULT:      -5.5     28.172     30.124
REMARK  Name = 75536633
REMARK  7 active torsions:
REMARK  status: ('A' for Active; 'I' for Inactive)
REMARK    1  A    between atoms: O_3  and  C_8
REMARK    2  A    between atoms: N_5  and  C_7
REMARK    3  A    between atoms: N_5  and  C_12
REMARK    4  A    between atoms: N_5  and  C_13
REMARK    5  A    between atoms: N_6  and  C_11
REMARK    6  A    between atoms: C_9  and  C_11
REMARK    7  A    between atoms: C_14  and  C_15
REMARK                            x       y       z     vdW  Elec       q    Type
REMARK                         _______ _______ _______ _____ _____    ______ ____
ROOT
ATOM      4  O   UNL     1      -7.542  -9.525  16.182  0.00  0.00    -0.270 OA
ATOM      6  N   UNL     1      -8.712  -9.710  18.178  0.00  0.00    -0.309 N 
ATOM     14  C   UNL     1      -7.597  -9.869  17.360  0.00  0.00    +0.244 C 
ATOM     22  H   UNL     1      -8.714 -10.081  19.122  0.00  0.00    +0.149 HD
ENDROOT
BRANCH  14  15
ATOM      1  F   UNL     1      -3.141 -12.358  19.700  0.00  0.00    -0.205 F 
ATOM     15  C   UNL     1      -6.417 -10.527  17.980  0.00  0.00    +0.037 A 
ATOM     16  C   UNL     1      -6.474 -10.955  19.306  0.00  0.00    +0.016 A 
ATOM     17  C   UNL     1      -5.254 -10.717  17.235  0.00  0.00    +0.016 A 
ATOM     18  C   UNL     1      -5.368 -11.572  19.888  0.00  0.00    +0.039 A 
ATOM     19  C   UNL     1      -4.147 -11.336  17.816  0.00  0.00    +0.039 A 
ATOM     20  C   UNL     1      -4.204 -11.763  19.143  0.00  0.00    +0.123 A 
ENDBRANCH  14  15
BRANCH   6  11
ATOM     11  C   UNL     1      -9.933  -9.116  17.717  0.00  0.00    +0.138 C 
BRANCH  11   9
ATOM      2  O   UNL     1     -12.131 -10.123  17.772  0.00  0.00    -0.371 OA
ATOM      7  C   UNL     1     -12.095 -11.217  19.881  0.00  0.00    +0.113 C 
ATOM      8  C   UNL     1     -10.747 -10.563  19.640  0.00  0.00    +0.164 C 
ATOM      9  C   UNL     1     -11.109  -9.524  18.587  0.00  0.00    +0.165 C 
ATOM     10  C   UNL     1     -12.664 -11.261  18.472  0.00  0.00    +0.181 C 
BRANCH   7   5
ATOM      5  N   UNL     1     -12.005 -12.530  20.497  0.00  0.00    -0.301 NA
ATOM     12  C   UNL     1     -13.307 -13.203  20.484  0.00  0.00    +0.105 C 
ATOM     13  C   UNL     1     -11.004 -13.357  19.816  0.00  0.00    +0.105 C 
ENDBRANCH   7   5
BRANCH   8   3
ATOM      3  O   UNL     1     -10.213  -9.967  20.807  0.00  0.00    -0.388 OA
ATOM     21  H   UNL     1      -9.922 -10.676  21.405  0.00  0.00    +0.210 HD
ENDBRANCH   8   3
ENDBRANCH  11   9
ENDBRANCH   6  11
TORSDOF 5
ENDMDL
MODEL 9
REMARK VINA RESULT:      -5.5      3.613      7.386
REMARK  Name = 75536633
REMARK  7 active torsions:
REMARK  status: ('A' for Active; 'I' for Inactive)
REMARK    1  A    between atoms: O_3  and  C_8
REMARK    2  A    between atoms: N_5  and  C_7
REMARK    3  A    between atoms: N_5  and  C_12
REMARK    4  A    between atoms: N_5  and  C_13
REMARK    5  A    between atoms: N_6  and  C_11
REMARK    6  A    between atoms: C_9  and  C_11
REMARK    7  A    between atoms: C_14  and  C_15
REMARK                            x       y       z     vdW  Elec       q    Type
REMARK                         _______ _______ _______ _____ _____    ______ ____
ROOT
ATOM      4  O   UNL     1      12.247  11.650  20.711  0.00  0.00    -0.270 OA
ATOM      6  N   UNL     1      11.449   9.675  21.633  0.00  0.00    -0.309 N 
ATOM     14  C   UNL     1      11.698  11.045  21.628  0.00  0.00    +0.244 C 
ATOM     22  H   UNL     1      11.055   9.228  22.454  0.00  0.00    +0.149 HD
ENDROOT
BRANCH  14  15
ATOM      1  F   UNL     1      10.123  13.870  26.219  0.00  0.00    -0.205 F 
ATOM     15  C   UNL     1      11.281  11.792  22.843  0.00  0.00    +0.037 A 
ATOM     16  C   UNL     1      11.449  11.222  24.105  0.00  0.00    +0.016 A 
ATOM     17  C   UNL     1      10.721  13.064  22.721  0.00  0.00    +0.016 A 
ATOM     18  C   UNL     1      11.058  11.923  25.245  0.00  0.00    +0.039 A 
ATOM     19  C   UNL     1      10.331  13.766  23.861  0.00  0.00    +0.039 A 
ATOM     20  C   UNL     1      10.499  13.195  25.124  0.00  0.00    +0.123 A 
ENDBRANCH  14  15
BRANCH   6  11
ATOM     11  C   UNL     1      11.816   8.816  20.545  0.00  0.00    +0.138 C 
BRANCH  11   9
ATOM      2  O   UNL     1      13.174   6.934  19.868  0.00  0.00    -0.371 OA
ATOM      7  C   UNL     1      15.141   7.285  21.153  0.00  0.00    +0.113 C 
ATOM      8  C   UNL     1      14.174   8.427  21.407  0.00  0.00    +0.164 C 
ATOM      9  C   UNL     1      12.857   7.797  20.973  0.00  0.00    +0.165 C 
ATOM     10  C   UNL     1      14.596   6.712  19.856  0.00  0.00    +0.181 C 
BRANCH   7   5
ATOM      5  N   UNL     1      16.527   7.709  21.046  0.00  0.00    -0.301 NA
ATOM     12  C   UNL     1      17.289   6.791  20.195  0.00  0.00    +0.105 C 
ATOM     13  C   UNL     1      16.616   9.074  20.519  0.00  0.00    +0.105 C 
ENDBRANCH   7   5
BRANCH   8   3
ATOM      3  O   UNL     1      14.145   8.827  22.764  0.00  0.00    -0.388 OA
ATOM     21  H   UNL     1      13.297   9.270  22.934  0.00  0.00    +0.210 HD
ENDBRANCH   8   3
ENDBRANCH  11   9
ENDBRANCH   6  11
TORSDOF 5
ENDMDL
MODEL 10
REMARK VINA RESULT:      -5.5     28.396     30.529
REMARK  Name = 75536633
REMARK  7 active torsions:
REMARK  status: ('A' for Active; 'I' for Inactive)
REMARK    1  A    between atoms: O_3  and  C_8
REMARK    2  A    between atoms: N_5  and  C_7
REMARK    3  A    between atoms: N_5  and  C_12
REMARK    4  A    between atoms: N_5  and  C_13
REMARK    5  A    between atoms: N_6  and  C_11
REMARK    6  A    between atoms: C_9  and  C_11
REMARK    7  A    between atoms: C_14  and  C_15
REMARK                            x       y       z     vdW  Elec       q    Type
REMARK                         _______ _______ _______ _____ _____    ______ ____
ROOT
ATOM      4  O   UNL     1     -14.934   7.192  32.189  0.00  0.00    -0.270 OA
ATOM      6  N   UNL     1     -13.859   5.672  33.574  0.00  0.00    -0.309 N 
ATOM     14  C   UNL     1     -13.987   6.888  32.909  0.00  0.00    +0.244 C 
ATOM     22  H   UNL     1     -13.016   5.458  34.097  0.00  0.00    +0.149 HD
ENDROOT
BRANCH  14  15
ATOM      1  F   UNL     1      -9.766  10.531  33.574  0.00  0.00    -0.205 F 
ATOM     15  C   UNL     1     -12.870   7.853  33.085  0.00  0.00    +0.037 A 
ATOM     16  C   UNL     1     -12.605   8.392  34.344  0.00  0.00    +0.016 A 
ATOM     17  C   UNL     1     -12.086   8.219  31.991  0.00  0.00    +0.016 A 
ATOM     18  C   UNL     1     -11.558   9.296  34.510  0.00  0.00    +0.039 A 
ATOM     19  C   UNL     1     -11.038   9.123  32.157  0.00  0.00    +0.039 A 
ATOM     20  C   UNL     1     -10.773   9.662  33.416  0.00  0.00    +0.123 A 
ENDBRANCH  14  15
BRANCH   6  11
ATOM     11  C   UNL     1     -14.840   4.630  33.482  0.00  0.00    +0.138 C 
BRANCH  11   9
ATOM      2  O   UNL     1     -15.166   2.239  33.339  0.00  0.00    -0.371 OA
ATOM      7  C   UNL     1     -13.703   1.669  31.557  0.00  0.00    +0.113 C 
ATOM      8  C   UNL     1     -13.677   3.174  31.757  0.00  0.00    +0.164 C 
ATOM      9  C   UNL     1     -14.196   3.288  33.184  0.00  0.00    +0.165 C 
ATOM     10  C   UNL     1     -14.992   1.293  32.269  0.00  0.00    +0.181 C 
BRANCH   7   5
ATOM      5  N   UNL     1     -13.690   1.266  30.161  0.00  0.00    -0.301 NA
ATOM     12  C   UNL     1     -13.624  -0.193  30.040  0.00  0.00    +0.105 C 
ATOM     13  C   UNL     1     -14.872   1.776  29.460  0.00  0.00    +0.105 C 
ENDBRANCH   7   5
BRANCH   8   3
ATOM      3  O   UNL     1     -12.379   3.720  31.623  0.00  0.00    -0.388 OA
ATOM     21  H   UNL     1     -11.950   3.304  30.856  0.00  0.00    +0.210 HD
ENDBRANCH   8   3
ENDBRANCH  11   9
ENDBRANCH   6  11
TORSDOF 5
ENDMDL
