MODEL 1
REMARK VINA RESULT:      -6.1      0.000      0.000
REMARK  Name = 38030471
REMARK  12 active torsions:
REMARK  status: ('A' for Active; 'I' for Inactive)
REMARK    1  A    between atoms: N_2  and  C_14
REMARK    2  A    between atoms: N_2  and  C_20
REMARK    3  A    between atoms: C_7  and  C_11
REMARK    4  A    between atoms: C_8  and  C_14
REMARK    5  A    between atoms: C_10  and  C_15
REMARK    6  A    between atoms: C_11  and  C_16
REMARK    7  A    between atoms: C_11  and  C_17
REMARK    8  A    between atoms: C_12  and  C_18
REMARK    9  A    between atoms: C_15  and  C_19
REMARK   10  A    between atoms: C_20  and  C_21
REMARK   11  A    between atoms: C_22  and  C_25
REMARK   12  A    between atoms: C_28  and  C_32
REMARK                            x       y       z     vdW  Elec       q    Type
REMARK                         _______ _______ _______ _____ _____    ______ ____
ROOT
ATOM      7  C   UNL     1      -4.407 -11.761  13.429  0.00  0.00    +0.000 C 
ATOM      8  C   UNL     1      -2.939 -11.721  12.933  0.00  0.00    +0.029 C 
ATOM      9  C   UNL     1      -5.377 -11.698  12.239  0.00  0.00    +0.012 C 
ATOM     10  C   UNL     1      -5.182 -10.425  11.396  0.00  0.00    +0.024 C 
ATOM     12  C   UNL     1      -3.721 -10.169  11.090  0.00  0.00    -0.073 C 
ATOM     13  C   UNL     1      -2.732 -10.767  11.779  0.00  0.00    -0.023 C 
ATOM     18  C   UNL     1      -3.420  -9.244   9.944  0.00  0.00    +0.039 C 
ENDROOT
BRANCH   7  11
ATOM     11  C   UNL     1      -4.690 -13.015  14.264  0.00  0.00    -0.013 C 
ATOM     16  C   UNL     1      -4.466 -14.271  13.428  0.00  0.00    +0.007 C 
ATOM     17  C   UNL     1      -6.111 -12.977  14.815  0.00  0.00    +0.007 C 
ENDBRANCH   7  11
BRANCH   8  14
ATOM     14  C   UNL     1      -1.979 -11.359  14.071  0.00  0.00    +0.089 C 
BRANCH  14   2
ATOM      2  N   UNL     1      -2.576 -10.368  14.950  0.00  0.00    -0.311 NA
ATOM     34  H   UNL     1      -2.162  -9.453  14.777  0.00  0.00    +0.122 HD
BRANCH   2  20
ATOM     20  C   UNL     1      -2.384 -10.725  16.351  0.00  0.00    +0.116 C 
BRANCH  20  21
ATOM     21  C   UNL     1      -3.692 -10.807  17.092  0.00  0.00    -0.034 A 
ATOM     23  C   UNL     1      -3.810 -11.634  18.209  0.00  0.00    +0.006 A 
ATOM     24  C   UNL     1      -4.785 -10.055  16.662  0.00  0.00    +0.006 A 
ATOM     26  C   UNL     1      -5.022 -11.710  18.897  0.00  0.00    +0.019 A 
ATOM     27  C   UNL     1      -5.997 -10.131  17.349  0.00  0.00    +0.019 A 
ATOM     28  C   UNL     1      -6.115 -10.958  18.466  0.00  0.00    +0.052 A 
BRANCH  28  32
ATOM      6  N   UNL     1      -8.364 -11.097  19.742  0.00  0.00    -0.191 NA
ATOM     32  C   UNL     1      -7.356 -11.035  19.169  0.00  0.00    +0.099 C 
ENDBRANCH  28  32
ENDBRANCH  20  21
ENDBRANCH   2  20
ENDBRANCH  14   2
ENDBRANCH   8  14
BRANCH  10  15
ATOM     15  C   UNL     1      -5.821  -9.209  12.075  0.00  0.00    +0.105 C 
BRANCH  15  19
ATOM      1  O   UNL     1      -7.540  -9.400  13.798  0.00  0.00    -0.420 OA
ATOM      3  N   UNL     1      -8.273  -9.807  11.724  0.00  0.00    -0.112 NA
ATOM      4  N   UNL     1      -9.341  -9.951  12.590  0.00  0.00    -0.107 NA
ATOM     19  C   UNL     1      -7.243  -9.487  12.472  0.00  0.00    +0.218 A 
ATOM     22  C   UNL     1      -8.867  -9.704  13.788  0.00  0.00    +0.250 A 
BRANCH  22  25
ATOM      5  N   UNL     1     -11.176 -10.672  16.537  0.00  0.00    -0.263 NA
ATOM     25  C   UNL     1      -9.519  -9.704  15.066  0.00  0.00    +0.057 A 
ATOM     29  C   UNL     1      -9.167  -8.790  16.051  0.00  0.00    +0.016 A 
ATOM     30  C   UNL     1     -10.521 -10.617  15.356  0.00  0.00    +0.124 A 
ATOM     31  C   UNL     1      -9.818  -8.815  17.280  0.00  0.00    +0.020 A 
ATOM     33  C   UNL     1     -10.805  -9.767  17.471  0.00  0.00    +0.111 A 
ENDBRANCH  22  25
ENDBRANCH  15  19
ENDBRANCH  10  15
TORSDOF 9
ENDMDL
MODEL 2
REMARK VINA RESULT:      -6.0      2.679      4.781
REMARK  Name = 38030471
REMARK  12 active torsions:
REMARK  status: ('A' for Active; 'I' for Inactive)
REMARK    1  A    between atoms: N_2  and  C_14
REMARK    2  A    between atoms: N_2  and  C_20
REMARK    3  A    between atoms: C_7  and  C_11
REMARK    4  A    between atoms: C_8  and  C_14
REMARK    5  A    between atoms: C_10  and  C_15
REMARK    6  A    between atoms: C_11  and  C_16
REMARK    7  A    between atoms: C_11  and  C_17
REMARK    8  A    between atoms: C_12  and  C_18
REMARK    9  A    between atoms: C_15  and  C_19
REMARK   10  A    between atoms: C_20  and  C_21
REMARK   11  A    between atoms: C_22  and  C_25
REMARK   12  A    between atoms: C_28  and  C_32
REMARK                            x       y       z     vdW  Elec       q    Type
REMARK                         _______ _______ _______ _____ _____    ______ ____
ROOT
ATOM      7  C   UNL     1      -3.744 -12.273  13.352  0.00  0.00    +0.000 C 
ATOM      8  C   UNL     1      -2.265 -11.867  13.128  0.00  0.00    +0.029 C 
ATOM      9  C   UNL     1      -4.511 -12.257  12.022  0.00  0.00    +0.012 C 
ATOM     10  C   UNL     1      -4.483 -10.873  11.349  0.00  0.00    +0.024 C 
ATOM     12  C   UNL     1      -3.087 -10.284  11.331  0.00  0.00    -0.073 C 
ATOM     13  C   UNL     1      -2.105 -10.750  12.124  0.00  0.00    -0.023 C 
ATOM     18  C   UNL     1      -2.832  -9.176  10.348  0.00  0.00    +0.039 C 
ENDROOT
BRANCH   7  11
ATOM     11  C   UNL     1      -3.861 -13.656  14.003  0.00  0.00    -0.013 C 
ATOM     16  C   UNL     1      -4.251 -14.702  12.962  0.00  0.00    +0.007 C 
ATOM     17  C   UNL     1      -4.873 -13.623  15.143  0.00  0.00    +0.007 C 
ENDBRANCH   7  11
BRANCH   8  14
ATOM     14  C   UNL     1      -1.595 -11.467  14.447  0.00  0.00    +0.089 C 
BRANCH  14   2
ATOM      2  N   UNL     1      -2.323 -10.383  15.084  0.00  0.00    -0.311 NA
ATOM     34  H   UNL     1      -1.782  -9.522  15.034  0.00  0.00    +0.122 HD
BRANCH   2  20
ATOM     20  C   UNL     1      -2.607 -10.693  16.481  0.00  0.00    +0.116 C 
BRANCH  20  21
ATOM     21  C   UNL     1      -4.070 -10.538  16.802  0.00  0.00    -0.034 A 
ATOM     23  C   UNL     1      -4.565 -10.980  18.030  0.00  0.00    +0.006 A 
ATOM     24  C   UNL     1      -4.930  -9.954  15.873  0.00  0.00    +0.006 A 
ATOM     26  C   UNL     1      -5.920 -10.837  18.328  0.00  0.00    +0.019 A 
ATOM     27  C   UNL     1      -6.286  -9.812  16.170  0.00  0.00    +0.019 A 
ATOM     28  C   UNL     1      -6.780 -10.253  17.398  0.00  0.00    +0.052 A 
BRANCH  28  32
ATOM      6  N   UNL     1      -9.296  -9.987  17.950  0.00  0.00    -0.191 NA
ATOM     32  C   UNL     1      -8.169 -10.106  17.702  0.00  0.00    +0.099 C 
ENDBRANCH  28  32
ENDBRANCH  20  21
ENDBRANCH   2  20
ENDBRANCH  14   2
ENDBRANCH   8  14
BRANCH  10  15
ATOM     15  C   UNL     1      -5.474  -9.914  12.016  0.00  0.00    +0.105 C 
BRANCH  15  19
ATOM      1  O   UNL     1      -6.210  -9.364   9.755  0.00  0.00    -0.420 OA
ATOM      3  N   UNL     1      -7.821  -9.231  11.300  0.00  0.00    -0.112 NA
ATOM      4  N   UNL     1      -8.373  -8.895  10.078  0.00  0.00    -0.107 NA
ATOM     19  C   UNL     1      -6.558  -9.495  11.065  0.00  0.00    +0.218 A 
ATOM     22  C   UNL     1      -7.396  -8.987   9.206  0.00  0.00    +0.250 A 
BRANCH  22  25
ATOM      5  N   UNL     1      -8.158  -7.450   5.907  0.00  0.00    -0.263 NA
ATOM     25  C   UNL     1      -7.387  -8.755   7.790  0.00  0.00    +0.057 A 
ATOM     29  C   UNL     1      -6.640  -9.559   6.937  0.00  0.00    +0.016 A 
ATOM     30  C   UNL     1      -8.122  -7.722   7.231  0.00  0.00    +0.124 A 
ATOM     31  C   UNL     1      -6.651  -9.310   5.569  0.00  0.00    +0.020 A 
ATOM     33  C   UNL     1      -7.419  -8.253   5.109  0.00  0.00    +0.111 A 
ENDBRANCH  22  25
ENDBRANCH  15  19
ENDBRANCH  10  15
TORSDOF 9
ENDMDL
MODEL 3
REMARK VINA RESULT:      -5.8     19.329     22.220
REMARK  Name = 38030471
REMARK  12 active torsions:
REMARK  status: ('A' for Active; 'I' for Inactive)
REMARK    1  A    between atoms: N_2  and  C_14
REMARK    2  A    between atoms: N_2  and  C_20
REMARK    3  A    between atoms: C_7  and  C_11
REMARK    4  A    between atoms: C_8  and  C_14
REMARK    5  A    between atoms: C_10  and  C_15
REMARK    6  A    between atoms: C_11  and  C_16
REMARK    7  A    between atoms: C_11  and  C_17
REMARK    8  A    between atoms: C_12  and  C_18
REMARK    9  A    between atoms: C_15  and  C_19
REMARK   10  A    between atoms: C_20  and  C_21
REMARK   11  A    between atoms: C_22  and  C_25
REMARK   12  A    between atoms: C_28  and  C_32
REMARK                            x       y       z     vdW  Elec       q    Type
REMARK                         _______ _______ _______ _____ _____    ______ ____
ROOT
ATOM      7  C   UNL     1     -13.312   8.170  21.059  0.00  0.00    +0.000 C 
ATOM      8  C   UNL     1     -13.951   9.491  21.557  0.00  0.00    +0.029 C 
ATOM      9  C   UNL     1     -14.396   7.113  20.803  0.00  0.00    +0.012 C 
ATOM     10  C   UNL     1     -15.222   6.808  22.066  0.00  0.00    +0.024 C 
ATOM     12  C   UNL     1     -15.666   8.075  22.768  0.00  0.00    -0.073 C 
ATOM     13  C   UNL     1     -15.095   9.267  22.519  0.00  0.00    -0.023 C 
ATOM     18  C   UNL     1     -16.812   7.950  23.733  0.00  0.00    +0.039 C 
ENDROOT
BRANCH   7  11
ATOM     11  C   UNL     1     -12.485   8.384  19.786  0.00  0.00    -0.013 C 
ATOM     16  C   UNL     1     -13.227   7.834  18.572  0.00  0.00    +0.007 C 
ATOM     17  C   UNL     1     -11.115   7.729  19.926  0.00  0.00    +0.007 C 
ENDBRANCH   7  11
BRANCH   8  14
ATOM     14  C   UNL     1     -12.905  10.400  22.212  0.00  0.00    +0.089 C 
BRANCH  14   2
ATOM      2  N   UNL     1     -13.083  10.431  23.653  0.00  0.00    -0.311 NA
ATOM     34  H   UNL     1     -13.943  10.923  23.889  0.00  0.00    +0.122 HD
BRANCH   2  20
ATOM     20  C   UNL     1     -11.957  11.090  24.306  0.00  0.00    +0.116 C 
BRANCH  20  21
ATOM     21  C   UNL     1     -11.896  10.768  25.776  0.00  0.00    -0.034 A 
ATOM     23  C   UNL     1     -13.065  10.762  26.537  0.00  0.00    +0.006 A 
ATOM     24  C   UNL     1     -10.671  10.477  26.376  0.00  0.00    +0.006 A 
ATOM     26  C   UNL     1     -13.008  10.464  27.899  0.00  0.00    +0.019 A 
ATOM     27  C   UNL     1     -10.614  10.180  27.737  0.00  0.00    +0.019 A 
ATOM     28  C   UNL     1     -11.783  10.173  28.499  0.00  0.00    +0.052 A 
BRANCH  28  32
ATOM      6  N   UNL     1     -11.678   9.619  31.026  0.00  0.00    -0.191 NA
ATOM     32  C   UNL     1     -11.724   9.868  29.893  0.00  0.00    +0.099 C 
ENDBRANCH  28  32
ENDBRANCH  20  21
ENDBRANCH   2  20
ENDBRANCH  14   2
ENDBRANCH   8  14
BRANCH  10  15
ATOM     15  C   UNL     1     -14.451   5.892  23.023  0.00  0.00    +0.105 C 
BRANCH  15  19
ATOM      1  O   UNL     1     -15.314   4.258  24.617  0.00  0.00    -0.420 OA
ATOM      3  N   UNL     1     -15.823   3.814  22.485  0.00  0.00    -0.112 NA
ATOM      4  N   UNL     1     -16.369   2.816  23.271  0.00  0.00    -0.107 NA
ATOM     19  C   UNL     1     -15.217   4.633  23.312  0.00  0.00    +0.218 A 
ATOM     22  C   UNL     1     -16.047   3.117  24.507  0.00  0.00    +0.250 A 
BRANCH  22  25
ATOM      5  N   UNL     1     -17.110   0.442  26.861  0.00  0.00    -0.263 NA
ATOM     25  C   UNL     1     -16.343   2.440  25.737  0.00  0.00    +0.057 A 
ATOM     29  C   UNL     1     -16.169   3.072  26.963  0.00  0.00    +0.016 A 
ATOM     30  C   UNL     1     -16.811   1.136  25.740  0.00  0.00    +0.124 A 
ATOM     31  C   UNL     1     -16.465   2.390  28.139  0.00  0.00    +0.020 A 
ATOM     33  C   UNL     1     -16.927   1.089  28.034  0.00  0.00    +0.111 A 
ENDBRANCH  22  25
ENDBRANCH  15  19
ENDBRANCH  10  15
TORSDOF 9
ENDMDL
MODEL 4
REMARK VINA RESULT:      -5.7      1.720      6.676
REMARK  Name = 38030471
REMARK  12 active torsions:
REMARK  status: ('A' for Active; 'I' for Inactive)
REMARK    1  A    between atoms: N_2  and  C_14
REMARK    2  A    between atoms: N_2  and  C_20
REMARK    3  A    between atoms: C_7  and  C_11
REMARK    4  A    between atoms: C_8  and  C_14
REMARK    5  A    between atoms: C_10  and  C_15
REMARK    6  A    between atoms: C_11  and  C_16
REMARK    7  A    between atoms: C_11  and  C_17
REMARK    8  A    between atoms: C_12  and  C_18
REMARK    9  A    between atoms: C_15  and  C_19
REMARK   10  A    between atoms: C_20  and  C_21
REMARK   11  A    between atoms: C_22  and  C_25
REMARK   12  A    between atoms: C_28  and  C_32
REMARK                            x       y       z     vdW  Elec       q    Type
REMARK                         _______ _______ _______ _____ _____    ______ ____
ROOT
ATOM      7  C   UNL     1      -9.888 -10.026  17.571  0.00  0.00    +0.000 C 
ATOM      8  C   UNL     1     -10.232 -11.307  18.371  0.00  0.00    +0.029 C 
ATOM      9  C   UNL     1     -10.058 -10.273  16.064  0.00  0.00    +0.012 C 
ATOM     10  C   UNL     1      -9.164 -11.419  15.557  0.00  0.00    +0.024 C 
ATOM     12  C   UNL     1      -9.246 -12.637  16.454  0.00  0.00    -0.073 C 
ATOM     13  C   UNL     1      -9.737 -12.571  17.705  0.00  0.00    -0.023 C 
ATOM     18  C   UNL     1      -8.789 -13.943  15.867  0.00  0.00    +0.039 C 
ENDROOT
BRANCH   7  11
ATOM     11  C   UNL     1     -10.753  -8.837  18.003  0.00  0.00    -0.013 C 
ATOM     16  C   UNL     1     -12.233  -9.191  17.901  0.00  0.00    +0.007 C 
ATOM     17  C   UNL     1     -10.430  -7.609  17.158  0.00  0.00    +0.007 C 
ENDBRANCH   7  11
BRANCH   8  14
ATOM     14  C   UNL     1      -9.678 -11.234  19.798  0.00  0.00    +0.089 C 
BRANCH  14   2
ATOM      2  N   UNL     1      -8.296 -10.786  19.790  0.00  0.00    -0.311 NA
ATOM     34  H   UNL     1      -8.115 -10.227  18.959  0.00  0.00    +0.122 HD
BRANCH   2  20
ATOM     20  C   UNL     1      -7.377 -11.918  19.819  0.00  0.00    +0.116 C 
BRANCH  20  21
ATOM     21  C   UNL     1      -6.298 -11.790  18.778  0.00  0.00    -0.034 A 
ATOM     23  C   UNL     1      -5.721 -10.546  18.521  0.00  0.00    +0.006 A 
ATOM     24  C   UNL     1      -5.874 -12.914  18.070  0.00  0.00    +0.006 A 
ATOM     26  C   UNL     1      -4.720 -10.426  17.557  0.00  0.00    +0.019 A 
ATOM     27  C   UNL     1      -4.874 -12.795  17.105  0.00  0.00    +0.019 A 
ATOM     28  C   UNL     1      -4.297 -11.551  16.848  0.00  0.00    +0.052 A 
BRANCH  28  32
ATOM      6  N   UNL     1      -2.440 -11.331  15.057  0.00  0.00    -0.191 NA
ATOM     32  C   UNL     1      -3.272 -11.429  15.860  0.00  0.00    +0.099 C 
ENDBRANCH  28  32
ENDBRANCH  20  21
ENDBRANCH   2  20
ENDBRANCH  14   2
ENDBRANCH   8  14
BRANCH  10  15
ATOM     15  C   UNL     1      -7.713 -10.955  15.391  0.00  0.00    +0.105 C 
BRANCH  15  19
ATOM      1  O   UNL     1      -6.150 -10.382  13.606  0.00  0.00    -0.420 OA
ATOM      3  N   UNL     1      -8.301 -10.082  13.071  0.00  0.00    -0.112 NA
ATOM      4  N   UNL     1      -7.534  -9.721  11.978  0.00  0.00    -0.107 NA
ATOM     19  C   UNL     1      -7.452 -10.461  13.997  0.00  0.00    +0.218 A 
ATOM     22  C   UNL     1      -6.286  -9.913  12.336  0.00  0.00    +0.250 A 
BRANCH  22  25
ATOM      5  N   UNL     1      -2.686 -10.082  11.422  0.00  0.00    -0.263 NA
ATOM     25  C   UNL     1      -5.067  -9.707  11.609  0.00  0.00    +0.057 A 
ATOM     29  C   UNL     1      -5.050  -8.968  10.431  0.00  0.00    +0.016 A 
ATOM     30  C   UNL     1      -3.869 -10.239  12.058  0.00  0.00    +0.124 A 
ATOM     31  C   UNL     1      -3.853  -8.786   9.748  0.00  0.00    +0.020 A 
ATOM     33  C   UNL     1      -2.710  -9.358  10.281  0.00  0.00    +0.111 A 
ENDBRANCH  22  25
ENDBRANCH  15  19
ENDBRANCH  10  15
TORSDOF 9
ENDMDL
MODEL 5
REMARK VINA RESULT:      -5.7     24.502     27.773
REMARK  Name = 38030471
REMARK  12 active torsions:
REMARK  status: ('A' for Active; 'I' for Inactive)
REMARK    1  A    between atoms: N_2  and  C_14
REMARK    2  A    between atoms: N_2  and  C_20
REMARK    3  A    between atoms: C_7  and  C_11
REMARK    4  A    between atoms: C_8  and  C_14
REMARK    5  A    between atoms: C_10  and  C_15
REMARK    6  A    between atoms: C_11  and  C_16
REMARK    7  A    between atoms: C_11  and  C_17
REMARK    8  A    between atoms: C_12  and  C_18
REMARK    9  A    between atoms: C_15  and  C_19
REMARK   10  A    between atoms: C_20  and  C_21
REMARK   11  A    between atoms: C_22  and  C_25
REMARK   12  A    between atoms: C_28  and  C_32
REMARK                            x       y       z     vdW  Elec       q    Type
REMARK                         _______ _______ _______ _____ _____    ______ ____
ROOT
ATOM      7  C   UNL     1       8.979   8.215   3.732  0.00  0.00    +0.000 C 
ATOM      8  C   UNL     1       8.254   7.743   5.017  0.00  0.00    +0.029 C 
ATOM      9  C   UNL     1       9.194   7.034   2.773  0.00  0.00    +0.012 C 
ATOM     10  C   UNL     1      10.023   5.906   3.414  0.00  0.00    +0.024 C 
ATOM     12  C   UNL     1       9.529   5.566   4.806  0.00  0.00    -0.073 C 
ATOM     13  C   UNL     1       8.730   6.393   5.502  0.00  0.00    -0.023 C 
ATOM     18  C   UNL     1       9.941   4.232   5.363  0.00  0.00    +0.039 C 
ENDROOT
BRANCH   7  11
ATOM     11  C   UNL     1       8.205   9.329   3.019  0.00  0.00    -0.013 C 
ATOM     16  C   UNL     1       8.016   8.985   1.544  0.00  0.00    +0.007 C 
ATOM     17  C   UNL     1       8.926  10.663   3.176  0.00  0.00    +0.007 C 
ENDBRANCH   7  11
BRANCH   8  14
ATOM     14  C   UNL     1       8.402   8.771   6.145  0.00  0.00    +0.089 C 
BRANCH  14   2
ATOM      2  N   UNL     1       8.888   8.135   7.357  0.00  0.00    -0.311 NA
ATOM     34  H   UNL     1       8.161   8.137   8.070  0.00  0.00    +0.122 HD
BRANCH   2  20
ATOM     20  C   UNL     1      10.067   8.823   7.873  0.00  0.00    +0.116 C 
BRANCH  20  21
ATOM     21  C   UNL     1      11.308   8.464   7.099  0.00  0.00    -0.034 A 
ATOM     23  C   UNL     1      11.848   9.371   6.187  0.00  0.00    +0.006 A 
ATOM     24  C   UNL     1      11.917   7.224   7.294  0.00  0.00    +0.006 A 
ATOM     26  C   UNL     1      12.998   9.038   5.470  0.00  0.00    +0.019 A 
ATOM     27  C   UNL     1      13.066   6.891   6.576  0.00  0.00    +0.019 A 
ATOM     28  C   UNL     1      13.606   7.798   5.664  0.00  0.00    +0.052 A 
BRANCH  28  32
ATOM      6  N   UNL     1      15.740   7.181   4.333  0.00  0.00    -0.191 NA
ATOM     32  C   UNL     1      14.783   7.457   4.930  0.00  0.00    +0.099 C 
ENDBRANCH  28  32
ENDBRANCH  20  21
ENDBRANCH   2  20
ENDBRANCH  14   2
ENDBRANCH   8  14
BRANCH  10  15
ATOM     15  C   UNL     1      11.514   6.258   3.431  0.00  0.00    +0.105 C 
BRANCH  15  19
ATOM      1  O   UNL     1      11.458   5.048   1.312  0.00  0.00    -0.420 OA
ATOM      3  N   UNL     1      13.448   5.945   1.803  0.00  0.00    -0.112 NA
ATOM      4  N   UNL     1      13.560   5.295   0.587  0.00  0.00    -0.107 NA
ATOM     19  C   UNL     1      12.205   5.774   2.188  0.00  0.00    +0.218 A 
ATOM     22  C   UNL     1      12.375   4.787   0.341  0.00  0.00    +0.250 A 
BRANCH  22  25
ATOM      5  N   UNL     1      10.222   3.643  -2.466  0.00  0.00    -0.263 NA
ATOM     25  C   UNL     1      11.907   4.014  -0.773  0.00  0.00    +0.057 A 
ATOM     29  C   UNL     1      12.631   2.924  -1.244  0.00  0.00    +0.016 A 
ATOM     30  C   UNL     1      10.720   4.330  -1.413  0.00  0.00    +0.124 A 
ATOM     31  C   UNL     1      12.152   2.194  -2.325  0.00  0.00    +0.020 A 
ATOM     33  C   UNL     1      10.954   2.591  -2.896  0.00  0.00    +0.111 A 
ENDBRANCH  22  25
ENDBRANCH  15  19
ENDBRANCH  10  15
TORSDOF 9
ENDMDL
MODEL 6
REMARK VINA RESULT:      -5.7      3.633      7.200
REMARK  Name = 38030471
REMARK  12 active torsions:
REMARK  status: ('A' for Active; 'I' for Inactive)
REMARK    1  A    between atoms: N_2  and  C_14
REMARK    2  A    between atoms: N_2  and  C_20
REMARK    3  A    between atoms: C_7  and  C_11
REMARK    4  A    between atoms: C_8  and  C_14
REMARK    5  A    between atoms: C_10  and  C_15
REMARK    6  A    between atoms: C_11  and  C_16
REMARK    7  A    between atoms: C_11  and  C_17
REMARK    8  A    between atoms: C_12  and  C_18
REMARK    9  A    between atoms: C_15  and  C_19
REMARK   10  A    between atoms: C_20  and  C_21
REMARK   11  A    between atoms: C_22  and  C_25
REMARK   12  A    between atoms: C_28  and  C_32
REMARK                            x       y       z     vdW  Elec       q    Type
REMARK                         _______ _______ _______ _____ _____    ______ ____
ROOT
ATOM      7  C   UNL     1     -11.409 -10.039  18.966  0.00  0.00    +0.000 C 
ATOM      8  C   UNL     1     -10.202 -10.945  18.616  0.00  0.00    +0.029 C 
ATOM      9  C   UNL     1     -12.315  -9.853  17.739  0.00  0.00    +0.012 C 
ATOM     10  C   UNL     1     -11.563  -9.227  16.551  0.00  0.00    +0.024 C 
ATOM     12  C   UNL     1     -10.228  -9.901  16.310  0.00  0.00    -0.073 C 
ATOM     13  C   UNL     1      -9.641 -10.675  17.239  0.00  0.00    -0.023 C 
ATOM     18  C   UNL     1      -9.602  -9.700  14.958  0.00  0.00    +0.039 C 
ENDROOT
BRANCH   7  11
ATOM     11  C   UNL     1     -12.226 -10.606  20.133  0.00  0.00    -0.013 C 
ATOM     16  C   UNL     1     -12.876 -11.928  19.734  0.00  0.00    +0.007 C 
ATOM     17  C   UNL     1     -13.279  -9.599  20.584  0.00  0.00    +0.007 C 
ENDBRANCH   7  11
BRANCH   8  14
ATOM     14  C   UNL     1      -9.086 -10.809  19.658  0.00  0.00    +0.089 C 
BRANCH  14   2
ATOM      2  N   UNL     1      -7.926 -10.152  19.082  0.00  0.00    -0.311 NA
ATOM     34  H   UNL     1      -8.043 -10.053  18.076  0.00  0.00    +0.122 HD
BRANCH   2  20
ATOM     20  C   UNL     1      -6.707 -10.907  19.353  0.00  0.00    +0.116 C 
BRANCH  20  21
ATOM     21  C   UNL     1      -5.731 -10.823  18.210  0.00  0.00    -0.034 A 
ATOM     23  C   UNL     1      -4.457 -11.376  18.339  0.00  0.00    +0.006 A 
ATOM     24  C   UNL     1      -6.100 -10.193  17.022  0.00  0.00    +0.006 A 
ATOM     26  C   UNL     1      -3.552 -11.299  17.280  0.00  0.00    +0.019 A 
ATOM     27  C   UNL     1      -5.196 -10.114  15.963  0.00  0.00    +0.019 A 
ATOM     28  C   UNL     1      -3.921 -10.667  16.092  0.00  0.00    +0.052 A 
BRANCH  28  32
ATOM      6  N   UNL     1      -2.243 -10.524  14.126  0.00  0.00    -0.191 NA
ATOM     32  C   UNL     1      -2.995 -10.588  15.007  0.00  0.00    +0.099 C 
ENDBRANCH  28  32
ENDBRANCH  20  21
ENDBRANCH   2  20
ENDBRANCH  14   2
ENDBRANCH   8  14
BRANCH  10  15
ATOM     15  C   UNL     1     -11.389  -7.716  16.742  0.00  0.00    +0.105 C 
BRANCH  15  19
ATOM      1  O   UNL     1     -11.677  -6.504  14.643  0.00  0.00    -0.420 OA
ATOM      3  N   UNL     1     -13.523  -6.606  15.902  0.00  0.00    -0.112 NA
ATOM      4  N   UNL     1     -13.827  -5.897  14.755  0.00  0.00    -0.107 NA
ATOM     19  C   UNL     1     -12.258  -6.940  15.794  0.00  0.00    +0.218 A 
ATOM     22  C   UNL     1     -12.720  -5.863  14.050  0.00  0.00    +0.250 A 
BRANCH  22  25
ATOM      5  N   UNL     1     -12.011  -5.547  10.414  0.00  0.00    -0.263 NA
ATOM     25  C   UNL     1     -12.447  -5.265  12.775  0.00  0.00    +0.057 A 
ATOM     29  C   UNL     1     -12.350  -3.886  12.636  0.00  0.00    +0.016 A 
ATOM     30  C   UNL     1     -12.271  -6.046  11.643  0.00  0.00    +0.124 A 
ATOM     31  C   UNL     1     -12.084  -3.335  11.387  0.00  0.00    +0.020 A 
ATOM     33  C   UNL     1     -11.924  -4.201  10.318  0.00  0.00    +0.111 A 
ENDBRANCH  22  25
ENDBRANCH  15  19
ENDBRANCH  10  15
TORSDOF 9
ENDMDL
MODEL 7
REMARK VINA RESULT:      -5.7     28.383     31.336
REMARK  Name = 38030471
REMARK  12 active torsions:
REMARK  status: ('A' for Active; 'I' for Inactive)
REMARK    1  A    between atoms: N_2  and  C_14
REMARK    2  A    between atoms: N_2  and  C_20
REMARK    3  A    between atoms: C_7  and  C_11
REMARK    4  A    between atoms: C_8  and  C_14
REMARK    5  A    between atoms: C_10  and  C_15
REMARK    6  A    between atoms: C_11  and  C_16
REMARK    7  A    between atoms: C_11  and  C_17
REMARK    8  A    between atoms: C_12  and  C_18
REMARK    9  A    between atoms: C_15  and  C_19
REMARK   10  A    between atoms: C_20  and  C_21
REMARK   11  A    between atoms: C_22  and  C_25
REMARK   12  A    between atoms: C_28  and  C_32
REMARK                            x       y       z     vdW  Elec       q    Type
REMARK                         _______ _______ _______ _____ _____    ______ ____
ROOT
ATOM      7  C   UNL     1      20.524   5.852  21.772  0.00  0.00    +0.000 C 
ATOM      8  C   UNL     1      20.943   7.154  22.499  0.00  0.00    +0.029 C 
ATOM      9  C   UNL     1      19.771   6.180  20.474  0.00  0.00    +0.012 C 
ATOM     10  C   UNL     1      18.508   7.023  20.730  0.00  0.00    +0.024 C 
ATOM     12  C   UNL     1      18.786   8.184  21.663  0.00  0.00    -0.073 C 
ATOM     13  C   UNL     1      19.885   8.231  22.437  0.00  0.00    -0.023 C 
ATOM     18  C   UNL     1      17.792   9.312  21.655  0.00  0.00    +0.039 C 
ENDROOT
BRANCH   7  11
ATOM     11  C   UNL     1      21.732   4.961  21.460  0.00  0.00    -0.013 C 
ATOM     16  C   UNL     1      22.652   5.647  20.453  0.00  0.00    +0.007 C 
ATOM     17  C   UNL     1      21.272   3.605  20.937  0.00  0.00    +0.007 C 
ENDBRANCH   7  11
BRANCH   8  14
ATOM     14  C   UNL     1      21.305   6.879  23.963  0.00  0.00    +0.089 C 
BRANCH  14   2
ATOM      2  N   UNL     1      22.714   7.139  24.200  0.00  0.00    -0.311 NA
ATOM     34  H   UNL     1      23.225   7.128  23.319  0.00  0.00    +0.122 HD
BRANCH   2  20
ATOM     20  C   UNL     1      23.287   6.144  25.100  0.00  0.00    +0.116 C 
BRANCH  20  21
ATOM     21  C   UNL     1      23.680   4.888  24.370  0.00  0.00    -0.034 A 
ATOM     23  C   UNL     1      24.743   4.911  23.466  0.00  0.00    +0.006 A 
ATOM     24  C   UNL     1      22.983   3.702  24.595  0.00  0.00    +0.006 A 
ATOM     26  C   UNL     1      25.108   3.747  22.789  0.00  0.00    +0.019 A 
ATOM     27  C   UNL     1      23.347   2.538  23.918  0.00  0.00    +0.019 A 
ATOM     28  C   UNL     1      24.410   2.561  23.015  0.00  0.00    +0.052 A 
BRANCH  28  32
ATOM      6  N   UNL     1      25.086   0.401  21.757  0.00  0.00    -0.191 NA
ATOM     32  C   UNL     1      24.783   1.369  22.321  0.00  0.00    +0.099 C 
ENDBRANCH  28  32
ENDBRANCH  20  21
ENDBRANCH   2  20
ENDBRANCH  14   2
ENDBRANCH   8  14
BRANCH  10  15
ATOM     15  C   UNL     1      17.363   6.154  21.261  0.00  0.00    +0.105 C 
BRANCH  15  19
ATOM      1  O   UNL     1      15.065   6.933  21.526  0.00  0.00    -0.420 OA
ATOM      3  N   UNL     1      15.681   6.605  19.401  0.00  0.00    -0.112 NA
ATOM      4  N   UNL     1      14.369   7.040  19.403  0.00  0.00    -0.107 NA
ATOM     19  C   UNL     1      16.046   6.557  20.660  0.00  0.00    +0.218 A 
ATOM     22  C   UNL     1      14.052   7.219  20.663  0.00  0.00    +0.250 A 
BRANCH  22  25
ATOM      5  N   UNL     1      11.592   9.402  22.398  0.00  0.00    -0.263 NA
ATOM     25  C   UNL     1      12.825   7.661  21.261  0.00  0.00    +0.057 A 
ATOM     29  C   UNL     1      11.708   6.835  21.299  0.00  0.00    +0.016 A 
ATOM     30  C   UNL     1      12.717   8.924  21.819  0.00  0.00    +0.124 A 
ATOM     31  C   UNL     1      10.532   7.291  21.885  0.00  0.00    +0.020 A 
ATOM     33  C   UNL     1      10.526   8.570  22.415  0.00  0.00    +0.111 A 
ENDBRANCH  22  25
ENDBRANCH  15  19
ENDBRANCH  10  15
TORSDOF 9
ENDMDL
MODEL 8
REMARK VINA RESULT:      -5.7     22.739     26.696
REMARK  Name = 38030471
REMARK  12 active torsions:
REMARK  status: ('A' for Active; 'I' for Inactive)
REMARK    1  A    between atoms: N_2  and  C_14
REMARK    2  A    between atoms: N_2  and  C_20
REMARK    3  A    between atoms: C_7  and  C_11
REMARK    4  A    between atoms: C_8  and  C_14
REMARK    5  A    between atoms: C_10  and  C_15
REMARK    6  A    between atoms: C_11  and  C_16
REMARK    7  A    between atoms: C_11  and  C_17
REMARK    8  A    between atoms: C_12  and  C_18
REMARK    9  A    between atoms: C_15  and  C_19
REMARK   10  A    between atoms: C_20  and  C_21
REMARK   11  A    between atoms: C_22  and  C_25
REMARK   12  A    between atoms: C_28  and  C_32
REMARK                            x       y       z     vdW  Elec       q    Type
REMARK                         _______ _______ _______ _____ _____    ______ ____
ROOT
ATOM      7  C   UNL     1     -15.631   8.591  31.125  0.00  0.00    +0.000 C 
ATOM      8  C   UNL     1     -15.385  10.092  31.421  0.00  0.00    +0.029 C 
ATOM      9  C   UNL     1     -15.909   7.826  32.428  0.00  0.00    +0.012 C 
ATOM     10  C   UNL     1     -14.746   7.941  33.430  0.00  0.00    +0.024 C 
ATOM     12  C   UNL     1     -14.267   9.371  33.576  0.00  0.00    -0.073 C 
ATOM     13  C   UNL     1     -14.573  10.322  32.675  0.00  0.00    -0.023 C 
ATOM     18  C   UNL     1     -13.463   9.694  34.804  0.00  0.00    +0.039 C 
ENDROOT
BRANCH   7  11
ATOM     11  C   UNL     1     -16.792   8.388  30.146  0.00  0.00    -0.013 C 
ATOM     16  C   UNL     1     -18.098   8.882  30.761  0.00  0.00    +0.007 C 
ATOM     17  C   UNL     1     -16.902   6.920  29.749  0.00  0.00    +0.007 C 
ENDBRANCH   7  11
BRANCH   8  14
ATOM     14  C   UNL     1     -14.703  10.786  30.237  0.00  0.00    +0.089 C 
BRANCH  14   2
ATOM      2  N   UNL     1     -13.599   9.984  29.739  0.00  0.00    -0.311 NA
ATOM     34  H   UNL     1     -13.445   9.184  30.350  0.00  0.00    +0.122 HD
BRANCH   2  20
ATOM     20  C   UNL     1     -12.373  10.770  29.658  0.00  0.00    +0.116 C 
BRANCH  20  21
ATOM     21  C   UNL     1     -11.495  10.565  30.863  0.00  0.00    -0.034 A 
ATOM     23  C   UNL     1     -10.870  11.657  31.464  0.00  0.00    +0.006 A 
ATOM     24  C   UNL     1     -11.307   9.283  31.379  0.00  0.00    +0.006 A 
ATOM     26  C   UNL     1     -10.056  11.468  32.581  0.00  0.00    +0.019 A 
ATOM     27  C   UNL     1     -10.493   9.092  32.495  0.00  0.00    +0.019 A 
ATOM     28  C   UNL     1      -9.867  10.185  33.096  0.00  0.00    +0.052 A 
BRANCH  28  32
ATOM      6  N   UNL     1      -8.357   9.832  35.170  0.00  0.00    -0.191 NA
ATOM     32  C   UNL     1      -9.034   9.990  34.240  0.00  0.00    +0.099 C 
ENDBRANCH  28  32
ENDBRANCH  20  21
ENDBRANCH   2  20
ENDBRANCH  14   2
ENDBRANCH   8  14
BRANCH  10  15
ATOM     15  C   UNL     1     -13.590   7.011  33.045  0.00  0.00    +0.105 C 
BRANCH  15  19
ATOM      1  O   UNL     1     -13.841   4.706  32.282  0.00  0.00    -0.420 OA
ATOM      3  N   UNL     1     -14.294   5.007  34.451  0.00  0.00    -0.112 NA
ATOM      4  N   UNL     1     -14.476   3.668  34.159  0.00  0.00    -0.107 NA
ATOM     19  C   UNL     1     -13.925   5.574  33.327  0.00  0.00    +0.218 A 
ATOM     22  C   UNL     1     -14.200   3.540  32.882  0.00  0.00    +0.250 A 
BRANCH  22  25
ATOM      5  N   UNL     1     -13.609   1.342  29.941  0.00  0.00    -0.263 NA
ATOM     25  C   UNL     1     -14.218   2.379  32.038  0.00  0.00    +0.057 A 
ATOM     29  C   UNL     1     -14.829   1.202  32.452  0.00  0.00    +0.016 A 
ATOM     30  C   UNL     1     -13.627   2.398  30.785  0.00  0.00    +0.124 A 
ATOM     31  C   UNL     1     -14.831   0.093  31.612  0.00  0.00    +0.020 A 
ATOM     33  C   UNL     1     -14.213   0.214  30.379  0.00  0.00    +0.111 A 
ENDBRANCH  22  25
ENDBRANCH  15  19
ENDBRANCH  10  15
TORSDOF 9
ENDMDL
MODEL 9
REMARK VINA RESULT:      -5.6     23.887     27.378
REMARK  Name = 38030471
REMARK  12 active torsions:
REMARK  status: ('A' for Active; 'I' for Inactive)
REMARK    1  A    between atoms: N_2  and  C_14
REMARK    2  A    between atoms: N_2  and  C_20
REMARK    3  A    between atoms: C_7  and  C_11
REMARK    4  A    between atoms: C_8  and  C_14
REMARK    5  A    between atoms: C_10  and  C_15
REMARK    6  A    between atoms: C_11  and  C_16
REMARK    7  A    between atoms: C_11  and  C_17
REMARK    8  A    between atoms: C_12  and  C_18
REMARK    9  A    between atoms: C_15  and  C_19
REMARK   10  A    between atoms: C_20  and  C_21
REMARK   11  A    between atoms: C_22  and  C_25
REMARK   12  A    between atoms: C_28  and  C_32
REMARK                            x       y       z     vdW  Elec       q    Type
REMARK                         _______ _______ _______ _____ _____    ______ ____
ROOT
ATOM      7  C   UNL     1       8.792   8.004   5.550  0.00  0.00    +0.000 C 
ATOM      8  C   UNL     1       8.592   8.140   7.080  0.00  0.00    +0.029 C 
ATOM      9  C   UNL     1       8.463   6.575   5.091  0.00  0.00    +0.012 C 
ATOM     10  C   UNL     1       9.340   5.522   5.793  0.00  0.00    +0.024 C 
ATOM     12  C   UNL     1       9.409   5.753   7.289  0.00  0.00    -0.073 C 
ATOM     13  C   UNL     1       9.059   6.925   7.848  0.00  0.00    -0.023 C 
ATOM     18  C   UNL     1       9.849   4.590   8.134  0.00  0.00    +0.039 C 
ENDROOT
BRANCH   7  11
ATOM     11  C   UNL     1       7.934   9.008   4.773  0.00  0.00    -0.013 C 
ATOM     16  C   UNL     1       7.755   8.550   3.329  0.00  0.00    +0.007 C 
ATOM     17  C   UNL     1       8.562  10.397   4.826  0.00  0.00    +0.007 C 
ENDBRANCH   7  11
BRANCH   8  14
ATOM     14  C   UNL     1       9.298   9.388   7.623  0.00  0.00    +0.089 C 
BRANCH  14   2
ATOM      2  N   UNL     1      10.634   9.059   8.088  0.00  0.00    -0.311 NA
ATOM     34  H   UNL     1      10.710   9.236   9.088  0.00  0.00    +0.122 HD
BRANCH   2  20
ATOM     20  C   UNL     1      11.643   9.843   7.383  0.00  0.00    +0.116 C 
BRANCH  20  21
ATOM     21  C   UNL     1      12.302   9.050   6.286  0.00  0.00    -0.034 A 
ATOM     23  C   UNL     1      13.235   8.063   6.602  0.00  0.00    +0.006 A 
ATOM     24  C   UNL     1      11.979   9.304   4.953  0.00  0.00    +0.006 A 
ATOM     26  C   UNL     1      13.845   7.328   5.585  0.00  0.00    +0.019 A 
ATOM     27  C   UNL     1      12.590   8.571   3.936  0.00  0.00    +0.019 A 
ATOM     28  C   UNL     1      13.523   7.583   4.252  0.00  0.00    +0.052 A 
BRANCH  28  32
ATOM      6  N   UNL     1      14.655   6.219   2.364  0.00  0.00    -0.191 NA
ATOM     32  C   UNL     1      14.148   6.831   3.210  0.00  0.00    +0.099 C 
ENDBRANCH  28  32
ENDBRANCH  20  21
ENDBRANCH   2  20
ENDBRANCH  14   2
ENDBRANCH   8  14
BRANCH  10  15
ATOM     15  C   UNL     1      10.744   5.475   5.180  0.00  0.00    +0.105 C 
BRANCH  15  19
ATOM      1  O   UNL     1      10.398   5.969   2.815  0.00  0.00    -0.420 OA
ATOM      3  N   UNL     1      10.917   3.835   3.238  0.00  0.00    -0.112 NA
ATOM      4  N   UNL     1      10.750   3.971   1.873  0.00  0.00    -0.107 NA
ATOM     19  C   UNL     1      10.702   5.025   3.748  0.00  0.00    +0.218 A 
ATOM     22  C   UNL     1      10.448   5.232   1.672  0.00  0.00    +0.250 A 
BRANCH  22  25
ATOM      5  N   UNL     1       9.901   5.893  -1.946  0.00  0.00    -0.263 NA
ATOM     25  C   UNL     1      10.169   5.941   0.456  0.00  0.00    +0.057 A 
ATOM     29  C   UNL     1       9.902   7.305   0.467  0.00  0.00    +0.016 A 
ATOM     30  C   UNL     1      10.155   5.286  -0.765  0.00  0.00    +0.124 A 
ATOM     31  C   UNL     1       9.635   7.965  -0.728  0.00  0.00    +0.020 A 
ATOM     33  C   UNL     1       9.645   7.220  -1.896  0.00  0.00    +0.111 A 
ENDBRANCH  22  25
ENDBRANCH  15  19
ENDBRANCH  10  15
TORSDOF 9
ENDMDL
MODEL 10
REMARK VINA RESULT:      -5.6     25.401     29.695
REMARK  Name = 38030471
REMARK  12 active torsions:
REMARK  status: ('A' for Active; 'I' for Inactive)
REMARK    1  A    between atoms: N_2  and  C_14
REMARK    2  A    between atoms: N_2  and  C_20
REMARK    3  A    between atoms: C_7  and  C_11
REMARK    4  A    between atoms: C_8  and  C_14
REMARK    5  A    between atoms: C_10  and  C_15
REMARK    6  A    between atoms: C_11  and  C_16
REMARK    7  A    between atoms: C_11  and  C_17
REMARK    8  A    between atoms: C_12  and  C_18
REMARK    9  A    between atoms: C_15  and  C_19
REMARK   10  A    between atoms: C_20  and  C_21
REMARK   11  A    between atoms: C_22  and  C_25
REMARK   12  A    between atoms: C_28  and  C_32
REMARK                            x       y       z     vdW  Elec       q    Type
REMARK                         _______ _______ _______ _____ _____    ______ ____
ROOT
ATOM      7  C   UNL     1      12.933   7.709   2.793  0.00  0.00    +0.000 C 
ATOM      8  C   UNL     1      11.806   7.160   3.705  0.00  0.00    +0.029 C 
ATOM      9  C   UNL     1      14.284   7.088   3.178  0.00  0.00    +0.012 C 
ATOM     10  C   UNL     1      14.660   7.375   4.643  0.00  0.00    +0.024 C 
ATOM     12  C   UNL     1      13.503   7.110   5.584  0.00  0.00    -0.073 C 
ATOM     13  C   UNL     1      12.236   7.005   5.146  0.00  0.00    -0.023 C 
ATOM     18  C   UNL     1      13.839   6.925   7.038  0.00  0.00    +0.039 C 
ENDROOT
BRANCH   7  11
ATOM     11  C   UNL     1      12.644   7.444   1.311  0.00  0.00    -0.013 C 
ATOM     16  C   UNL     1      12.142   6.017   1.114  0.00  0.00    +0.007 C 
ATOM     17  C   UNL     1      13.891   7.701   0.472  0.00  0.00    +0.007 C 
ENDBRANCH   7  11
BRANCH   8  14
ATOM     14  C   UNL     1      10.558   8.047   3.638  0.00  0.00    +0.089 C 
BRANCH  14   2
ATOM      2  N   UNL     1       9.376   7.248   3.366  0.00  0.00    -0.311 NA
ATOM     34  H   UNL     1       8.997   7.485   2.451  0.00  0.00    +0.122 HD
BRANCH   2  20
ATOM     20  C   UNL     1       8.351   7.466   4.382  0.00  0.00    +0.116 C 
BRANCH  20  21
ATOM     21  C   UNL     1       8.728   6.844   5.700  0.00  0.00    -0.034 A 
ATOM     23  C   UNL     1       9.187   5.527   5.743  0.00  0.00    +0.006 A 
ATOM     24  C   UNL     1       8.619   7.583   6.877  0.00  0.00    +0.006 A 
ATOM     26  C   UNL     1       9.537   4.950   6.964  0.00  0.00    +0.019 A 
ATOM     27  C   UNL     1       8.967   7.007   8.098  0.00  0.00    +0.019 A 
ATOM     28  C   UNL     1       9.426   5.690   8.142  0.00  0.00    +0.052 A 
BRANCH  28  32
ATOM      6  N   UNL     1      10.076   4.620  10.409  0.00  0.00    -0.191 NA
ATOM     32  C   UNL     1       9.784   5.100   9.393  0.00  0.00    +0.099 C 
ENDBRANCH  28  32
ENDBRANCH  20  21
ENDBRANCH   2  20
ENDBRANCH  14   2
ENDBRANCH   8  14
BRANCH  10  15
ATOM     15  C   UNL     1      15.186   8.804   4.810  0.00  0.00    +0.105 C 
BRANCH  15  19
ATOM      1  O   UNL     1      17.459   8.128   4.231  0.00  0.00    -0.420 OA
ATOM      3  N   UNL     1      17.322   9.401   6.064  0.00  0.00    -0.112 NA
ATOM      4  N   UNL     1      18.653   9.094   5.856  0.00  0.00    -0.107 NA
ATOM     19  C   UNL     1      16.662   8.816   5.093  0.00  0.00    +0.218 A 
ATOM     22  C   UNL     1      18.685   8.350   4.776  0.00  0.00    +0.250 A 
BRANCH  22  25
ATOM      5  N   UNL     1      21.745   6.321   4.184  0.00  0.00    -0.263 NA
ATOM     25  C   UNL     1      19.794   7.745   4.094  0.00  0.00    +0.057 A 
ATOM     29  C   UNL     1      20.011   7.970   2.740  0.00  0.00    +0.016 A 
ATOM     30  C   UNL     1      20.681   6.920   4.766  0.00  0.00    +0.124 A 
ATOM     31  C   UNL     1      21.094   7.370   2.106  0.00  0.00    +0.020 A 
ATOM     33  C   UNL     1      21.923   6.562   2.866  0.00  0.00    +0.111 A 
ENDBRANCH  22  25
ENDBRANCH  15  19
ENDBRANCH  10  15
TORSDOF 9
ENDMDL
