MODEL 1
REMARK VINA RESULT:      -7.7      0.000      0.000
REMARK  Name = 26742458
REMARK  6 active torsions:
REMARK  status: ('A' for Active; 'I' for Inactive)
REMARK    1  A    between atoms: N_4  and  C_15
REMARK    2  A    between atoms: N_7  and  C_24
REMARK    3  A    between atoms: C_9  and  C_16
REMARK    4  A    between atoms: C_10  and  C_15
REMARK    5  A    between atoms: C_18  and  C_21
REMARK    6  A    between atoms: C_19  and  C_22
REMARK                            x       y       z     vdW  Elec       q    Type
REMARK                         _______ _______ _______ _____ _____    ______ ____
ROOT
ATOM      3  N   UNL     1      -5.973 -10.433   9.855  0.00  0.00    -0.297 NA
ATOM      8  C   UNL     1      -3.674  -9.302  10.321  0.00  0.00    +0.002 C 
ATOM      9  C   UNL     1      -3.603 -10.824  10.625  0.00  0.00    +0.055 C 
ATOM     10  C   UNL     1      -6.163  -9.228  10.707  0.00  0.00    +0.074 C 
ATOM     11  C   UNL     1      -4.800  -8.666  11.164  0.00  0.00    +0.024 C 
ATOM     12  C   UNL     1      -4.083  -9.163   8.839  0.00  0.00    +0.019 C 
ATOM     13  C   UNL     1      -5.050 -11.386  10.520  0.00  0.00    +0.094 C 
ATOM     14  C   UNL     1      -5.350  -9.997   8.582  0.00  0.00    +0.085 C 
ENDROOT
BRANCH   9  16
ATOM      5  N   UNL     1      -2.485 -10.297  12.735  0.00  0.00    -0.237 NA
ATOM      6  N   UNL     1      -1.637 -12.011  14.203  0.00  0.00    -0.229 NA
ATOM     16  C   UNL     1      -2.902 -11.271  11.900  0.00  0.00    +0.050 A 
ATOM     17  C   UNL     1      -2.726 -12.618  12.143  0.00  0.00    +0.055 A 
ATOM     18  C   UNL     1      -2.081 -12.932  13.323  0.00  0.00    +0.110 A 
ATOM     19  C   UNL     1      -1.869 -10.732  13.851  0.00  0.00    +0.127 A 
ATOM     22  C   UNL     1      -1.394  -9.685  14.801  0.00  0.00    +0.088 C 
BRANCH  18  21
ATOM      2  O   UNL     1      -2.704 -14.823  14.599  0.00  0.00    -0.461 OA
ATOM     21  C   UNL     1      -1.831 -14.298  13.700  0.00  0.00    +0.153 A 
ATOM     23  C   UNL     1      -0.880 -15.228  13.350  0.00  0.00    +0.051 A 
ATOM     25  C   UNL     1      -1.188 -16.400  14.082  0.00  0.00    +0.042 A 
ATOM     26  C   UNL     1      -2.306 -16.102  14.826  0.00  0.00    +0.196 A 
ENDBRANCH  18  21
ENDBRANCH   9  16
BRANCH  10  15
ATOM     15  C   UNL     1      -7.096  -9.492  11.890  0.00  0.00    +0.124 C 
BRANCH  15   4
ATOM      1  O   UNL     1      -6.894 -11.234  14.155  0.00  0.00    -0.253 OA
ATOM      4  N   UNL     1      -6.440  -9.210  13.129  0.00  0.00    -0.298 N 
ATOM      7  N   UNL     1      -5.678  -9.569  15.278  0.00  0.00    -0.269 N 
ATOM     20  C   UNL     1      -6.381 -10.119  14.202  0.00  0.00    +0.304 C 
ATOM     32  H   UNL     1      -5.997  -8.303  13.242  0.00  0.00    +0.150 HD
ATOM     33  H   UNL     1      -5.316  -8.627  15.153  0.00  0.00    +0.156 HD
BRANCH   7  24
ATOM     24  C   UNL     1      -5.404 -10.165  16.531  0.00  0.00    +0.035 A 
ATOM     27  C   UNL     1      -4.197 -10.833  16.736  0.00  0.00    +0.023 A 
ATOM     28  C   UNL     1      -6.340 -10.085  17.561  0.00  0.00    +0.023 A 
ATOM     29  C   UNL     1      -3.926 -11.422  17.971  0.00  0.00    +0.002 A 
ATOM     30  C   UNL     1      -6.069 -10.672  18.797  0.00  0.00    +0.002 A 
ATOM     31  C   UNL     1      -4.863 -11.340  19.002  0.00  0.00    +0.000 A 
ENDBRANCH   7  24
ENDBRANCH  15   4
ENDBRANCH  10  15
TORSDOF 5
ENDMDL
MODEL 2
REMARK VINA RESULT:      -7.5     26.156     29.188
REMARK  Name = 26742458
REMARK  6 active torsions:
REMARK  status: ('A' for Active; 'I' for Inactive)
REMARK    1  A    between atoms: N_4  and  C_15
REMARK    2  A    between atoms: N_7  and  C_24
REMARK    3  A    between atoms: C_9  and  C_16
REMARK    4  A    between atoms: C_10  and  C_15
REMARK    5  A    between atoms: C_18  and  C_21
REMARK    6  A    between atoms: C_19  and  C_22
REMARK                            x       y       z     vdW  Elec       q    Type
REMARK                         _______ _______ _______ _____ _____    ______ ____
ROOT
ATOM      3  N   UNL     1      14.964   9.130  18.538  0.00  0.00    -0.297 NA
ATOM      8  C   UNL     1      12.382   9.220  18.213  0.00  0.00    +0.002 C 
ATOM      9  C   UNL     1      12.802  10.049  19.458  0.00  0.00    +0.055 C 
ATOM     10  C   UNL     1      14.426   7.755  18.361  0.00  0.00    +0.074 C 
ATOM     11  C   UNL     1      12.883   7.769  18.374  0.00  0.00    +0.024 C 
ATOM     12  C   UNL     1      13.126   9.825  17.003  0.00  0.00    +0.019 C 
ATOM     13  C   UNL     1      14.315   9.784  19.703  0.00  0.00    +0.094 C 
ATOM     14  C   UNL     1      14.628   9.911  17.323  0.00  0.00    +0.085 C 
ENDROOT
BRANCH   9  16
ATOM      5  N   UNL     1      11.385   8.711  20.935  0.00  0.00    -0.237 NA
ATOM      6  N   UNL     1      10.486   9.588  22.993  0.00  0.00    -0.229 NA
ATOM     16  C   UNL     1      11.978   9.905  20.729  0.00  0.00    +0.050 A 
ATOM     17  C   UNL     1      11.873  10.973  21.596  0.00  0.00    +0.055 A 
ATOM     18  C   UNL     1      11.107  10.754  22.723  0.00  0.00    +0.110 A 
ATOM     19  C   UNL     1      10.665   8.623  22.070  0.00  0.00    +0.127 A 
ATOM     22  C   UNL     1       9.995   7.317  22.335  0.00  0.00    +0.088 C 
BRANCH  18  21
ATOM      2  O   UNL     1      10.568  13.003  23.220  0.00  0.00    -0.461 OA
ATOM     21  C   UNL     1      10.912  11.783  23.710  0.00  0.00    +0.153 A 
ATOM     23  C   UNL     1      10.996  11.820  25.083  0.00  0.00    +0.051 A 
ATOM     25  C   UNL     1      10.684  13.148  25.460  0.00  0.00    +0.042 A 
ATOM     26  C   UNL     1      10.430  13.828  24.291  0.00  0.00    +0.196 A 
ENDBRANCH  18  21
ENDBRANCH   9  16
BRANCH  10  15
ATOM     15  C   UNL     1      14.996   6.770  19.383  0.00  0.00    +0.124 C 
BRANCH  15   4
ATOM      1  O   UNL     1      17.001   6.348  21.384  0.00  0.00    -0.253 OA
ATOM      4  N   UNL     1      16.393   6.557  19.162  0.00  0.00    -0.298 N 
ATOM      7  N   UNL     1      18.609   6.176  19.683  0.00  0.00    -0.269 N 
ATOM     20  C   UNL     1      17.322   6.356  20.199  0.00  0.00    +0.304 C 
ATOM     32  H   UNL     1      16.733   6.556  18.205  0.00  0.00    +0.150 HD
ATOM     33  H   UNL     1      18.704   6.212  18.671  0.00  0.00    +0.156 HD
BRANCH   7  24
ATOM     24  C   UNL     1      19.807   5.948  20.398  0.00  0.00    +0.035 A 
ATOM     27  C   UNL     1      20.378   4.675  20.415  0.00  0.00    +0.023 A 
ATOM     28  C   UNL     1      20.419   6.995  21.087  0.00  0.00    +0.023 A 
ATOM     29  C   UNL     1      21.559   4.449  21.121  0.00  0.00    +0.002 A 
ATOM     30  C   UNL     1      21.601   6.769  21.793  0.00  0.00    +0.002 A 
ATOM     31  C   UNL     1      22.171   5.497  21.810  0.00  0.00    +0.000 A 
ENDBRANCH   7  24
ENDBRANCH  15   4
ENDBRANCH  10  15
TORSDOF 5
ENDMDL
MODEL 3
REMARK VINA RESULT:      -7.3      1.673      2.841
REMARK  Name = 26742458
REMARK  6 active torsions:
REMARK  status: ('A' for Active; 'I' for Inactive)
REMARK    1  A    between atoms: N_4  and  C_15
REMARK    2  A    between atoms: N_7  and  C_24
REMARK    3  A    between atoms: C_9  and  C_16
REMARK    4  A    between atoms: C_10  and  C_15
REMARK    5  A    between atoms: C_18  and  C_21
REMARK    6  A    between atoms: C_19  and  C_22
REMARK                            x       y       z     vdW  Elec       q    Type
REMARK                         _______ _______ _______ _____ _____    ______ ____
ROOT
ATOM      3  N   UNL     1      -6.857 -10.176   9.425  0.00  0.00    -0.297 NA
ATOM      8  C   UNL     1      -4.361  -9.493   9.709  0.00  0.00    +0.002 C 
ATOM      9  C   UNL     1      -4.513 -11.038   9.778  0.00  0.00    +0.055 C 
ATOM     10  C   UNL     1      -6.736  -9.115  10.460  0.00  0.00    +0.074 C 
ATOM     11  C   UNL     1      -5.252  -8.845  10.789  0.00  0.00    +0.024 C 
ATOM     12  C   UNL     1      -4.916  -9.052   8.338  0.00  0.00    +0.019 C 
ATOM     13  C   UNL     1      -6.036 -11.353   9.805  0.00  0.00    +0.094 C 
ATOM     14  C   UNL     1      -6.328  -9.634   8.151  0.00  0.00    +0.085 C 
ENDROOT
BRANCH   9  16
ATOM      5  N   UNL     1      -3.642 -13.125  10.710  0.00  0.00    -0.237 NA
ATOM      6  N   UNL     1      -2.390 -13.187  12.769  0.00  0.00    -0.229 NA
ATOM     16  C   UNL     1      -3.749 -11.788  10.859  0.00  0.00    +0.050 A 
ATOM     17  C   UNL     1      -3.211 -11.090  11.921  0.00  0.00    +0.055 A 
ATOM     18  C   UNL     1      -2.535 -11.849  12.854  0.00  0.00    +0.110 A 
ATOM     19  C   UNL     1      -2.960 -13.752  11.687  0.00  0.00    +0.127 A 
ATOM     22  C   UNL     1      -2.819 -15.231  11.557  0.00  0.00    +0.088 C 
BRANCH  18  21
ATOM      2  O   UNL     1      -1.645  -9.924  13.901  0.00  0.00    -0.461 OA
ATOM     21  C   UNL     1      -1.927 -11.249  14.012  0.00  0.00    +0.153 A 
ATOM     23  C   UNL     1      -1.552 -11.722  15.248  0.00  0.00    +0.051 A 
ATOM     25  C   UNL     1      -1.003 -10.616  15.941  0.00  0.00    +0.042 A 
ATOM     26  C   UNL     1      -1.083  -9.547  15.079  0.00  0.00    +0.196 A 
ENDBRANCH  18  21
ENDBRANCH   9  16
BRANCH  10  15
ATOM     15  C   UNL     1      -7.551  -9.429  11.716  0.00  0.00    +0.124 C 
BRANCH  15   4
ATOM      1  O   UNL     1      -7.674 -10.890  14.176  0.00  0.00    -0.253 OA
ATOM      4  N   UNL     1      -6.783  -9.181  12.897  0.00  0.00    -0.298 N 
ATOM      7  N   UNL     1      -6.025  -9.471  15.058  0.00  0.00    -0.269 N 
ATOM     20  C   UNL     1      -6.897  -9.945  14.073  0.00  0.00    +0.304 C 
ATOM     32  H   UNL     1      -6.122  -8.410  12.886  0.00  0.00    +0.150 HD
ATOM     33  H   UNL     1      -5.447  -8.673  14.809  0.00  0.00    +0.156 HD
BRANCH   7  24
ATOM     24  C   UNL     1      -5.845  -9.968  16.369  0.00  0.00    +0.035 A 
ATOM     27  C   UNL     1      -6.862  -9.831  17.313  0.00  0.00    +0.023 A 
ATOM     28  C   UNL     1      -4.650 -10.597  16.719  0.00  0.00    +0.023 A 
ATOM     29  C   UNL     1      -6.684 -10.321  18.607  0.00  0.00    +0.002 A 
ATOM     30  C   UNL     1      -4.472 -11.088  18.012  0.00  0.00    +0.002 A 
ATOM     31  C   UNL     1      -5.489 -10.950  18.956  0.00  0.00    +0.000 A 
ENDBRANCH   7  24
ENDBRANCH  15   4
ENDBRANCH  10  15
TORSDOF 5
ENDMDL
MODEL 4
REMARK VINA RESULT:      -7.1      2.172      6.511
REMARK  Name = 26742458
REMARK  6 active torsions:
REMARK  status: ('A' for Active; 'I' for Inactive)
REMARK    1  A    between atoms: N_4  and  C_15
REMARK    2  A    between atoms: N_7  and  C_24
REMARK    3  A    between atoms: C_9  and  C_16
REMARK    4  A    between atoms: C_10  and  C_15
REMARK    5  A    between atoms: C_18  and  C_21
REMARK    6  A    between atoms: C_19  and  C_22
REMARK                            x       y       z     vdW  Elec       q    Type
REMARK                         _______ _______ _______ _____ _____    ______ ____
ROOT
ATOM      3  N   UNL     1      -7.510 -11.671  17.696  0.00  0.00    -0.297 NA
ATOM      8  C   UNL     1      -5.136 -10.936  18.473  0.00  0.00    +0.002 C 
ATOM      9  C   UNL     1      -5.424 -10.415  17.038  0.00  0.00    +0.055 C 
ATOM     10  C   UNL     1      -6.764 -12.843  18.227  0.00  0.00    +0.074 C 
ATOM     11  C   UNL     1      -5.291 -12.472  18.499  0.00  0.00    +0.024 C 
ATOM     12  C   UNL     1      -6.235 -10.354  19.387  0.00  0.00    +0.019 C 
ATOM     13  C   UNL     1      -6.761 -11.058  16.571  0.00  0.00    +0.094 C 
ATOM     14  C   UNL     1      -7.615 -10.668  18.783  0.00  0.00    +0.085 C 
ENDROOT
BRANCH   9  16
ATOM      5  N   UNL     1      -3.055 -10.427  16.430  0.00  0.00    -0.237 NA
ATOM      6  N   UNL     1      -2.313 -10.766  14.162  0.00  0.00    -0.229 NA
ATOM     16  C   UNL     1      -4.326 -10.544  15.992  0.00  0.00    +0.050 A 
ATOM     17  C   UNL     1      -4.665 -10.770  14.674  0.00  0.00    +0.055 A 
ATOM     18  C   UNL     1      -3.606 -10.874  13.794  0.00  0.00    +0.110 A 
ATOM     19  C   UNL     1      -2.112 -10.546  15.475  0.00  0.00    +0.127 A 
ATOM     22  C   UNL     1      -0.694 -10.424  15.920  0.00  0.00    +0.088 C 
BRANCH  18  21
ATOM      2  O   UNL     1      -4.943 -10.551  11.869  0.00  0.00    -0.461 OA
ATOM     21  C   UNL     1      -3.817 -11.107  12.390  0.00  0.00    +0.153 A 
ATOM     23  C   UNL     1      -3.119 -11.785  11.418  0.00  0.00    +0.051 A 
ATOM     25  C   UNL     1      -3.864 -11.637  10.224  0.00  0.00    +0.042 A 
ATOM     26  C   UNL     1      -4.963 -10.878  10.551  0.00  0.00    +0.196 A 
ENDBRANCH  18  21
ENDBRANCH   9  16
BRANCH  10  15
ATOM     15  C   UNL     1      -6.886 -14.070  17.322  0.00  0.00    +0.124 C 
BRANCH  15   4
ATOM      1  O   UNL     1      -5.577 -14.198  14.777  0.00  0.00    -0.253 OA
ATOM      4  N   UNL     1      -5.599 -14.632  17.049  0.00  0.00    -0.298 N 
ATOM      7  N   UNL     1      -3.760 -15.269  15.808  0.00  0.00    -0.269 N 
ATOM     20  C   UNL     1      -5.018 -14.659  15.769  0.00  0.00    +0.304 C 
ATOM     32  H   UNL     1      -5.079 -15.037  17.822  0.00  0.00    +0.150 HD
ATOM     33  H   UNL     1      -3.442 -15.599  16.716  0.00  0.00    +0.156 HD
BRANCH   7  24
ATOM     24  C   UNL     1      -2.866 -15.485  14.734  0.00  0.00    +0.035 A 
ATOM     27  C   UNL     1      -2.658 -16.776  14.249  0.00  0.00    +0.023 A 
ATOM     28  C   UNL     1      -2.193 -14.408  14.159  0.00  0.00    +0.023 A 
ATOM     29  C   UNL     1      -1.777 -16.990  13.190  0.00  0.00    +0.002 A 
ATOM     30  C   UNL     1      -1.312 -14.621  13.099  0.00  0.00    +0.002 A 
ATOM     31  C   UNL     1      -1.104 -15.912  12.615  0.00  0.00    +0.000 A 
ENDBRANCH   7  24
ENDBRANCH  15   4
ENDBRANCH  10  15
TORSDOF 5
ENDMDL
MODEL 5
REMARK VINA RESULT:      -7.0      3.167      7.107
REMARK  Name = 26742458
REMARK  6 active torsions:
REMARK  status: ('A' for Active; 'I' for Inactive)
REMARK    1  A    between atoms: N_4  and  C_15
REMARK    2  A    between atoms: N_7  and  C_24
REMARK    3  A    between atoms: C_9  and  C_16
REMARK    4  A    between atoms: C_10  and  C_15
REMARK    5  A    between atoms: C_18  and  C_21
REMARK    6  A    between atoms: C_19  and  C_22
REMARK                            x       y       z     vdW  Elec       q    Type
REMARK                         _______ _______ _______ _____ _____    ______ ____
ROOT
ATOM      3  N   UNL     1      -5.584 -11.024  10.641  0.00  0.00    -0.297 NA
ATOM      8  C   UNL     1      -3.201 -11.681  11.459  0.00  0.00    +0.002 C 
ATOM      9  C   UNL     1      -4.236 -11.855  12.605  0.00  0.00    +0.055 C 
ATOM     10  C   UNL     1      -4.614  -9.951  10.295  0.00  0.00    +0.074 C 
ATOM     11  C   UNL     1      -3.244 -10.225  10.950  0.00  0.00    +0.024 C 
ATOM     12  C   UNL     1      -3.669 -12.583  10.297  0.00  0.00    +0.019 C 
ATOM     13  C   UNL     1      -5.583 -11.257  12.107  0.00  0.00    +0.094 C 
ATOM     14  C   UNL     1      -5.141 -12.272   9.975  0.00  0.00    +0.085 C 
ENDROOT
BRANCH   9  16
ATOM      5  N   UNL     1      -2.569 -11.025  14.190  0.00  0.00    -0.237 NA
ATOM      6  N   UNL     1      -3.131 -10.459  16.465  0.00  0.00    -0.229 NA
ATOM     16  C   UNL     1      -3.862 -11.358  13.993  0.00  0.00    +0.050 A 
ATOM     17  C   UNL     1      -4.834 -11.269  14.969  0.00  0.00    +0.055 A 
ATOM     18  C   UNL     1      -4.406 -10.809  16.198  0.00  0.00    +0.110 A 
ATOM     19  C   UNL     1      -2.278 -10.590  15.431  0.00  0.00    +0.127 A 
ATOM     22  C   UNL     1      -0.859 -10.211  15.688  0.00  0.00    +0.088 C 
BRANCH  18  21
ATOM      2  O   UNL     1      -4.845 -11.107  18.503  0.00  0.00    -0.461 OA
ATOM     21  C   UNL     1      -5.314 -10.669  17.305  0.00  0.00    +0.153 A 
ATOM     23  C   UNL     1      -6.592 -10.177  17.438  0.00  0.00    +0.051 A 
ATOM     25  C   UNL     1      -6.930 -10.324  18.805  0.00  0.00    +0.042 A 
ATOM     26  C   UNL     1      -5.833 -10.893  19.410  0.00  0.00    +0.196 A 
ENDBRANCH  18  21
ENDBRANCH   9  16
BRANCH  10  15
ATOM     15  C   UNL     1      -5.141  -8.556  10.637  0.00  0.00    +0.124 C 
BRANCH  15   4
ATOM      1  O   UNL     1      -7.792  -8.765   9.572  0.00  0.00    -0.253 OA
ATOM      4  N   UNL     1      -5.648  -7.902   9.470  0.00  0.00    -0.298 N 
ATOM      7  N   UNL     1      -7.174  -7.296   7.849  0.00  0.00    -0.269 N 
ATOM     20  C   UNL     1      -6.967  -8.053   9.006  0.00  0.00    +0.304 C 
ATOM     32  H   UNL     1      -5.020  -7.300   8.947  0.00  0.00    +0.150 HD
ATOM     33  H   UNL     1      -6.381  -6.758   7.507  0.00  0.00    +0.156 HD
BRANCH   7  24
ATOM     24  C   UNL     1      -8.360  -7.182   7.086  0.00  0.00    +0.035 A 
ATOM     27  C   UNL     1      -9.505  -6.627   7.656  0.00  0.00    +0.023 A 
ATOM     28  C   UNL     1      -8.384  -7.625   5.764  0.00  0.00    +0.023 A 
ATOM     29  C   UNL     1     -10.675  -6.516   6.905  0.00  0.00    +0.002 A 
ATOM     30  C   UNL     1      -9.554  -7.513   5.012  0.00  0.00    +0.002 A 
ATOM     31  C   UNL     1     -10.698  -6.958   5.582  0.00  0.00    +0.000 A 
ENDBRANCH   7  24
ENDBRANCH  15   4
ENDBRANCH  10  15
TORSDOF 5
ENDMDL
MODEL 6
REMARK VINA RESULT:      -6.9      3.436      6.598
REMARK  Name = 26742458
REMARK  6 active torsions:
REMARK  status: ('A' for Active; 'I' for Inactive)
REMARK    1  A    between atoms: N_4  and  C_15
REMARK    2  A    between atoms: N_7  and  C_24
REMARK    3  A    between atoms: C_9  and  C_16
REMARK    4  A    between atoms: C_10  and  C_15
REMARK    5  A    between atoms: C_18  and  C_21
REMARK    6  A    between atoms: C_19  and  C_22
REMARK                            x       y       z     vdW  Elec       q    Type
REMARK                         _______ _______ _______ _____ _____    ______ ____
ROOT
ATOM      3  N   UNL     1      -6.355 -10.606  17.573  0.00  0.00    -0.297 NA
ATOM      8  C   UNL     1      -4.321 -12.226  17.449  0.00  0.00    +0.002 C 
ATOM      9  C   UNL     1      -4.107 -11.012  16.504  0.00  0.00    +0.055 C 
ATOM     10  C   UNL     1      -6.828 -11.999  17.356  0.00  0.00    +0.074 C 
ATOM     11  C   UNL     1      -5.637 -12.939  17.074  0.00  0.00    +0.024 C 
ATOM     12  C   UNL     1      -4.503 -11.655  18.872  0.00  0.00    +0.019 C 
ATOM     13  C   UNL     1      -5.436 -10.204  16.479  0.00  0.00    +0.094 C 
ATOM     14  C   UNL     1      -5.599 -10.574  18.847  0.00  0.00    +0.085 C 
ENDROOT
BRANCH   9  16
ATOM      5  N   UNL     1      -2.715 -12.315  14.971  0.00  0.00    -0.237 NA
ATOM      6  N   UNL     1      -2.562 -11.798  12.622  0.00  0.00    -0.229 NA
ATOM     16  C   UNL     1      -3.566 -11.276  15.106  0.00  0.00    +0.050 A 
ATOM     17  C   UNL     1      -3.956 -10.464  14.061  0.00  0.00    +0.055 A 
ATOM     18  C   UNL     1      -3.417 -10.776  12.829  0.00  0.00    +0.110 A 
ATOM     19  C   UNL     1      -2.259 -12.516  13.720  0.00  0.00    +0.127 A 
ATOM     22  C   UNL     1      -1.317 -13.656  13.530  0.00  0.00    +0.088 C 
BRANCH  18  21
ATOM      2  O   UNL     1      -4.929  -9.356  11.691  0.00  0.00    -0.461 OA
ATOM     21  C   UNL     1      -3.738 -10.010  11.654  0.00  0.00    +0.153 A 
ATOM     23  C   UNL     1      -3.097  -9.778  10.459  0.00  0.00    +0.051 A 
ATOM     25  C   UNL     1      -3.949  -8.927   9.715  0.00  0.00    +0.042 A 
ATOM     26  C   UNL     1      -5.049  -8.699  10.509  0.00  0.00    +0.196 A 
ENDBRANCH  18  21
ENDBRANCH   9  16
BRANCH  10  15
ATOM     15  C   UNL     1      -7.896 -12.089  16.264  0.00  0.00    +0.124 C 
BRANCH  15   4
ATOM      1  O   UNL     1      -8.744  -9.634  15.057  0.00  0.00    -0.253 OA
ATOM      4  N   UNL     1      -9.049 -11.318  16.614  0.00  0.00    -0.298 N 
ATOM      7  N   UNL     1     -10.574  -9.588  16.526  0.00  0.00    -0.269 N 
ATOM     20  C   UNL     1      -9.404 -10.117  15.973  0.00  0.00    +0.304 C 
ATOM     32  H   UNL     1      -9.640 -11.654  17.368  0.00  0.00    +0.150 HD
ATOM     33  H   UNL     1     -10.999 -10.115  17.285  0.00  0.00    +0.156 HD
BRANCH   7  24
ATOM     24  C   UNL     1     -11.249  -8.401  16.158  0.00  0.00    +0.035 A 
ATOM     27  C   UNL     1     -12.417  -8.468  15.400  0.00  0.00    +0.023 A 
ATOM     28  C   UNL     1     -10.745  -7.161  16.554  0.00  0.00    +0.023 A 
ATOM     29  C   UNL     1     -13.082  -7.298  15.037  0.00  0.00    +0.002 A 
ATOM     30  C   UNL     1     -11.411  -5.990  16.191  0.00  0.00    +0.002 A 
ATOM     31  C   UNL     1     -12.578  -6.058  15.433  0.00  0.00    +0.000 A 
ENDBRANCH   7  24
ENDBRANCH  15   4
ENDBRANCH  10  15
TORSDOF 5
ENDMDL
MODEL 7
REMARK VINA RESULT:      -6.8      3.576      7.671
REMARK  Name = 26742458
REMARK  6 active torsions:
REMARK  status: ('A' for Active; 'I' for Inactive)
REMARK    1  A    between atoms: N_4  and  C_15
REMARK    2  A    between atoms: N_7  and  C_24
REMARK    3  A    between atoms: C_9  and  C_16
REMARK    4  A    between atoms: C_10  and  C_15
REMARK    5  A    between atoms: C_18  and  C_21
REMARK    6  A    between atoms: C_19  and  C_22
REMARK                            x       y       z     vdW  Elec       q    Type
REMARK                         _______ _______ _______ _____ _____    ______ ____
ROOT
ATOM      3  N   UNL     1      -5.076  -9.481  10.654  0.00  0.00    -0.297 NA
ATOM      8  C   UNL     1      -6.153 -10.732   8.640  0.00  0.00    +0.002 C 
ATOM      9  C   UNL     1      -5.905  -9.241   8.284  0.00  0.00    +0.055 C 
ATOM     10  C   UNL     1      -6.273 -10.238  11.108  0.00  0.00    +0.074 C 
ATOM     11  C   UNL     1      -7.042 -10.816   9.900  0.00  0.00    +0.024 C 
ATOM     12  C   UNL     1      -4.781 -11.335   9.012  0.00  0.00    +0.019 C 
ATOM     13  C   UNL     1      -5.456  -8.521   9.588  0.00  0.00    +0.094 C 
ATOM     14  C   UNL     1      -4.113 -10.452  10.082  0.00  0.00    +0.085 C 
ENDROOT
BRANCH   9  16
ATOM      5  N   UNL     1      -7.187  -8.777   6.253  0.00  0.00    -0.237 NA
ATOM      6  N   UNL     1      -8.969  -7.155   6.202  0.00  0.00    -0.229 NA
ATOM     16  C   UNL     1      -7.007  -8.483   7.558  0.00  0.00    +0.050 A 
ATOM     17  C   UNL     1      -7.757  -7.549   8.243  0.00  0.00    +0.055 A 
ATOM     18  C   UNL     1      -8.734  -6.910   7.507  0.00  0.00    +0.110 A 
ATOM     19  C   UNL     1      -8.170  -8.086   5.646  0.00  0.00    +0.127 A 
ATOM     22  C   UNL     1      -8.402  -8.384   4.203  0.00  0.00    +0.088 C 
BRANCH  18  21
ATOM      2  O   UNL     1     -10.914  -6.208   8.097  0.00  0.00    -0.461 OA
ATOM     21  C   UNL     1      -9.587  -5.913   8.097  0.00  0.00    +0.153 A 
ATOM     23  C   UNL     1      -9.365  -4.689   8.683  0.00  0.00    +0.051 A 
ATOM     25  C   UNL     1     -10.636  -4.199   9.066  0.00  0.00    +0.042 A 
ATOM     26  C   UNL     1     -11.545  -5.160   8.688  0.00  0.00    +0.196 A 
ENDBRANCH  18  21
ENDBRANCH   9  16
BRANCH  10  15
ATOM     15  C   UNL     1      -7.181  -9.405  12.015  0.00  0.00    +0.124 C 
BRANCH  15   4
ATOM      1  O   UNL     1      -7.090 -11.151  14.284  0.00  0.00    -0.253 OA
ATOM      4  N   UNL     1      -6.546  -9.144  13.270  0.00  0.00    -0.298 N 
ATOM      7  N   UNL     1      -5.848  -9.526  15.436  0.00  0.00    -0.269 N 
ATOM     20  C   UNL     1      -6.542 -10.053  14.343  0.00  0.00    +0.304 C 
ATOM     32  H   UNL     1      -6.076  -8.252  13.393  0.00  0.00    +0.150 HD
ATOM     33  H   UNL     1      -5.452  -8.597  15.320  0.00  0.00    +0.156 HD
BRANCH   7  24
ATOM     24  C   UNL     1      -5.623 -10.130  16.695  0.00  0.00    +0.035 A 
ATOM     27  C   UNL     1      -4.420 -10.788  16.949  0.00  0.00    +0.023 A 
ATOM     28  C   UNL     1      -6.605 -10.068  17.684  0.00  0.00    +0.023 A 
ATOM     29  C   UNL     1      -4.198 -11.384  18.189  0.00  0.00    +0.002 A 
ATOM     30  C   UNL     1      -6.383 -10.663  18.926  0.00  0.00    +0.002 A 
ATOM     31  C   UNL     1      -5.180 -11.321  19.178  0.00  0.00    +0.000 A 
ENDBRANCH   7  24
ENDBRANCH  15   4
ENDBRANCH  10  15
TORSDOF 5
ENDMDL
MODEL 8
REMARK VINA RESULT:      -6.8      3.452      5.599
REMARK  Name = 26742458
REMARK  6 active torsions:
REMARK  status: ('A' for Active; 'I' for Inactive)
REMARK    1  A    between atoms: N_4  and  C_15
REMARK    2  A    between atoms: N_7  and  C_24
REMARK    3  A    between atoms: C_9  and  C_16
REMARK    4  A    between atoms: C_10  and  C_15
REMARK    5  A    between atoms: C_18  and  C_21
REMARK    6  A    between atoms: C_19  and  C_22
REMARK                            x       y       z     vdW  Elec       q    Type
REMARK                         _______ _______ _______ _____ _____    ______ ____
ROOT
ATOM      3  N   UNL     1      -5.398  -9.975  11.500  0.00  0.00    -0.297 NA
ATOM      8  C   UNL     1      -4.499  -9.439   9.115  0.00  0.00    +0.002 C 
ATOM      9  C   UNL     1      -5.315 -10.761   9.105  0.00  0.00    +0.055 C 
ATOM     10  C   UNL     1      -3.943  -9.672  11.561  0.00  0.00    +0.074 C 
ATOM     11  C   UNL     1      -3.351  -9.557  10.140  0.00  0.00    +0.024 C 
ATOM     12  C   UNL     1      -5.450  -8.334   9.623  0.00  0.00    +0.019 C 
ATOM     13  C   UNL     1      -5.642 -11.116  10.583  0.00  0.00    +0.094 C 
ATOM     14  C   UNL     1      -6.088  -8.784  10.949  0.00  0.00    +0.085 C 
ENDROOT
BRANCH   9  16
ATOM      5  N   UNL     1      -4.668 -13.118   9.005  0.00  0.00    -0.237 NA
ATOM      6  N   UNL     1      -3.744 -14.113   7.013  0.00  0.00    -0.229 NA
ATOM     16  C   UNL     1      -4.750 -11.948   8.337  0.00  0.00    +0.050 A 
ATOM     17  C   UNL     1      -4.355 -11.784   7.026  0.00  0.00    +0.055 A 
ATOM     18  C   UNL     1      -3.855 -12.913   6.407  0.00  0.00    +0.110 A 
ATOM     19  C   UNL     1      -4.163 -14.144   8.292  0.00  0.00    +0.127 A 
ATOM     22  C   UNL     1      -4.058 -15.455   8.995  0.00  0.00    +0.088 C 
BRANCH  18  21
ATOM      2  O   UNL     1      -2.374 -13.718   4.748  0.00  0.00    -0.461 OA
ATOM     21  C   UNL     1      -3.406 -12.883   5.040  0.00  0.00    +0.153 A 
ATOM     23  C   UNL     1      -3.792 -12.182   3.922  0.00  0.00    +0.051 A 
ATOM     25  C   UNL     1      -2.942 -12.612   2.875  0.00  0.00    +0.042 A 
ATOM     26  C   UNL     1      -2.098 -13.547   3.429  0.00  0.00    +0.196 A 
ENDBRANCH  18  21
ENDBRANCH   9  16
BRANCH  10  15
ATOM     15  C   UNL     1      -3.174 -10.679  12.419  0.00  0.00    +0.124 C 
BRANCH  15   4
ATOM      1  O   UNL     1      -4.897 -11.759  14.436  0.00  0.00    -0.253 OA
ATOM      4  N   UNL     1      -3.212 -10.308  13.799  0.00  0.00    -0.298 N 
ATOM      7  N   UNL     1      -3.898 -10.324  16.003  0.00  0.00    -0.269 N 
ATOM     20  C   UNL     1      -4.088 -10.884  14.736  0.00  0.00    +0.304 C 
ATOM     32  H   UNL     1      -2.574  -9.585  14.119  0.00  0.00    +0.150 HD
ATOM     33  H   UNL     1      -3.184  -9.605  16.081  0.00  0.00    +0.156 HD
BRANCH   7  24
ATOM     24  C   UNL     1      -4.582 -10.635  17.201  0.00  0.00    +0.035 A 
ATOM     27  C   UNL     1      -5.840 -10.088  17.449  0.00  0.00    +0.023 A 
ATOM     28  C   UNL     1      -3.998 -11.490  18.135  0.00  0.00    +0.023 A 
ATOM     29  C   UNL     1      -6.514 -10.394  18.631  0.00  0.00    +0.002 A 
ATOM     30  C   UNL     1      -4.672 -11.798  19.317  0.00  0.00    +0.002 A 
ATOM     31  C   UNL     1      -5.930 -11.250  19.565  0.00  0.00    +0.000 A 
ENDBRANCH   7  24
ENDBRANCH  15   4
ENDBRANCH  10  15
TORSDOF 5
ENDMDL
MODEL 9
REMARK VINA RESULT:      -6.8      2.624      4.093
REMARK  Name = 26742458
REMARK  6 active torsions:
REMARK  status: ('A' for Active; 'I' for Inactive)
REMARK    1  A    between atoms: N_4  and  C_15
REMARK    2  A    between atoms: N_7  and  C_24
REMARK    3  A    between atoms: C_9  and  C_16
REMARK    4  A    between atoms: C_10  and  C_15
REMARK    5  A    between atoms: C_18  and  C_21
REMARK    6  A    between atoms: C_19  and  C_22
REMARK                            x       y       z     vdW  Elec       q    Type
REMARK                         _______ _______ _______ _____ _____    ______ ____
ROOT
ATOM      3  N   UNL     1      -5.414 -11.162  10.091  0.00  0.00    -0.297 NA
ATOM      8  C   UNL     1      -3.946  -9.275  11.120  0.00  0.00    +0.002 C 
ATOM      9  C   UNL     1      -3.620 -10.641  11.785  0.00  0.00    +0.055 C 
ATOM     10  C   UNL     1      -6.270 -10.012  10.486  0.00  0.00    +0.074 C 
ATOM     11  C   UNL     1      -5.451  -8.974  11.283  0.00  0.00    +0.024 C 
ATOM     12  C   UNL     1      -3.677  -9.440   9.609  0.00  0.00    +0.019 C 
ATOM     13  C   UNL     1      -4.667 -11.669  11.269  0.00  0.00    +0.094 C 
ATOM     14  C   UNL     1      -4.432 -10.677   9.092  0.00  0.00    +0.085 C 
ENDROOT
BRANCH   9  16
ATOM      5  N   UNL     1      -2.241 -10.405  13.791  0.00  0.00    -0.237 NA
ATOM      6  N   UNL     1      -3.128 -10.750  16.006  0.00  0.00    -0.229 NA
ATOM     16  C   UNL     1      -3.466 -10.685  13.298  0.00  0.00    +0.050 A 
ATOM     17  C   UNL     1      -4.555 -11.002  14.084  0.00  0.00    +0.055 A 
ATOM     18  C   UNL     1      -4.325 -11.019  15.445  0.00  0.00    +0.110 A 
ATOM     19  C   UNL     1      -2.145 -10.455  15.134  0.00  0.00    +0.127 A 
ATOM     22  C   UNL     1      -0.808 -10.149  15.718  0.00  0.00    +0.088 C 
BRANCH  18  21
ATOM      2  O   UNL     1      -5.582 -10.411  17.354  0.00  0.00    -0.461 OA
ATOM     21  C   UNL     1      -5.372 -11.335  16.380  0.00  0.00    +0.153 A 
ATOM     23  C   UNL     1      -6.240 -12.392  16.521  0.00  0.00    +0.051 A 
ATOM     25  C   UNL     1      -7.035 -12.099  17.655  0.00  0.00    +0.042 A 
ATOM     26  C   UNL     1      -6.595 -10.883  18.125  0.00  0.00    +0.196 A 
ENDBRANCH  18  21
ENDBRANCH   9  16
BRANCH  10  15
ATOM     15  C   UNL     1      -7.524 -10.452  11.243  0.00  0.00    +0.124 C 
BRANCH  15   4
ATOM      1  O   UNL     1      -9.779 -10.405  13.009  0.00  0.00    -0.253 OA
ATOM      4  N   UNL     1      -7.594  -9.821  12.525  0.00  0.00    -0.298 N 
ATOM      7  N   UNL     1      -8.513  -9.143  14.530  0.00  0.00    -0.269 N 
ATOM     20  C   UNL     1      -8.740  -9.840  13.340  0.00  0.00    +0.304 C 
ATOM     32  H   UNL     1      -6.772  -9.330  12.863  0.00  0.00    +0.150 HD
ATOM     33  H   UNL     1      -7.591  -8.731  14.649  0.00  0.00    +0.156 HD
BRANCH   7  24
ATOM     24  C   UNL     1      -9.414  -8.937  15.601  0.00  0.00    +0.035 A 
ATOM     27  C   UNL     1      -9.964  -7.674  15.817  0.00  0.00    +0.023 A 
ATOM     28  C   UNL     1      -9.753  -9.998  16.441  0.00  0.00    +0.023 A 
ATOM     29  C   UNL     1     -10.852  -7.471  16.873  0.00  0.00    +0.002 A 
ATOM     30  C   UNL     1     -10.642  -9.796  17.497  0.00  0.00    +0.002 A 
ATOM     31  C   UNL     1     -11.191  -8.533  17.713  0.00  0.00    +0.000 A 
ENDBRANCH   7  24
ENDBRANCH  15   4
ENDBRANCH  10  15
TORSDOF 5
ENDMDL
MODEL 10
REMARK VINA RESULT:      -6.6     23.214     26.478
REMARK  Name = 26742458
REMARK  6 active torsions:
REMARK  status: ('A' for Active; 'I' for Inactive)
REMARK    1  A    between atoms: N_4  and  C_15
REMARK    2  A    between atoms: N_7  and  C_24
REMARK    3  A    between atoms: C_9  and  C_16
REMARK    4  A    between atoms: C_10  and  C_15
REMARK    5  A    between atoms: C_18  and  C_21
REMARK    6  A    between atoms: C_19  and  C_22
REMARK                            x       y       z     vdW  Elec       q    Type
REMARK                         _______ _______ _______ _____ _____    ______ ____
ROOT
ATOM      3  N   UNL     1       9.416   5.045   6.239  0.00  0.00    -0.297 NA
ATOM      8  C   UNL     1      10.654   7.242   6.887  0.00  0.00    +0.002 C 
ATOM      9  C   UNL     1       9.128   7.498   6.750  0.00  0.00    +0.055 C 
ATOM     10  C   UNL     1      10.574   5.261   5.332  0.00  0.00    +0.074 C 
ATOM     11  C   UNL     1      11.194   6.656   5.565  0.00  0.00    +0.024 C 
ATOM     12  C   UNL     1      10.826   6.155   7.970  0.00  0.00    +0.019 C 
ATOM     13  C   UNL     1       8.491   6.204   6.169  0.00  0.00    +0.094 C 
ATOM     14  C   UNL     1       9.934   4.950   7.624  0.00  0.00    +0.085 C 
ENDROOT
BRANCH   9  16
ATOM      5  N   UNL     1       9.105   9.930   6.493  0.00  0.00    -0.237 NA
ATOM      6  N   UNL     1       7.888  11.023   4.723  0.00  0.00    -0.229 NA
ATOM     16  C   UNL     1       8.673   8.747   6.009  0.00  0.00    +0.050 A 
ATOM     17  C   UNL     1       7.858   8.623   4.903  0.00  0.00    +0.055 A 
ATOM     18  C   UNL     1       7.494   9.807   4.293  0.00  0.00    +0.110 A 
ATOM     19  C   UNL     1       8.681  11.012   5.812  0.00  0.00    +0.127 A 
ATOM     22  C   UNL     1       9.139  12.338   6.315  0.00  0.00    +0.088 C 
BRANCH  18  21
ATOM      2  O   UNL     1       5.339  10.113   3.367  0.00  0.00    -0.461 OA
ATOM     21  C   UNL     1       6.646   9.823   3.131  0.00  0.00    +0.153 A 
ATOM     23  C   UNL     1       6.858   9.607   1.789  0.00  0.00    +0.051 A 
ATOM     25  C   UNL     1       5.601   9.774   1.160  0.00  0.00    +0.042 A 
ATOM     26  C   UNL     1       4.710  10.081   2.163  0.00  0.00    +0.196 A 
ENDBRANCH  18  21
ENDBRANCH   9  16
BRANCH  10  15
ATOM     15  C   UNL     1      10.213   5.037   3.862  0.00  0.00    +0.124 C 
BRANCH  15   4
ATOM      1  O   UNL     1      11.878   5.940   1.713  0.00  0.00    -0.253 OA
ATOM      4  N   UNL     1      11.232   4.286   3.196  0.00  0.00    -0.298 N 
ATOM      7  N   UNL     1      12.924   3.838   1.691  0.00  0.00    -0.269 N 
ATOM     20  C   UNL     1      12.013   4.798   2.144  0.00  0.00    +0.304 C 
ATOM     32  H   UNL     1      11.397   3.330   3.496  0.00  0.00    +0.150 HD
ATOM     33  H   UNL     1      12.906   2.936   2.159  0.00  0.00    +0.156 HD
BRANCH   7  24
ATOM     24  C   UNL     1      13.877   3.968   0.655  0.00  0.00    +0.035 A 
ATOM     27  C   UNL     1      13.456   4.092  -0.669  0.00  0.00    +0.023 A 
ATOM     28  C   UNL     1      15.239   3.972   0.956  0.00  0.00    +0.023 A 
ATOM     29  C   UNL     1      14.395   4.218  -1.691  0.00  0.00    +0.002 A 
ATOM     30  C   UNL     1      16.179   4.100  -0.067  0.00  0.00    +0.002 A 
ATOM     31  C   UNL     1      15.758   4.223  -1.390  0.00  0.00    +0.000 A 
ENDBRANCH   7  24
ENDBRANCH  15   4
ENDBRANCH  10  15
TORSDOF 5
ENDMDL
