REMARK  Name = 28959543
REMARK  11 active torsions:
REMARK  status: ('A' for Active; 'I' for Inactive)
REMARK    1  A    between atoms: O_3  and  C_17
REMARK    2  A    between atoms: N_6  and  C_15
REMARK    3  A    between atoms: N_6  and  C_18
REMARK    4  A    between atoms: N_6  and  C_19
REMARK    5  A    between atoms: C_8  and  C_12
REMARK    6  A    between atoms: C_9  and  C_14
REMARK    7  A    between atoms: C_12  and  C_15
REMARK    8  A    between atoms: C_14  and  C_17
REMARK    9  A    between atoms: C_16  and  C_20
REMARK   10  A    between atoms: C_18  and  C_21
REMARK   11  A    between atoms: C_19  and  C_22
REMARK                            x       y       z     vdW  Elec       q    Type
REMARK                         _______ _______ _______ _____ _____    ______ ____
ROOT
ATOM      2  O   UNL     1      -1.215  -2.881  -1.957  0.00  0.00    -0.270 OA
ATOM      5  N   UNL     1       0.064  -2.065  -0.176  0.00  0.00    -0.297 N 
ATOM      8  C   UNL     1       1.365  -0.224   0.870  0.00  0.00    +0.011 C 
ATOM      9  C   UNL     1       2.665  -0.973   0.479  0.00  0.00    +0.006 C 
ATOM     10  C   UNL     1       2.452  -1.870  -0.752  0.00  0.00    +0.023 C 
ATOM     11  C   UNL     1       0.208  -1.228   1.024  0.00  0.00    +0.112 C 
ATOM     13  C   UNL     1       1.265  -2.809  -0.553  0.00  0.00    +0.108 C 
ATOM     16  C   UNL     1      -1.093  -2.186  -0.949  0.00  0.00    +0.247 C 
ENDROOT
BRANCH  16  20
ATOM      1 CL   UNL     1      -5.494  -1.836   1.764  0.00  0.00    -0.062 Cl
ATOM      7  N   UNL     1      -4.537   0.027   0.238  0.00  0.00    -0.244 NA
ATOM     20  C   UNL     1      -2.278  -1.425  -0.541  0.00  0.00    +0.041 A 
ATOM     23  C   UNL     1      -3.201  -1.986   0.335  0.00  0.00    +0.053 A 
ATOM     24  C   UNL     1      -2.483  -0.139  -1.027  0.00  0.00    +0.033 A 
ATOM     25  C   UNL     1      -4.304  -1.226   0.690  0.00  0.00    +0.130 A 
ATOM     26  C   UNL     1      -3.618   0.539  -0.611  0.00  0.00    +0.113 A 
ENDBRANCH  16  20
BRANCH   8  12
ATOM     12  C   UNL     1       0.973   0.895  -0.103  0.00  0.00    +0.020 C 
BRANCH  12  15
ATOM     15  C   UNL     1       0.138   1.956   0.599  0.00  0.00    +0.084 C 
BRANCH  15   6
ATOM      6  N   UNL     1      -0.236   2.999  -0.350  0.00  0.00    -0.303 NA
BRANCH   6  18
ATOM     18  C   UNL     1       0.872   3.934  -0.551  0.00  0.00    +0.081 C 
ATOM     21  C   UNL     1       0.520   4.988  -1.587  0.00  0.00    +0.020 C 
ENDBRANCH   6  18
BRANCH   6  19
ATOM     19  C   UNL     1      -1.426   3.714   0.113  0.00  0.00    +0.081 C 
ATOM     22  C   UNL     1      -1.162   4.426   1.429  0.00  0.00    +0.020 C 
ENDBRANCH   6  19
ENDBRANCH  15   6
ENDBRANCH  12  15
ENDBRANCH   8  12
BRANCH   9  14
ATOM     14  C   UNL     1       3.855  -0.037   0.264  0.00  0.00    +0.124 C 
BRANCH  14  17
ATOM      4  O   UNL     1       5.314  -1.942   0.692  0.00  0.00    -0.251 OA
ATOM     17  C   UNL     1       5.164  -0.759   0.427  0.00  0.00    +0.305 C 
BRANCH  17   3
ATOM      3  O   UNL     1       6.191   0.107   0.234  0.00  0.00    -0.481 OA
ATOM     27  H   UNL     1       7.063  -0.331   0.332  0.00  0.00    +0.295 HD
ENDBRANCH  17   3
ENDBRANCH  14  17
ENDBRANCH   9  14
TORSDOF 9
