MODEL 1
REMARK VINA RESULT:      -6.6      0.000      0.000
REMARK  Name = 40777710
REMARK  14 active torsions:
REMARK  status: ('A' for Active; 'I' for Inactive)
REMARK    1  A    between atoms: O_2  and  C_16
REMARK    2  A    between atoms: N_4  and  C_15
REMARK    3  A    between atoms: N_5  and  C_26
REMARK    4  A    between atoms: C_7  and  C_12
REMARK    5  A    between atoms: C_7  and  C_13
REMARK    6  A    between atoms: C_12  and  C_14
REMARK    7  A    between atoms: C_13  and  C_16
REMARK    8  A    between atoms: C_18  and  C_21
REMARK    9  A    between atoms: C_22  and  C_24
REMARK   10  A    between atoms: C_23  and  C_25
REMARK   11  A    between atoms: C_27  and  C_28
REMARK   12  A    between atoms: C_27  and  C_33
REMARK   13  A    between atoms: C_27  and  C_34
REMARK   14  A    between atoms: C_27  and  C_35
REMARK                            x       y       z     vdW  Elec       q    Type
REMARK                         _______ _______ _______ _____ _____    ______ ____
ROOT
ATOM     15  C   UNL     1      -2.895 -11.193  12.302  0.00  0.00    +0.097 C 
ATOM     17  C   UNL     1      -4.240 -11.263  11.570  0.00  0.00    +0.039 C 
ATOM     18  C   UNL     1      -4.337  -9.966  10.740  0.00  0.00    +0.047 C 
ATOM     19  C   UNL     1      -2.118 -10.221  11.478  0.00  0.00    -0.009 C 
ATOM     20  C   UNL     1      -2.899  -9.552  10.622  0.00  0.00    -0.021 C 
ENDROOT
BRANCH  18  21
ATOM      5  N   UNL     1      -6.313  -9.899   7.657  0.00  0.00    -0.236 N 
ATOM      6  N   UNL     1      -5.722 -11.088   7.450  0.00  0.00    -0.171 NA
ATOM     21  C   UNL     1      -5.052 -10.152   9.423  0.00  0.00    +0.003 A 
ATOM     22  C   UNL     1      -5.945  -9.298   8.825  0.00  0.00    +0.046 A 
ATOM     23  C   UNL     1      -4.952 -11.237   8.531  0.00  0.00    +0.064 A 
ATOM     24  C   UNL     1      -6.467  -7.986   9.261  0.00  0.00    +0.066 C 
ATOM     25  C   UNL     1      -4.126 -12.450   8.671  0.00  0.00    +0.068 C 
BRANCH   5  26
ATOM     26  C   UNL     1      -7.210  -9.398   6.713  0.00  0.00    +0.066 A 
ATOM     28  C   UNL     1      -9.002  -8.403   4.821  0.00  0.00    -0.042 A 
ATOM     29  C   UNL     1      -8.582  -9.445   6.960  0.00  0.00    +0.028 A 
ATOM     30  C   UNL     1      -6.734  -8.854   5.520  0.00  0.00    +0.028 A 
ATOM     31  C   UNL     1      -9.478  -8.948   6.014  0.00  0.00    +0.006 A 
ATOM     32  C   UNL     1      -7.630  -8.356   4.574  0.00  0.00    +0.006 A 
BRANCH  28  27
ATOM     27  C   UNL     1      -9.961  -7.871   3.810  0.00  0.00    -0.013 C 
ATOM     33  C   UNL     1      -9.281  -6.812   2.888  0.00  0.00    +0.015 C 
ATOM     34  C   UNL     1     -11.182  -7.184   4.495  0.00  0.00    +0.015 C 
ATOM     35  C   UNL     1     -10.572  -8.936   2.839  0.00  0.00    +0.015 C 
ENDBRANCH  28  27
ENDBRANCH   5  26
ENDBRANCH  18  21
BRANCH  15   4
ATOM      1  O   UNL     1      -1.875 -12.396  14.725  0.00  0.00    -0.276 OA
ATOM      4  N   UNL     1      -3.016 -10.685  13.642  0.00  0.00    -0.309 N 
ATOM     14  C   UNL     1      -2.492 -11.334  14.751  0.00  0.00    +0.214 C 
ATOM     36  H   UNL     1      -3.553  -9.832  13.778  0.00  0.00    +0.149 HD
BRANCH  14  12
ATOM     12  C   UNL     1      -2.776 -10.561  16.020  0.00  0.00    +0.103 C 
BRANCH  12   7
ATOM      7  C   UNL     1      -4.040 -11.054  16.726  0.00  0.00    -0.011 C 
ATOM      8  C   UNL     1      -4.614 -12.306  16.050  0.00  0.00    +0.008 C 
ATOM      9  C   UNL     1      -3.733 -11.576  18.137  0.00  0.00    +0.008 C 
ATOM     10  C   UNL     1      -5.449 -12.993  17.129  0.00  0.00    +0.001 C 
ATOM     11  C   UNL     1      -4.884 -12.522  18.469  0.00  0.00    +0.001 C 
BRANCH   7  13
ATOM     13  C   UNL     1      -5.073  -9.916  16.764  0.00  0.00    +0.127 C 
BRANCH  13  16
ATOM      3  O   UNL     1      -5.669  -9.800  14.403  0.00  0.00    -0.251 OA
ATOM     16  C   UNL     1      -5.983  -9.964  15.572  0.00  0.00    +0.305 C 
BRANCH  16   2
ATOM      2  O   UNL     1      -7.251 -10.225  15.983  0.00  0.00    -0.481 OA
ATOM     37  H   UNL     1      -7.370 -11.166  16.231  0.00  0.00    +0.295 HD
ENDBRANCH  16   2
ENDBRANCH  13  16
ENDBRANCH   7  13
ENDBRANCH  12   7
ENDBRANCH  14  12
ENDBRANCH  15   4
TORSDOF 9
ENDMDL
MODEL 2
REMARK VINA RESULT:      -6.5      1.858      2.985
REMARK  Name = 40777710
REMARK  14 active torsions:
REMARK  status: ('A' for Active; 'I' for Inactive)
REMARK    1  A    between atoms: O_2  and  C_16
REMARK    2  A    between atoms: N_4  and  C_15
REMARK    3  A    between atoms: N_5  and  C_26
REMARK    4  A    between atoms: C_7  and  C_12
REMARK    5  A    between atoms: C_7  and  C_13
REMARK    6  A    between atoms: C_12  and  C_14
REMARK    7  A    between atoms: C_13  and  C_16
REMARK    8  A    between atoms: C_18  and  C_21
REMARK    9  A    between atoms: C_22  and  C_24
REMARK   10  A    between atoms: C_23  and  C_25
REMARK   11  A    between atoms: C_27  and  C_28
REMARK   12  A    between atoms: C_27  and  C_33
REMARK   13  A    between atoms: C_27  and  C_34
REMARK   14  A    between atoms: C_27  and  C_35
REMARK                            x       y       z     vdW  Elec       q    Type
REMARK                         _______ _______ _______ _____ _____    ______ ____
ROOT
ATOM     15  C   UNL     1      -3.203 -12.950  14.197  0.00  0.00    +0.097 C 
ATOM     17  C   UNL     1      -4.155 -12.172  13.280  0.00  0.00    +0.039 C 
ATOM     18  C   UNL     1      -3.506 -10.788  13.075  0.00  0.00    +0.047 C 
ATOM     19  C   UNL     1      -1.906 -12.235  14.012  0.00  0.00    -0.009 C 
ATOM     20  C   UNL     1      -2.065 -11.058  13.398  0.00  0.00    -0.021 C 
ENDROOT
BRANCH  18  21
ATOM      5  N   UNL     1      -4.644  -9.568   9.814  0.00  0.00    -0.236 N 
ATOM      6  N   UNL     1      -3.363  -9.180   9.698  0.00  0.00    -0.171 NA
ATOM     21  C   UNL     1      -3.748 -10.212  11.700  0.00  0.00    +0.003 A 
ATOM     22  C   UNL     1      -4.927 -10.191  10.995  0.00  0.00    +0.046 A 
ATOM     23  C   UNL     1      -2.821  -9.576  10.853  0.00  0.00    +0.064 A 
ATOM     24  C   UNL     1      -6.270 -10.700  11.342  0.00  0.00    +0.066 C 
ATOM     25  C   UNL     1      -1.391  -9.321  11.107  0.00  0.00    +0.068 C 
BRANCH   5  26
ATOM     26  C   UNL     1      -5.540  -9.318   8.774  0.00  0.00    +0.066 A 
ATOM     28  C   UNL     1      -7.335  -8.826   6.696  0.00  0.00    -0.042 A 
ATOM     29  C   UNL     1      -6.603  -8.435   8.966  0.00  0.00    +0.028 A 
ATOM     30  C   UNL     1      -5.375  -9.955   7.544  0.00  0.00    +0.028 A 
ATOM     31  C   UNL     1      -7.501  -8.189   7.926  0.00  0.00    +0.006 A 
ATOM     32  C   UNL     1      -6.273  -9.709   6.505  0.00  0.00    +0.006 A 
BRANCH  28  27
ATOM     27  C   UNL     1      -8.296  -8.562   5.586  0.00  0.00    -0.013 C 
ATOM     33  C   UNL     1      -9.117  -7.261   5.845  0.00  0.00    +0.015 C 
ATOM     34  C   UNL     1      -9.311  -9.736   5.426  0.00  0.00    +0.015 C 
ATOM     35  C   UNL     1      -7.653  -8.373   4.172  0.00  0.00    +0.015 C 
ENDBRANCH  28  27
ENDBRANCH   5  26
ENDBRANCH  18  21
BRANCH  15   4
ATOM      1  O   UNL     1      -5.520 -14.165  15.427  0.00  0.00    -0.276 OA
ATOM      4  N   UNL     1      -3.587 -12.884  15.581  0.00  0.00    -0.309 N 
ATOM     14  C   UNL     1      -4.722 -13.502  16.085  0.00  0.00    +0.214 C 
ATOM     36  H   UNL     1      -3.016 -12.316  16.204  0.00  0.00    +0.149 HD
BRANCH  14  12
ATOM     12  C   UNL     1      -4.862 -13.258  17.571  0.00  0.00    +0.103 C 
BRANCH  12   7
ATOM      7  C   UNL     1      -5.773 -12.068  17.878  0.00  0.00    -0.011 C 
ATOM      8  C   UNL     1      -7.105 -12.520  18.492  0.00  0.00    +0.008 C 
ATOM      9  C   UNL     1      -5.197 -11.189  18.998  0.00  0.00    +0.008 C 
ATOM     10  C   UNL     1      -7.624 -11.303  19.254  0.00  0.00    +0.001 C 
ATOM     11  C   UNL     1      -6.400 -10.447  19.578  0.00  0.00    +0.001 C 
BRANCH   7  13
ATOM     13  C   UNL     1      -5.997 -11.257  16.592  0.00  0.00    +0.127 C 
BRANCH  13  16
ATOM      3  O   UNL     1      -3.821 -10.159  16.555  0.00  0.00    -0.251 OA
ATOM     16  C   UNL     1      -5.041 -10.106  16.498  0.00  0.00    +0.305 C 
BRANCH  16   2
ATOM      2  O   UNL     1      -5.738  -8.952  16.334  0.00  0.00    -0.481 OA
ATOM     37  H   UNL     1      -6.427  -8.838  17.022  0.00  0.00    +0.295 HD
ENDBRANCH  16   2
ENDBRANCH  13  16
ENDBRANCH   7  13
ENDBRANCH  12   7
ENDBRANCH  14  12
ENDBRANCH  15   4
TORSDOF 9
ENDMDL
MODEL 3
REMARK VINA RESULT:      -6.4      2.206      3.355
REMARK  Name = 40777710
REMARK  14 active torsions:
REMARK  status: ('A' for Active; 'I' for Inactive)
REMARK    1  A    between atoms: O_2  and  C_16
REMARK    2  A    between atoms: N_4  and  C_15
REMARK    3  A    between atoms: N_5  and  C_26
REMARK    4  A    between atoms: C_7  and  C_12
REMARK    5  A    between atoms: C_7  and  C_13
REMARK    6  A    between atoms: C_12  and  C_14
REMARK    7  A    between atoms: C_13  and  C_16
REMARK    8  A    between atoms: C_18  and  C_21
REMARK    9  A    between atoms: C_22  and  C_24
REMARK   10  A    between atoms: C_23  and  C_25
REMARK   11  A    between atoms: C_27  and  C_28
REMARK   12  A    between atoms: C_27  and  C_33
REMARK   13  A    between atoms: C_27  and  C_34
REMARK   14  A    between atoms: C_27  and  C_35
REMARK                            x       y       z     vdW  Elec       q    Type
REMARK                         _______ _______ _______ _____ _____    ______ ____
ROOT
ATOM     15  C   UNL     1      -7.674 -10.014  13.385  0.00  0.00    +0.097 C 
ATOM     17  C   UNL     1      -7.072  -9.141  12.277  0.00  0.00    +0.039 C 
ATOM     18  C   UNL     1      -5.939  -9.979  11.648  0.00  0.00    +0.047 C 
ATOM     19  C   UNL     1      -7.267 -11.392  12.980  0.00  0.00    -0.009 C 
ATOM     20  C   UNL     1      -6.324 -11.379  12.031  0.00  0.00    -0.021 C 
ENDROOT
BRANCH  18  21
ATOM      5  N   UNL     1      -6.129  -9.525   8.018  0.00  0.00    -0.236 N 
ATOM      6  N   UNL     1      -4.810  -9.301   8.145  0.00  0.00    -0.171 NA
ATOM     21  C   UNL     1      -5.781  -9.751  10.163  0.00  0.00    +0.003 A 
ATOM     22  C   UNL     1      -6.757  -9.799   9.198  0.00  0.00    +0.046 A 
ATOM     23  C   UNL     1      -4.604  -9.440   9.457  0.00  0.00    +0.064 A 
ATOM     24  C   UNL     1      -8.205 -10.076   9.301  0.00  0.00    +0.066 C 
ATOM     25  C   UNL     1      -3.244  -9.264   9.999  0.00  0.00    +0.068 C 
BRANCH   5  26
ATOM     26  C   UNL     1      -6.724  -9.465   6.757  0.00  0.00    +0.066 A 
ATOM     28  C   UNL     1      -7.907  -9.337   4.234  0.00  0.00    -0.042 A 
ATOM     29  C   UNL     1      -6.638 -10.555   5.892  0.00  0.00    +0.028 A 
ATOM     30  C   UNL     1      -7.401  -8.310   6.362  0.00  0.00    +0.028 A 
ATOM     31  C   UNL     1      -7.229 -10.491   4.629  0.00  0.00    +0.006 A 
ATOM     32  C   UNL     1      -7.992  -8.247   5.100  0.00  0.00    +0.006 A 
BRANCH  28  27
ATOM     27  C   UNL     1      -8.538  -9.270   2.884  0.00  0.00    -0.013 C 
ATOM     33  C   UNL     1      -8.248 -10.562   2.059  0.00  0.00    +0.015 C 
ATOM     34  C   UNL     1      -7.996  -8.056   2.067  0.00  0.00    +0.015 C 
ATOM     35  C   UNL     1     -10.095  -9.114   2.879  0.00  0.00    +0.015 C 
ENDBRANCH  28  27
ENDBRANCH   5  26
ENDBRANCH  18  21
BRANCH  15   4
ATOM      1  O   UNL     1      -8.833 -10.654  15.954  0.00  0.00    -0.276 OA
ATOM      4  N   UNL     1      -7.126  -9.721  14.682  0.00  0.00    -0.309 N 
ATOM     14  C   UNL     1      -7.756 -10.068  15.868  0.00  0.00    +0.214 C 
ATOM     36  H   UNL     1      -6.257  -9.194  14.721  0.00  0.00    +0.149 HD
BRANCH  14  12
ATOM     12  C   UNL     1      -6.943  -9.633  17.066  0.00  0.00    +0.103 C 
BRANCH  12   7
ATOM      7  C   UNL     1      -5.766 -10.572  17.338  0.00  0.00    -0.011 C 
ATOM      8  C   UNL     1      -5.934 -11.914  16.614  0.00  0.00    +0.008 C 
ATOM      9  C   UNL     1      -4.466 -10.043  16.716  0.00  0.00    +0.008 C 
ATOM     10  C   UNL     1      -4.520 -12.475  16.483  0.00  0.00    +0.001 C 
ATOM     11  C   UNL     1      -3.576 -11.274  16.551  0.00  0.00    +0.001 C 
BRANCH   7  13
ATOM     13  C   UNL     1      -5.619 -10.770  18.855  0.00  0.00    +0.127 C 
BRANCH  13  16
ATOM      3  O   UNL     1      -7.244 -12.505  19.399  0.00  0.00    -0.251 OA
ATOM     16  C   UNL     1      -6.869 -11.343  19.456  0.00  0.00    +0.305 C 
BRANCH  16   2
ATOM      2  O   UNL     1      -7.552 -10.360  20.097  0.00  0.00    -0.481 OA
ATOM     37  H   UNL     1      -8.318 -10.044  19.573  0.00  0.00    +0.295 HD
ENDBRANCH  16   2
ENDBRANCH  13  16
ENDBRANCH   7  13
ENDBRANCH  12   7
ENDBRANCH  14  12
ENDBRANCH  15   4
TORSDOF 9
ENDMDL
MODEL 4
REMARK VINA RESULT:      -6.4     27.048     30.523
REMARK  Name = 40777710
REMARK  14 active torsions:
REMARK  status: ('A' for Active; 'I' for Inactive)
REMARK    1  A    between atoms: O_2  and  C_16
REMARK    2  A    between atoms: N_4  and  C_15
REMARK    3  A    between atoms: N_5  and  C_26
REMARK    4  A    between atoms: C_7  and  C_12
REMARK    5  A    between atoms: C_7  and  C_13
REMARK    6  A    between atoms: C_12  and  C_14
REMARK    7  A    between atoms: C_13  and  C_16
REMARK    8  A    between atoms: C_18  and  C_21
REMARK    9  A    between atoms: C_22  and  C_24
REMARK   10  A    between atoms: C_23  and  C_25
REMARK   11  A    between atoms: C_27  and  C_28
REMARK   12  A    between atoms: C_27  and  C_33
REMARK   13  A    between atoms: C_27  and  C_34
REMARK   14  A    between atoms: C_27  and  C_35
REMARK                            x       y       z     vdW  Elec       q    Type
REMARK                         _______ _______ _______ _____ _____    ______ ____
ROOT
ATOM     15  C   UNL     1      19.101  -2.405  27.955  0.00  0.00    +0.097 C 
ATOM     17  C   UNL     1      17.635  -2.422  28.404  0.00  0.00    +0.039 C 
ATOM     18  C   UNL     1      17.438  -3.758  29.150  0.00  0.00    +0.047 C 
ATOM     19  C   UNL     1      19.744  -3.380  28.883  0.00  0.00    -0.009 C 
ATOM     20  C   UNL     1      18.843  -4.118  29.540  0.00  0.00    -0.021 C 
ENDROOT
BRANCH  18  21
ATOM      5  N   UNL     1      14.883  -4.037  31.760  0.00  0.00    -0.236 N 
ATOM      6  N   UNL     1      15.388  -2.854  32.147  0.00  0.00    -0.171 NA
ATOM     21  C   UNL     1      16.467  -3.661  30.303  0.00  0.00    +0.003 A 
ATOM     22  C   UNL     1      15.495  -4.563  30.660  0.00  0.00    +0.046 A 
ATOM     23  C   UNL     1      16.355  -2.629  31.254  0.00  0.00    +0.064 A 
ATOM     24  C   UNL     1      15.108  -5.855  30.057  0.00  0.00    +0.066 C 
ATOM     25  C   UNL     1      17.159  -1.397  31.350  0.00  0.00    +0.068 C 
BRANCH   5  26
ATOM     26  C   UNL     1      13.828  -4.607  32.473  0.00  0.00    +0.066 A 
ATOM     28  C   UNL     1      11.719  -5.739  33.906  0.00  0.00    -0.042 A 
ATOM     29  C   UNL     1      12.538  -4.592  31.943  0.00  0.00    +0.028 A 
ATOM     30  C   UNL     1      14.064  -5.187  33.720  0.00  0.00    +0.028 A 
ATOM     31  C   UNL     1      11.483  -5.158  32.660  0.00  0.00    +0.006 A 
ATOM     32  C   UNL     1      13.009  -5.754  34.436  0.00  0.00    +0.006 A 
BRANCH  28  27
ATOM     27  C   UNL     1      10.591  -6.344  34.671  0.00  0.00    -0.013 C 
ATOM     33  C   UNL     1       9.547  -7.002  33.715  0.00  0.00    +0.015 C 
ATOM     34  C   UNL     1       9.841  -5.269  35.517  0.00  0.00    +0.015 C 
ATOM     35  C   UNL     1      10.992  -7.466  35.684  0.00  0.00    +0.015 C 
ENDBRANCH  28  27
ENDBRANCH   5  26
ENDBRANCH  18  21
BRANCH  15   4
ATOM      1  O   UNL     1      19.369  -0.766  25.589  0.00  0.00    -0.276 OA
ATOM      4  N   UNL     1      19.273  -2.856  26.600  0.00  0.00    -0.309 N 
ATOM     14  C   UNL     1      19.394  -1.993  25.522  0.00  0.00    +0.214 C 
ATOM     36  H   UNL     1      19.258  -3.859  26.430  0.00  0.00    +0.149 HD
BRANCH  14  12
ATOM     12  C   UNL     1      19.564  -2.756  24.227  0.00  0.00    +0.103 C 
BRANCH  12   7
ATOM      7  C   UNL     1      18.244  -2.913  23.470  0.00  0.00    -0.011 C 
ATOM      8  C   UNL     1      17.086  -3.255  24.418  0.00  0.00    +0.008 C 
ATOM      9  C   UNL     1      17.773  -1.579  22.873  0.00  0.00    +0.008 C 
ATOM     10  C   UNL     1      15.825  -2.814  23.679  0.00  0.00    +0.001 C 
ATOM     11  C   UNL     1      16.266  -1.739  22.685  0.00  0.00    +0.001 C 
BRANCH   7  13
ATOM     13  C   UNL     1      18.410  -3.986  22.382  0.00  0.00    +0.127 C 
BRANCH  13  16
ATOM      3  O   UNL     1      19.432  -5.853  23.570  0.00  0.00    -0.251 OA
ATOM     16  C   UNL     1      18.484  -5.361  22.976  0.00  0.00    +0.305 C 
BRANCH  16   2
ATOM      2  O   UNL     1      17.311  -6.010  22.757  0.00  0.00    -0.481 OA
ATOM     37  H   UNL     1      16.742  -5.534  22.117  0.00  0.00    +0.295 HD
ENDBRANCH  16   2
ENDBRANCH  13  16
ENDBRANCH   7  13
ENDBRANCH  12   7
ENDBRANCH  14  12
ENDBRANCH  15   4
TORSDOF 9
ENDMDL
MODEL 5
REMARK VINA RESULT:      -6.4      5.272     10.707
REMARK  Name = 40777710
REMARK  14 active torsions:
REMARK  status: ('A' for Active; 'I' for Inactive)
REMARK    1  A    between atoms: O_2  and  C_16
REMARK    2  A    between atoms: N_4  and  C_15
REMARK    3  A    between atoms: N_5  and  C_26
REMARK    4  A    between atoms: C_7  and  C_12
REMARK    5  A    between atoms: C_7  and  C_13
REMARK    6  A    between atoms: C_12  and  C_14
REMARK    7  A    between atoms: C_13  and  C_16
REMARK    8  A    between atoms: C_18  and  C_21
REMARK    9  A    between atoms: C_22  and  C_24
REMARK   10  A    between atoms: C_23  and  C_25
REMARK   11  A    between atoms: C_27  and  C_28
REMARK   12  A    between atoms: C_27  and  C_33
REMARK   13  A    between atoms: C_27  and  C_34
REMARK   14  A    between atoms: C_27  and  C_35
REMARK                            x       y       z     vdW  Elec       q    Type
REMARK                         _______ _______ _______ _____ _____    ______ ____
ROOT
ATOM     15  C   UNL     1      -4.098 -10.795  16.070  0.00  0.00    +0.097 C 
ATOM     17  C   UNL     1      -5.322 -10.140  16.722  0.00  0.00    +0.039 C 
ATOM     18  C   UNL     1      -6.462 -11.175  16.613  0.00  0.00    +0.047 C 
ATOM     19  C   UNL     1      -4.425 -12.250  16.137  0.00  0.00    -0.009 C 
ATOM     20  C   UNL     1      -5.711 -12.463  16.436  0.00  0.00    -0.021 C 
ENDROOT
BRANCH  18  21
ATOM      5  N   UNL     1      -9.174 -11.125  19.075  0.00  0.00    -0.236 N 
ATOM      6  N   UNL     1      -8.155 -11.106  19.950  0.00  0.00    -0.171 NA
ATOM     21  C   UNL     1      -7.405 -11.150  17.793  0.00  0.00    +0.003 A 
ATOM     22  C   UNL     1      -8.778 -11.152  17.769  0.00  0.00    +0.046 A 
ATOM     23  C   UNL     1      -7.077 -11.122  19.161  0.00  0.00    +0.064 A 
ATOM     24  C   UNL     1      -9.725 -11.179  16.636  0.00  0.00    +0.066 C 
ATOM     25  C   UNL     1      -5.734 -11.108  19.769  0.00  0.00    +0.068 C 
BRANCH   5  26
ATOM     26  C   UNL     1     -10.489 -11.117  19.542  0.00  0.00    +0.066 A 
ATOM     28  C   UNL     1     -13.114 -11.101  20.485  0.00  0.00    -0.042 A 
ATOM     29  C   UNL     1     -11.207  -9.922  19.583  0.00  0.00    +0.028 A 
ATOM     30  C   UNL     1     -11.082 -12.304  19.972  0.00  0.00    +0.028 A 
ATOM     31  C   UNL     1     -12.520  -9.914  20.056  0.00  0.00    +0.006 A 
ATOM     32  C   UNL     1     -12.396 -12.296  20.444  0.00  0.00    +0.006 A 
BRANCH  28  27
ATOM     27  C   UNL     1     -14.518 -11.092  20.989  0.00  0.00    -0.013 C 
ATOM     33  C   UNL     1     -15.463 -11.899  20.046  0.00  0.00    +0.015 C 
ATOM     34  C   UNL     1     -15.075  -9.637  21.083  0.00  0.00    +0.015 C 
ATOM     35  C   UNL     1     -14.724 -11.709  22.412  0.00  0.00    +0.015 C 
ENDBRANCH  28  27
ENDBRANCH   5  26
ENDBRANCH  18  21
BRANCH  15   4
ATOM      1  O   UNL     1      -1.909 -11.496  14.319  0.00  0.00    -0.276 OA
ATOM      4  N   UNL     1      -3.929 -10.410  14.695  0.00  0.00    -0.309 N 
ATOM     14  C   UNL     1      -2.840 -10.796  13.928  0.00  0.00    +0.214 C 
ATOM     36  H   UNL     1      -4.623  -9.788  14.288  0.00  0.00    +0.149 HD
BRANCH  14  12
ATOM     12  C   UNL     1      -2.938 -10.243  12.523  0.00  0.00    +0.103 C 
BRANCH  12   7
ATOM      7  C   UNL     1      -3.812 -11.113  11.618  0.00  0.00    -0.011 C 
ATOM      8  C   UNL     1      -3.616 -10.764  10.137  0.00  0.00    +0.008 C 
ATOM      9  C   UNL     1      -3.371 -12.584  11.652  0.00  0.00    +0.008 C 
ATOM     10  C   UNL     1      -4.046 -12.014   9.374  0.00  0.00    +0.001 C 
ATOM     11  C   UNL     1      -3.891 -13.183  10.347  0.00  0.00    +0.001 C 
BRANCH   7  13
ATOM     13  C   UNL     1      -5.282 -10.961  12.038  0.00  0.00    +0.127 C 
BRANCH  13  16
ATOM      3  O   UNL     1      -5.721  -8.819  10.960  0.00  0.00    -0.251 OA
ATOM     16  C   UNL     1      -5.731  -9.532  11.952  0.00  0.00    +0.305 C 
BRANCH  16   2
ATOM      2  O   UNL     1      -6.167  -9.122  13.171  0.00  0.00    -0.481 OA
ATOM     37  H   UNL     1      -6.275  -8.148  13.214  0.00  0.00    +0.295 HD
ENDBRANCH  16   2
ENDBRANCH  13  16
ENDBRANCH   7  13
ENDBRANCH  12   7
ENDBRANCH  14  12
ENDBRANCH  15   4
TORSDOF 9
ENDMDL
MODEL 6
REMARK VINA RESULT:      -6.3     23.462     25.260
REMARK  Name = 40777710
REMARK  14 active torsions:
REMARK  status: ('A' for Active; 'I' for Inactive)
REMARK    1  A    between atoms: O_2  and  C_16
REMARK    2  A    between atoms: N_4  and  C_15
REMARK    3  A    between atoms: N_5  and  C_26
REMARK    4  A    between atoms: C_7  and  C_12
REMARK    5  A    between atoms: C_7  and  C_13
REMARK    6  A    between atoms: C_12  and  C_14
REMARK    7  A    between atoms: C_13  and  C_16
REMARK    8  A    between atoms: C_18  and  C_21
REMARK    9  A    between atoms: C_22  and  C_24
REMARK   10  A    between atoms: C_23  and  C_25
REMARK   11  A    between atoms: C_27  and  C_28
REMARK   12  A    between atoms: C_27  and  C_33
REMARK   13  A    between atoms: C_27  and  C_34
REMARK   14  A    between atoms: C_27  and  C_35
REMARK                            x       y       z     vdW  Elec       q    Type
REMARK                         _______ _______ _______ _____ _____    ______ ____
ROOT
ATOM     15  C   UNL     1      10.167   5.921   3.044  0.00  0.00    +0.097 C 
ATOM     17  C   UNL     1      11.386   6.060   2.124  0.00  0.00    +0.039 C 
ATOM     18  C   UNL     1      12.130   4.710   2.202  0.00  0.00    +0.047 C 
ATOM     19  C   UNL     1       9.988   4.442   3.136  0.00  0.00    -0.009 C 
ATOM     20  C   UNL     1      11.053   3.777   2.676  0.00  0.00    -0.021 C 
ENDROOT
BRANCH  18  21
ATOM      5  N   UNL     1      13.205   3.886  -1.201  0.00  0.00    -0.236 N 
ATOM      6  N   UNL     1      14.358   3.576  -0.583  0.00  0.00    -0.171 NA
ATOM     21  C   UNL     1      12.783   4.312   0.900  0.00  0.00    +0.003 A 
ATOM     22  C   UNL     1      12.230   4.331  -0.357  0.00  0.00    +0.046 A 
ATOM     23  C   UNL     1      14.094   3.839   0.700  0.00  0.00    +0.064 A 
ATOM     24  C   UNL     1      10.883   4.730  -0.814  0.00  0.00    +0.066 C 
ATOM     25  C   UNL     1      15.141   3.619   1.714  0.00  0.00    +0.068 C 
BRANCH   5  26
ATOM     26  C   UNL     1      13.099   3.736  -2.584  0.00  0.00    +0.066 A 
ATOM     28  C   UNL     1      12.878   3.438  -5.349  0.00  0.00    -0.042 A 
ATOM     29  C   UNL     1      13.639   4.701  -3.434  0.00  0.00    +0.028 A 
ATOM     30  C   UNL     1      12.448   2.622  -3.116  0.00  0.00    +0.028 A 
ATOM     31  C   UNL     1      13.528   4.552  -4.817  0.00  0.00    +0.006 A 
ATOM     32  C   UNL     1      12.338   2.473  -4.499  0.00  0.00    +0.006 A 
BRANCH  28  27
ATOM     27  C   UNL     1      12.760   3.280  -6.827  0.00  0.00    -0.013 C 
ATOM     33  C   UNL     1      13.339   4.520  -7.577  0.00  0.00    +0.015 C 
ATOM     34  C   UNL     1      11.270   3.121  -7.262  0.00  0.00    +0.015 C 
ATOM     35  C   UNL     1      13.505   2.044  -7.432  0.00  0.00    +0.015 C 
ENDBRANCH  28  27
ENDBRANCH   5  26
ENDBRANCH  18  21
BRANCH  15   4
ATOM      1  O   UNL     1       8.178   6.670   5.002  0.00  0.00    -0.276 OA
ATOM      4  N   UNL     1      10.401   6.452   4.360  0.00  0.00    -0.309 N 
ATOM     14  C   UNL     1       9.379   6.785   5.236  0.00  0.00    +0.214 C 
ATOM     36  H   UNL     1      11.364   6.631   4.634  0.00  0.00    +0.149 HD
BRANCH  14  12
ATOM     12  C   UNL     1       9.930   7.315   6.541  0.00  0.00    +0.103 C 
BRANCH  12   7
ATOM      7  C   UNL     1      10.258   6.194   7.528  0.00  0.00    -0.011 C 
ATOM      8  C   UNL     1       9.441   6.320   8.821  0.00  0.00    +0.008 C 
ATOM      9  C   UNL     1       9.799   4.826   7.003  0.00  0.00    +0.008 C 
ATOM     10  C   UNL     1       9.416   4.913   9.414  0.00  0.00    +0.001 C 
ATOM     11  C   UNL     1       9.648   3.954   8.247  0.00  0.00    +0.001 C 
BRANCH   7  13
ATOM     13  C   UNL     1      11.768   6.203   7.819  0.00  0.00    +0.127 C 
BRANCH  13  16
ATOM      3  O   UNL     1      12.623   8.396   7.184  0.00  0.00    -0.251 OA
ATOM     16  C   UNL     1      12.484   7.202   6.960  0.00  0.00    +0.305 C 
BRANCH  16   2
ATOM      2  O   UNL     1      12.977   6.579   5.859  0.00  0.00    -0.481 OA
ATOM     37  H   UNL     1      13.302   5.676   6.062  0.00  0.00    +0.295 HD
ENDBRANCH  16   2
ENDBRANCH  13  16
ENDBRANCH   7  13
ENDBRANCH  12   7
ENDBRANCH  14  12
ENDBRANCH  15   4
TORSDOF 9
ENDMDL
MODEL 7
REMARK VINA RESULT:      -6.2      5.220     10.725
REMARK  Name = 40777710
REMARK  14 active torsions:
REMARK  status: ('A' for Active; 'I' for Inactive)
REMARK    1  A    between atoms: O_2  and  C_16
REMARK    2  A    between atoms: N_4  and  C_15
REMARK    3  A    between atoms: N_5  and  C_26
REMARK    4  A    between atoms: C_7  and  C_12
REMARK    5  A    between atoms: C_7  and  C_13
REMARK    6  A    between atoms: C_12  and  C_14
REMARK    7  A    between atoms: C_13  and  C_16
REMARK    8  A    between atoms: C_18  and  C_21
REMARK    9  A    between atoms: C_22  and  C_24
REMARK   10  A    between atoms: C_23  and  C_25
REMARK   11  A    between atoms: C_27  and  C_28
REMARK   12  A    between atoms: C_27  and  C_33
REMARK   13  A    between atoms: C_27  and  C_34
REMARK   14  A    between atoms: C_27  and  C_35
REMARK                            x       y       z     vdW  Elec       q    Type
REMARK                         _______ _______ _______ _____ _____    ______ ____
ROOT
ATOM     15  C   UNL     1      -4.362 -10.410  15.564  0.00  0.00    +0.097 C 
ATOM     17  C   UNL     1      -5.847 -10.462  15.940  0.00  0.00    +0.039 C 
ATOM     18  C   UNL     1      -5.998 -11.660  16.900  0.00  0.00    +0.047 C 
ATOM     19  C   UNL     1      -3.711 -11.159  16.679  0.00  0.00    -0.009 C 
ATOM     20  C   UNL     1      -4.598 -11.839  17.413  0.00  0.00    -0.021 C 
ENDROOT
BRANCH  18  21
ATOM      5  N   UNL     1      -8.912 -11.180  19.067  0.00  0.00    -0.236 N 
ATOM      6  N   UNL     1      -7.974 -11.065  20.022  0.00  0.00    -0.171 NA
ATOM     21  C   UNL     1      -7.040 -11.440  17.972  0.00  0.00    +0.003 A 
ATOM     22  C   UNL     1      -8.404 -11.406  17.821  0.00  0.00    +0.046 A 
ATOM     23  C   UNL     1      -6.832 -11.225  19.347  0.00  0.00    +0.064 A 
ATOM     24  C   UNL     1      -9.248 -11.567  16.619  0.00  0.00    +0.066 C 
ATOM     25  C   UNL     1      -5.549 -11.163  20.070  0.00  0.00    +0.068 C 
BRANCH   5  26
ATOM     26  C   UNL     1     -10.261 -11.067  19.404  0.00  0.00    +0.066 A 
ATOM     28  C   UNL     1     -12.957 -10.840  20.087  0.00  0.00    -0.042 A 
ATOM     29  C   UNL     1     -10.929  -9.857  19.214  0.00  0.00    +0.028 A 
ATOM     30  C   UNL     1     -10.941 -12.163  19.936  0.00  0.00    +0.028 A 
ATOM     31  C   UNL     1     -12.277  -9.744  19.556  0.00  0.00    +0.006 A 
ATOM     32  C   UNL     1     -12.289 -12.050  20.277  0.00  0.00    +0.006 A 
BRANCH  28  27
ATOM     27  C   UNL     1     -14.397 -10.718  20.452  0.00  0.00    -0.013 C 
ATOM     33  C   UNL     1     -14.705 -11.454  21.793  0.00  0.00    +0.015 C 
ATOM     34  C   UNL     1     -15.314 -11.339  19.353  0.00  0.00    +0.015 C 
ATOM     35  C   UNL     1     -14.918  -9.256  20.652  0.00  0.00    +0.015 C 
ENDBRANCH  28  27
ENDBRANCH   5  26
ENDBRANCH  18  21
BRANCH  15   4
ATOM      1  O   UNL     1      -2.009 -10.103  13.914  0.00  0.00    -0.276 OA
ATOM      4  N   UNL     1      -4.080 -11.075  14.320  0.00  0.00    -0.309 N 
ATOM     14  C   UNL     1      -2.918 -10.864  13.593  0.00  0.00    +0.214 C 
ATOM     36  H   UNL     1      -4.794 -11.693  13.941  0.00  0.00    +0.149 HD
BRANCH  14  12
ATOM     12  C   UNL     1      -2.902 -11.701  12.333  0.00  0.00    +0.103 C 
BRANCH  12   7
ATOM      7  C   UNL     1      -3.561 -10.984  11.154  0.00  0.00    -0.011 C 
ATOM      8  C   UNL     1      -4.880 -10.316  11.564  0.00  0.00    +0.008 C 
ATOM      9  C   UNL     1      -2.732  -9.777  10.692  0.00  0.00    +0.008 C 
ATOM     10  C   UNL     1      -5.104  -9.212  10.533  0.00  0.00    +0.001 C 
ATOM     11  C   UNL     1      -3.725  -8.867   9.971  0.00  0.00    +0.001 C 
BRANCH   7  13
ATOM     13  C   UNL     1      -3.775 -11.986  10.008  0.00  0.00    +0.127 C 
BRANCH  13  16
ATOM      3  O   UNL     1      -5.432 -13.472  11.005  0.00  0.00    -0.251 OA
ATOM     16  C   UNL     1      -4.328 -13.286  10.515  0.00  0.00    +0.305 C 
BRANCH  16   2
ATOM      2  O   UNL     1      -3.401 -14.265  10.349  0.00  0.00    -0.481 OA
ATOM     37  H   UNL     1      -2.504 -13.971  10.614  0.00  0.00    +0.295 HD
ENDBRANCH  16   2
ENDBRANCH  13  16
ENDBRANCH   7  13
ENDBRANCH  12   7
ENDBRANCH  14  12
ENDBRANCH  15   4
TORSDOF 9
ENDMDL
MODEL 8
REMARK VINA RESULT:      -6.1     24.006     25.812
REMARK  Name = 40777710
REMARK  14 active torsions:
REMARK  status: ('A' for Active; 'I' for Inactive)
REMARK    1  A    between atoms: O_2  and  C_16
REMARK    2  A    between atoms: N_4  and  C_15
REMARK    3  A    between atoms: N_5  and  C_26
REMARK    4  A    between atoms: C_7  and  C_12
REMARK    5  A    between atoms: C_7  and  C_13
REMARK    6  A    between atoms: C_12  and  C_14
REMARK    7  A    between atoms: C_13  and  C_16
REMARK    8  A    between atoms: C_18  and  C_21
REMARK    9  A    between atoms: C_22  and  C_24
REMARK   10  A    between atoms: C_23  and  C_25
REMARK   11  A    between atoms: C_27  and  C_28
REMARK   12  A    between atoms: C_27  and  C_33
REMARK   13  A    between atoms: C_27  and  C_34
REMARK   14  A    between atoms: C_27  and  C_35
REMARK                            x       y       z     vdW  Elec       q    Type
REMARK                         _______ _______ _______ _____ _____    ______ ____
ROOT
ATOM     15  C   UNL     1      10.988   9.847   6.675  0.00  0.00    +0.097 C 
ATOM     17  C   UNL     1      11.548   8.456   6.357  0.00  0.00    +0.039 C 
ATOM     18  C   UNL     1      10.332   7.507   6.332  0.00  0.00    +0.047 C 
ATOM     19  C   UNL     1       9.553   9.726   6.281  0.00  0.00    -0.009 C 
ATOM     20  C   UNL     1       9.191   8.453   6.089  0.00  0.00    -0.021 C 
ENDROOT
BRANCH  18  21
ATOM      5  N   UNL     1      10.820   5.235   3.501  0.00  0.00    -0.236 N 
ATOM      6  N   UNL     1      10.409   4.311   4.386  0.00  0.00    -0.171 NA
ATOM     21  C   UNL     1      10.460   6.397   5.315  0.00  0.00    +0.003 A 
ATOM     22  C   UNL     1      10.868   6.500   4.008  0.00  0.00    +0.046 A 
ATOM     23  C   UNL     1      10.191   5.027   5.492  0.00  0.00    +0.064 A 
ATOM     24  C   UNL     1      11.292   7.674   3.218  0.00  0.00    +0.066 C 
ATOM     25  C   UNL     1       9.719   4.349   6.713  0.00  0.00    +0.068 C 
BRANCH   5  26
ATOM     26  C   UNL     1      11.148   4.850   2.200  0.00  0.00    +0.066 A 
ATOM     28  C   UNL     1      11.804   4.071  -0.397  0.00  0.00    -0.042 A 
ATOM     29  C   UNL     1      10.246   5.067   1.159  0.00  0.00    +0.028 A 
ATOM     30  C   UNL     1      12.378   4.243   1.944  0.00  0.00    +0.028 A 
ATOM     31  C   UNL     1      10.574   4.677  -0.140  0.00  0.00    +0.006 A 
ATOM     32  C   UNL     1      12.706   3.854   0.644  0.00  0.00    +0.006 A 
BRANCH  28  27
ATOM     27  C   UNL     1      12.153   3.655  -1.786  0.00  0.00    -0.013 C 
ATOM     33  C   UNL     1      13.647   3.968  -2.111  0.00  0.00    +0.015 C 
ATOM     34  C   UNL     1      11.276   4.402  -2.838  0.00  0.00    +0.015 C 
ATOM     35  C   UNL     1      11.971   2.132  -2.097  0.00  0.00    +0.015 C 
ENDBRANCH  28  27
ENDBRANCH   5  26
ENDBRANCH  18  21
BRANCH  15   4
ATOM      1  O   UNL     1      11.260  12.477   7.843  0.00  0.00    -0.276 OA
ATOM      4  N   UNL     1      11.068  10.172   8.074  0.00  0.00    -0.309 N 
ATOM     14  C   UNL     1      11.199  11.470   8.545  0.00  0.00    +0.214 C 
ATOM     36  H   UNL     1      11.074   9.403   8.739  0.00  0.00    +0.149 HD
BRANCH  14  12
ATOM     12  C   UNL     1      11.255  11.499  10.056  0.00  0.00    +0.103 C 
BRANCH  12   7
ATOM      7  C   UNL     1      10.023  12.167  10.668  0.00  0.00    -0.011 C 
ATOM      8  C   UNL     1      10.020  13.682  10.423  0.00  0.00    +0.008 C 
ATOM      9  C   UNL     1       8.733  11.734   9.955  0.00  0.00    +0.008 C 
ATOM     10  C   UNL     1       8.556  14.100  10.540  0.00  0.00    +0.001 C 
ATOM     11  C   UNL     1       7.729  12.849  10.241  0.00  0.00    +0.001 C 
BRANCH   7  13
ATOM     13  C   UNL     1       9.966  11.844  12.170  0.00  0.00    +0.127 C 
BRANCH  13  16
ATOM      3  O   UNL     1      12.283  11.896  12.928  0.00  0.00    -0.251 OA
ATOM     16  C   UNL     1      11.164  12.387  12.891  0.00  0.00    +0.305 C 
BRANCH  16   2
ATOM      2  O   UNL     1      10.826  13.541  13.521  0.00  0.00    -0.481 OA
ATOM     37  H   UNL     1       9.994  13.451  14.033  0.00  0.00    +0.295 HD
ENDBRANCH  16   2
ENDBRANCH  13  16
ENDBRANCH   7  13
ENDBRANCH  12   7
ENDBRANCH  14  12
ENDBRANCH  15   4
TORSDOF 9
ENDMDL
MODEL 9
REMARK VINA RESULT:      -5.9     27.353     30.492
REMARK  Name = 40777710
REMARK  14 active torsions:
REMARK  status: ('A' for Active; 'I' for Inactive)
REMARK    1  A    between atoms: O_2  and  C_16
REMARK    2  A    between atoms: N_4  and  C_15
REMARK    3  A    between atoms: N_5  and  C_26
REMARK    4  A    between atoms: C_7  and  C_12
REMARK    5  A    between atoms: C_7  and  C_13
REMARK    6  A    between atoms: C_12  and  C_14
REMARK    7  A    between atoms: C_13  and  C_16
REMARK    8  A    between atoms: C_18  and  C_21
REMARK    9  A    between atoms: C_22  and  C_24
REMARK   10  A    between atoms: C_23  and  C_25
REMARK   11  A    between atoms: C_27  and  C_28
REMARK   12  A    between atoms: C_27  and  C_33
REMARK   13  A    between atoms: C_27  and  C_34
REMARK   14  A    between atoms: C_27  and  C_35
REMARK                            x       y       z     vdW  Elec       q    Type
REMARK                         _______ _______ _______ _____ _____    ______ ____
ROOT
ATOM     15  C   UNL     1      19.168  -2.194  27.928  0.00  0.00    +0.097 C 
ATOM     17  C   UNL     1      17.702  -2.430  28.310  0.00  0.00    +0.039 C 
ATOM     18  C   UNL     1      17.700  -3.670  29.228  0.00  0.00    +0.047 C 
ATOM     19  C   UNL     1      19.912  -2.901  29.011  0.00  0.00    -0.009 C 
ATOM     20  C   UNL     1      19.117  -3.704  29.726  0.00  0.00    -0.021 C 
ENDROOT
BRANCH  18  21
ATOM      5  N   UNL     1      15.008  -4.058  31.681  0.00  0.00    -0.236 N 
ATOM      6  N   UNL     1      15.390  -2.823  32.048  0.00  0.00    -0.171 NA
ATOM     21  C   UNL     1      16.651  -3.609  30.312  0.00  0.00    +0.003 A 
ATOM     22  C   UNL     1      15.732  -4.574  30.646  0.00  0.00    +0.046 A 
ATOM     23  C   UNL     1      16.394  -2.554  31.208  0.00  0.00    +0.064 A 
ATOM     24  C   UNL     1      15.490  -5.916  30.077  0.00  0.00    +0.066 C 
ATOM     25  C   UNL     1      17.088  -1.258  31.301  0.00  0.00    +0.068 C 
BRANCH   5  26
ATOM     26  C   UNL     1      13.957  -4.685  32.351  0.00  0.00    +0.066 A 
ATOM     28  C   UNL     1      11.855  -5.932  33.696  0.00  0.00    -0.042 A 
ATOM     29  C   UNL     1      12.680  -4.695  31.791  0.00  0.00    +0.028 A 
ATOM     30  C   UNL     1      14.184  -5.298  33.584  0.00  0.00    +0.028 A 
ATOM     31  C   UNL     1      11.628  -5.318  32.464  0.00  0.00    +0.006 A 
ATOM     32  C   UNL     1      13.132  -5.922  34.256  0.00  0.00    +0.006 A 
BRANCH  28  27
ATOM     27  C   UNL     1      10.731  -6.598  34.415  0.00  0.00    -0.013 C 
ATOM     33  C   UNL     1      10.060  -5.629  35.437  0.00  0.00    +0.015 C 
ATOM     34  C   UNL     1      11.227  -7.847  35.207  0.00  0.00    +0.015 C 
ATOM     35  C   UNL     1       9.566  -7.116  33.507  0.00  0.00    +0.015 C 
ENDBRANCH  28  27
ENDBRANCH   5  26
ENDBRANCH  18  21
BRANCH  15   4
ATOM      1  O   UNL     1      18.678  -1.084  25.304  0.00  0.00    -0.276 OA
ATOM      4  N   UNL     1      19.513  -2.777  26.659  0.00  0.00    -0.309 N 
ATOM     14  C   UNL     1      19.237  -2.169  25.444  0.00  0.00    +0.214 C 
ATOM     36  H   UNL     1      19.938  -3.701  26.663  0.00  0.00    +0.149 HD
BRANCH  14  12
ATOM     12  C   UNL     1      19.718  -3.017  24.287  0.00  0.00    +0.103 C 
BRANCH  12   7
ATOM      7  C   UNL     1      18.664  -4.031  23.837  0.00  0.00    -0.011 C 
ATOM      8  C   UNL     1      19.247  -5.447  23.742  0.00  0.00    +0.008 C 
ATOM      9  C   UNL     1      17.569  -4.216  24.898  0.00  0.00    +0.008 C 
ATOM     10  C   UNL     1      18.045  -6.381  23.869  0.00  0.00    +0.001 C 
ATOM     11  C   UNL     1      16.966  -5.590  24.609  0.00  0.00    +0.001 C 
BRANCH   7  13
ATOM     13  C   UNL     1      18.070  -3.580  22.493  0.00  0.00    +0.127 C 
BRANCH  13  16
ATOM      3  O   UNL     1      15.911  -2.593  23.051  0.00  0.00    -0.251 OA
ATOM     16  C   UNL     1      17.070  -2.477  22.681  0.00  0.00    +0.305 C 
BRANCH  16   2
ATOM      2  O   UNL     1      17.648  -1.287  22.373  0.00  0.00    -0.481 OA
ATOM     37  H   UNL     1      18.143  -1.327  21.527  0.00  0.00    +0.295 HD
ENDBRANCH  16   2
ENDBRANCH  13  16
ENDBRANCH   7  13
ENDBRANCH  12   7
ENDBRANCH  14  12
ENDBRANCH  15   4
TORSDOF 9
ENDMDL
MODEL 10
REMARK VINA RESULT:      -5.9      7.516     11.629
REMARK  Name = 40777710
REMARK  14 active torsions:
REMARK  status: ('A' for Active; 'I' for Inactive)
REMARK    1  A    between atoms: O_2  and  C_16
REMARK    2  A    between atoms: N_4  and  C_15
REMARK    3  A    between atoms: N_5  and  C_26
REMARK    4  A    between atoms: C_7  and  C_12
REMARK    5  A    between atoms: C_7  and  C_13
REMARK    6  A    between atoms: C_12  and  C_14
REMARK    7  A    between atoms: C_13  and  C_16
REMARK    8  A    between atoms: C_18  and  C_21
REMARK    9  A    between atoms: C_22  and  C_24
REMARK   10  A    between atoms: C_23  and  C_25
REMARK   11  A    between atoms: C_27  and  C_28
REMARK   12  A    between atoms: C_27  and  C_33
REMARK   13  A    between atoms: C_27  and  C_34
REMARK   14  A    between atoms: C_27  and  C_35
REMARK                            x       y       z     vdW  Elec       q    Type
REMARK                         _______ _______ _______ _____ _____    ______ ____
ROOT
ATOM     15  C   UNL     1     -11.380 -13.038  19.351  0.00  0.00    +0.097 C 
ATOM     17  C   UNL     1     -10.925 -12.220  18.136  0.00  0.00    +0.039 C 
ATOM     18  C   UNL     1     -10.340 -10.910  18.704  0.00  0.00    +0.047 C 
ATOM     19  C   UNL     1     -10.578 -12.452  20.464  0.00  0.00    -0.009 C 
ATOM     20  C   UNL     1     -10.006 -11.294  20.117  0.00  0.00    -0.021 C 
ENDROOT
BRANCH  18  21
ATOM      5  N   UNL     1      -7.278 -10.142  16.847  0.00  0.00    -0.236 N 
ATOM      6  N   UNL     1      -7.883  -8.955  16.669  0.00  0.00    -0.171 NA
ATOM     21  C   UNL     1      -9.177 -10.378  17.901  0.00  0.00    +0.003 A 
ATOM     22  C   UNL     1      -8.012 -11.030  17.578  0.00  0.00    +0.046 A 
ATOM     23  C   UNL     1      -9.042  -9.105  17.315  0.00  0.00    +0.064 A 
ATOM     24  C   UNL     1      -7.549 -12.396  17.898  0.00  0.00    +0.066 C 
ATOM     25  C   UNL     1     -10.004  -7.989  17.345  0.00  0.00    +0.068 C 
BRANCH   5  26
ATOM     26  C   UNL     1      -6.014 -10.365  16.300  0.00  0.00    +0.066 A 
ATOM     28  C   UNL     1      -3.487 -10.801  15.202  0.00  0.00    -0.042 A 
ATOM     29  C   UNL     1      -4.884 -10.332  17.117  0.00  0.00    +0.028 A 
ATOM     30  C   UNL     1      -5.881 -10.615  14.933  0.00  0.00    +0.028 A 
ATOM     31  C   UNL     1      -3.620 -10.550  16.567  0.00  0.00    +0.006 A 
ATOM     32  C   UNL     1      -4.617 -10.834  14.385  0.00  0.00    +0.006 A 
BRANCH  28  27
ATOM     27  C   UNL     1      -2.135 -11.034  14.615  0.00  0.00    -0.013 C 
ATOM     33  C   UNL     1      -1.009 -10.565  15.588  0.00  0.00    +0.015 C 
ATOM     34  C   UNL     1      -1.958 -10.252  13.277  0.00  0.00    +0.015 C 
ATOM     35  C   UNL     1      -1.798 -12.523  14.276  0.00  0.00    +0.015 C 
ENDBRANCH  28  27
ENDBRANCH   5  26
ENDBRANCH  18  21
BRANCH  15   4
ATOM      1  O   UNL     1     -12.786 -13.901  21.724  0.00  0.00    -0.276 OA
ATOM      4  N   UNL     1     -12.779 -12.875  19.639  0.00  0.00    -0.309 N 
ATOM     14  C   UNL     1     -13.370 -13.323  20.811  0.00  0.00    +0.214 C 
ATOM     36  H   UNL     1     -13.364 -12.449  18.923  0.00  0.00    +0.149 HD
BRANCH  14  12
ATOM     12  C   UNL     1     -14.850 -13.008  20.832  0.00  0.00    +0.103 C 
BRANCH  12   7
ATOM      7  C   UNL     1     -15.121 -11.522  21.073  0.00  0.00    -0.011 C 
ATOM      8  C   UNL     1     -13.818 -10.721  21.188  0.00  0.00    +0.008 C 
ATOM      9  C   UNL     1     -15.784 -10.864  19.854  0.00  0.00    +0.008 C 
ATOM     10  C   UNL     1     -14.203  -9.284  20.841  0.00  0.00    +0.001 C 
ATOM     11  C   UNL     1     -15.467  -9.376  19.986  0.00  0.00    +0.001 C 
BRANCH   7  13
ATOM     13  C   UNL     1     -15.987 -11.365  22.333  0.00  0.00    +0.127 C 
BRANCH  13  16
ATOM      3  O   UNL     1     -14.409 -12.110  24.036  0.00  0.00    -0.251 OA
ATOM     16  C   UNL     1     -15.479 -12.220  23.456  0.00  0.00    +0.305 C 
BRANCH  16   2
ATOM      2  O   UNL     1     -16.403 -13.170  23.753  0.00  0.00    -0.481 OA
ATOM     37  H   UNL     1     -16.056 -13.835  24.384  0.00  0.00    +0.295 HD
ENDBRANCH  16   2
ENDBRANCH  13  16
ENDBRANCH   7  13
ENDBRANCH  12   7
ENDBRANCH  14  12
ENDBRANCH  15   4
TORSDOF 9
ENDMDL
