MODEL 1
REMARK VINA RESULT:      -7.4      0.000      0.000
REMARK  Name = 45784010
REMARK  3 active torsions:
REMARK  status: ('A' for Active; 'I' for Inactive)
REMARK    1  A    between atoms: C_5  and  C_12
REMARK    2  A    between atoms: C_6  and  C_16
REMARK    3  A    between atoms: C_21  and  C_23
REMARK                            x       y       z     vdW  Elec       q    Type
REMARK                         _______ _______ _______ _____ _____    ______ ____
ROOT
ATOM      1  O   UNL     1      11.747  11.973  20.992  0.00  0.00    -0.275 OA
ATOM      2  N   UNL     1      11.688   9.708  21.443  0.00  0.00    -0.301 N 
ATOM      6  C   UNL     1      12.050   7.773  20.110  0.00  0.00    +0.074 C 
ATOM      7  C   UNL     1      11.740   9.275  20.052  0.00  0.00    +0.119 C 
ATOM      8  C   UNL     1      11.401   7.365  21.442  0.00  0.00    +0.032 C 
ATOM      9  C   UNL     1      11.635   8.567  22.349  0.00  0.00    +0.108 C 
ATOM     12  C   UNL     1      11.701  11.044  21.801  0.00  0.00    +0.219 C 
ENDROOT
BRANCH   6  16
ATOM      3  N   UNL     1      14.363   7.652  21.094  0.00  0.00    -0.342 N 
ATOM      4  N   UNL     1      14.127   6.761  19.072  0.00  0.00    -0.232 NA
ATOM     16  C   UNL     1      13.515   7.378  20.057  0.00  0.00    +0.113 A 
ATOM     17  C   UNL     1      15.605   7.180  20.755  0.00  0.00    +0.066 A 
ATOM     18  C   UNL     1      15.432   6.628  19.489  0.00  0.00    +0.089 A 
ATOM     19  C   UNL     1      16.827   7.189  21.427  0.00  0.00    +0.031 A 
ATOM     20  C   UNL     1      16.533   6.045  18.839  0.00  0.00    +0.030 A 
ATOM     21  C   UNL     1      17.914   6.603  20.766  0.00  0.00    -0.048 A 
ATOM     22  C   UNL     1      17.771   6.042  19.495  0.00  0.00    +0.005 A 
ATOM     23  C   UNL     1      19.249   6.580  21.433  0.00  0.00    +0.044 C 
ATOM     24  H   UNL     1      14.121   8.121  21.957  0.00  0.00    +0.167 HD
ENDBRANCH   6  16
BRANCH  12   5
ATOM      5  C   UNL     1      11.650  11.320  23.271  0.00  0.00    +0.075 C 
ATOM     10  C   UNL     1      13.048  11.659  23.787  0.00  0.00    +0.013 C 
ATOM     11  C   UNL     1      10.663  12.458  23.537  0.00  0.00    +0.013 C 
ATOM     13  C   UNL     1      13.022  12.048  25.263  0.00  0.00    +0.001 C 
ATOM     14  C   UNL     1      10.640  12.849  25.012  0.00  0.00    +0.001 C 
ATOM     15  C   UNL     1      12.037  13.184  25.527  0.00  0.00    +0.000 C 
ENDBRANCH  12   5
TORSDOF 2
ENDMDL
MODEL 2
REMARK VINA RESULT:      -7.3     26.467     28.369
REMARK  Name = 45784010
REMARK  3 active torsions:
REMARK  status: ('A' for Active; 'I' for Inactive)
REMARK    1  A    between atoms: C_5  and  C_12
REMARK    2  A    between atoms: C_6  and  C_16
REMARK    3  A    between atoms: C_21  and  C_23
REMARK                            x       y       z     vdW  Elec       q    Type
REMARK                         _______ _______ _______ _____ _____    ______ ____
ROOT
ATOM      1  O   UNL     1      -4.969 -13.555  16.262  0.00  0.00    -0.275 OA
ATOM      2  N   UNL     1      -3.372 -12.020  15.603  0.00  0.00    -0.301 N 
ATOM      6  C   UNL     1      -1.826 -11.954  13.799  0.00  0.00    +0.074 C 
ATOM      7  C   UNL     1      -2.728 -12.884  14.621  0.00  0.00    +0.119 C 
ATOM      8  C   UNL     1      -1.461 -10.872  14.827  0.00  0.00    +0.032 C 
ATOM      9  C   UNL     1      -2.728 -10.713  15.659  0.00  0.00    +0.108 C 
ATOM     12  C   UNL     1      -4.460 -12.436  16.349  0.00  0.00    +0.219 C 
ENDROOT
BRANCH   6  16
ATOM      3  N   UNL     1      -3.079 -12.130  11.624  0.00  0.00    -0.342 N 
ATOM      4  N   UNL     1      -2.420 -10.086  12.194  0.00  0.00    -0.232 NA
ATOM     16  C   UNL     1      -2.433 -11.352  12.544  0.00  0.00    +0.113 A 
ATOM     17  C   UNL     1      -3.512 -11.310  10.613  0.00  0.00    +0.066 A 
ATOM     18  C   UNL     1      -3.089 -10.040  10.993  0.00  0.00    +0.089 A 
ATOM     19  C   UNL     1      -4.216 -11.564   9.436  0.00  0.00    +0.031 A 
ATOM     20  C   UNL     1      -3.376  -8.945  10.160  0.00  0.00    +0.030 A 
ATOM     21  C   UNL     1      -4.494 -10.462   8.618  0.00  0.00    -0.048 A 
ATOM     22  C   UNL     1      -4.082  -9.176   8.972  0.00  0.00    +0.005 A 
ATOM     23  C   UNL     1      -5.246 -10.669   7.345  0.00  0.00    +0.044 C 
ATOM     24  H   UNL     1      -3.213 -13.131  11.675  0.00  0.00    +0.167 HD
ENDBRANCH   6  16
BRANCH  12   5
ATOM      5  C   UNL     1      -5.009 -11.426  17.309  0.00  0.00    +0.075 C 
ATOM     10  C   UNL     1      -6.437 -11.051  16.910  0.00  0.00    +0.013 C 
ATOM     11  C   UNL     1      -4.954 -11.996  18.727  0.00  0.00    +0.013 C 
ATOM     13  C   UNL     1      -7.070 -10.100  17.923  0.00  0.00    +0.001 C 
ATOM     14  C   UNL     1      -5.591 -11.047  19.738  0.00  0.00    +0.001 C 
ATOM     15  C   UNL     1      -7.015 -10.670  19.338  0.00  0.00    +0.000 C 
ENDBRANCH  12   5
TORSDOF 2
ENDMDL
MODEL 3
REMARK VINA RESULT:      -7.1      4.166      6.050
REMARK  Name = 45784010
REMARK  3 active torsions:
REMARK  status: ('A' for Active; 'I' for Inactive)
REMARK    1  A    between atoms: C_5  and  C_12
REMARK    2  A    between atoms: C_6  and  C_16
REMARK    3  A    between atoms: C_21  and  C_23
REMARK                            x       y       z     vdW  Elec       q    Type
REMARK                         _______ _______ _______ _____ _____    ______ ____
ROOT
ATOM      1  O   UNL     1      14.292   8.853  14.838  0.00  0.00    -0.275 OA
ATOM      2  N   UNL     1      13.991   9.086  17.118  0.00  0.00    -0.301 N 
ATOM      6  C   UNL     1      13.959   7.537  18.922  0.00  0.00    +0.074 C 
ATOM      7  C   UNL     1      13.840   7.663  17.397  0.00  0.00    +0.119 C 
ATOM      8  C   UNL     1      13.408   8.891  19.397  0.00  0.00    +0.032 C 
ATOM      9  C   UNL     1      13.890   9.876  18.339  0.00  0.00    +0.108 C 
ATOM     12  C   UNL     1      14.214   9.567  15.840  0.00  0.00    +0.219 C 
ENDROOT
BRANCH   6  16
ATOM      3  N   UNL     1      16.117   6.246  19.002  0.00  0.00    -0.342 N 
ATOM      4  N   UNL     1      15.958   7.947  20.423  0.00  0.00    -0.232 NA
ATOM     16  C   UNL     1      15.347   7.272  19.476  0.00  0.00    +0.113 A 
ATOM     17  C   UNL     1      17.303   6.260  19.690  0.00  0.00    +0.066 A 
ATOM     18  C   UNL     1      17.179   7.331  20.570  0.00  0.00    +0.089 A 
ATOM     19  C   UNL     1      18.439   5.453  19.619  0.00  0.00    +0.031 A 
ATOM     20  C   UNL     1      18.242   7.629  21.441  0.00  0.00    +0.030 A 
ATOM     21  C   UNL     1      19.488   5.764  20.492  0.00  0.00    -0.048 A 
ATOM     22  C   UNL     1      19.393   6.832  21.387  0.00  0.00    +0.005 A 
ATOM     23  C   UNL     1      20.731   4.937  20.464  0.00  0.00    +0.044 C 
ATOM     24  H   UNL     1      15.860   5.590  18.276  0.00  0.00    +0.167 HD
ENDBRANCH   6  16
BRANCH  12   5
ATOM      5  C   UNL     1      14.354  11.053  15.725  0.00  0.00    +0.075 C 
ATOM     10  C   UNL     1      15.831  11.427  15.592  0.00  0.00    +0.013 C 
ATOM     11  C   UNL     1      13.540  11.545  14.527  0.00  0.00    +0.013 C 
ATOM     13  C   UNL     1      16.010  12.927  15.368  0.00  0.00    +0.001 C 
ATOM     14  C   UNL     1      13.724  13.043  14.302  0.00  0.00    +0.001 C 
ATOM     15  C   UNL     1      15.198  13.418  14.172  0.00  0.00    +0.000 C 
ENDBRANCH  12   5
TORSDOF 2
ENDMDL
MODEL 4
REMARK VINA RESULT:      -6.9     26.377     28.731
REMARK  Name = 45784010
REMARK  3 active torsions:
REMARK  status: ('A' for Active; 'I' for Inactive)
REMARK    1  A    between atoms: C_5  and  C_12
REMARK    2  A    between atoms: C_6  and  C_16
REMARK    3  A    between atoms: C_21  and  C_23
REMARK                            x       y       z     vdW  Elec       q    Type
REMARK                         _______ _______ _______ _____ _____    ______ ____
ROOT
ATOM      1  O   UNL     1      -9.415 -12.402  17.080  0.00  0.00    -0.275 OA
ATOM      2  N   UNL     1      -7.599 -11.618  18.275  0.00  0.00    -0.301 N 
ATOM      6  C   UNL     1      -5.365 -12.388  18.532  0.00  0.00    +0.074 C 
ATOM      7  C   UNL     1      -6.775 -12.807  18.096  0.00  0.00    +0.119 C 
ATOM      8  C   UNL     1      -5.664 -11.318  19.593  0.00  0.00    +0.032 C 
ATOM      9  C   UNL     1      -6.902 -10.606  19.059  0.00  0.00    +0.108 C 
ATOM     12  C   UNL     1      -8.869 -11.514  17.738  0.00  0.00    +0.219 C 
ENDROOT
BRANCH   6  16
ATOM      3  N   UNL     1      -4.770 -11.976  16.122  0.00  0.00    -0.342 N 
ATOM      4  N   UNL     1      -3.292 -11.254  17.616  0.00  0.00    -0.232 NA
ATOM     16  C   UNL     1      -4.446 -11.858  17.445  0.00  0.00    +0.113 A 
ATOM     17  C   UNL     1      -3.757 -11.411  15.391  0.00  0.00    +0.066 A 
ATOM     18  C   UNL     1      -2.847 -10.967  16.346  0.00  0.00    +0.089 A 
ATOM     19  C   UNL     1      -3.564 -11.254  14.018  0.00  0.00    +0.031 A 
ATOM     20  C   UNL     1      -1.668 -10.327  15.926  0.00  0.00    +0.030 A 
ATOM     21  C   UNL     1      -2.386 -10.614  13.616  0.00  0.00    -0.048 A 
ATOM     22  C   UNL     1      -1.454 -10.158  14.552  0.00  0.00    +0.005 A 
ATOM     23  C   UNL     1      -2.122 -10.415  12.160  0.00  0.00    +0.044 C 
ATOM     24  H   UNL     1      -5.605 -12.405  15.745  0.00  0.00    +0.167 HD
ENDBRANCH   6  16
BRANCH  12   5
ATOM      5  C   UNL     1      -9.581 -10.224  18.007  0.00  0.00    +0.075 C 
ATOM     10  C   UNL     1      -9.188  -9.184  16.958  0.00  0.00    +0.013 C 
ATOM     11  C   UNL     1     -11.090 -10.473  18.014  0.00  0.00    +0.013 C 
ATOM     13  C   UNL     1      -9.971  -7.885  17.137  0.00  0.00    +0.001 C 
ATOM     14  C   UNL     1     -11.872  -9.174  18.188  0.00  0.00    +0.001 C 
ATOM     15  C   UNL     1     -11.478  -8.134  17.143  0.00  0.00    +0.000 C 
ENDBRANCH  12   5
TORSDOF 2
ENDMDL
MODEL 5
REMARK VINA RESULT:      -6.7     27.126     28.973
REMARK  Name = 45784010
REMARK  3 active torsions:
REMARK  status: ('A' for Active; 'I' for Inactive)
REMARK    1  A    between atoms: C_5  and  C_12
REMARK    2  A    between atoms: C_6  and  C_16
REMARK    3  A    between atoms: C_21  and  C_23
REMARK                            x       y       z     vdW  Elec       q    Type
REMARK                         _______ _______ _______ _____ _____    ______ ____
ROOT
ATOM      1  O   UNL     1      -3.404  -8.899  10.052  0.00  0.00    -0.275 OA
ATOM      2  N   UNL     1      -3.206 -10.863  11.253  0.00  0.00    -0.301 N 
ATOM      6  C   UNL     1      -2.168 -11.408  13.322  0.00  0.00    +0.074 C 
ATOM      7  C   UNL     1      -2.215 -10.364  12.199  0.00  0.00    +0.119 C 
ATOM      8  C   UNL     1      -2.525 -12.700  12.570  0.00  0.00    +0.032 C 
ATOM      9  C   UNL     1      -3.549 -12.252  11.533  0.00  0.00    +0.108 C 
ATOM     12  C   UNL     1      -3.729 -10.072  10.246  0.00  0.00    +0.219 C 
ENDROOT
BRANCH   6  16
ATOM      3  N   UNL     1      -2.839 -11.742  15.724  0.00  0.00    -0.342 N 
ATOM      4  N   UNL     1      -4.183 -10.446  14.519  0.00  0.00    -0.232 NA
ATOM     16  C   UNL     1      -3.090 -11.176  14.505  0.00  0.00    +0.113 A 
ATOM     17  C   UNL     1      -3.836 -11.353  16.581  0.00  0.00    +0.066 A 
ATOM     18  C   UNL     1      -4.662 -10.544  15.805  0.00  0.00    +0.089 A 
ATOM     19  C   UNL     1      -4.079 -11.630  17.926  0.00  0.00    +0.031 A 
ATOM     20  C   UNL     1      -5.804  -9.969  16.390  0.00  0.00    +0.030 A 
ATOM     21  C   UNL     1      -5.219 -11.049  18.493  0.00  0.00    -0.048 A 
ATOM     22  C   UNL     1      -6.067 -10.233  17.740  0.00  0.00    +0.005 A 
ATOM     23  C   UNL     1      -5.533 -11.307  19.930  0.00  0.00    +0.044 C 
ATOM     24  H   UNL     1      -2.059 -12.344  15.955  0.00  0.00    +0.167 HD
ENDBRANCH   6  16
BRANCH  12   5
ATOM      5  C   UNL     1      -4.742 -10.735   9.365  0.00  0.00    +0.075 C 
ATOM     10  C   UNL     1      -6.152 -10.424   9.868  0.00  0.00    +0.013 C 
ATOM     11  C   UNL     1      -4.544 -10.261   7.924  0.00  0.00    +0.013 C 
ATOM     13  C   UNL     1      -7.217 -10.996   8.936  0.00  0.00    +0.001 C 
ATOM     14  C   UNL     1      -5.612 -10.829   6.994  0.00  0.00    +0.001 C 
ATOM     15  C   UNL     1      -7.019 -10.523   7.498  0.00  0.00    +0.000 C 
ENDBRANCH  12   5
TORSDOF 2
ENDMDL
MODEL 6
REMARK VINA RESULT:      -6.5     27.512     29.635
REMARK  Name = 45784010
REMARK  3 active torsions:
REMARK  status: ('A' for Active; 'I' for Inactive)
REMARK    1  A    between atoms: C_5  and  C_12
REMARK    2  A    between atoms: C_6  and  C_16
REMARK    3  A    between atoms: C_21  and  C_23
REMARK                            x       y       z     vdW  Elec       q    Type
REMARK                         _______ _______ _______ _____ _____    ______ ____
ROOT
ATOM      1  O   UNL     1      -3.158 -10.103  16.424  0.00  0.00    -0.275 OA
ATOM      2  N   UNL     1      -4.897 -11.537  16.937  0.00  0.00    -0.301 N 
ATOM      6  C   UNL     1      -6.527 -11.564  18.667  0.00  0.00    +0.074 C 
ATOM      7  C   UNL     1      -5.170 -10.978  18.255  0.00  0.00    +0.119 C 
ATOM      8  C   UNL     1      -6.520 -12.922  17.947  0.00  0.00    +0.032 C 
ATOM      9  C   UNL     1      -5.803 -12.637  16.632  0.00  0.00    +0.108 C 
ATOM     12  C   UNL     1      -3.900 -11.039  16.117  0.00  0.00    +0.219 C 
ENDROOT
BRANCH   6  16
ATOM      3  N   UNL     1      -7.647  -9.513  17.734  0.00  0.00    -0.342 N 
ATOM      4  N   UNL     1      -9.011 -11.094  18.493  0.00  0.00    -0.232 NA
ATOM     16  C   UNL     1      -7.757 -10.748  18.309  0.00  0.00    +0.113 A 
ATOM     17  C   UNL     1      -8.915  -9.030  17.533  0.00  0.00    +0.066 A 
ATOM     18  C   UNL     1      -9.748 -10.035  18.014  0.00  0.00    +0.089 A 
ATOM     19  C   UNL     1      -9.389  -7.837  16.987  0.00  0.00    +0.031 A 
ATOM     20  C   UNL     1     -11.141  -9.857  17.958  0.00  0.00    +0.030 A 
ATOM     21  C   UNL     1     -10.778  -7.676  16.937  0.00  0.00    -0.048 A 
ATOM     22  C   UNL     1     -11.640  -8.666  17.414  0.00  0.00    +0.005 A 
ATOM     23  C   UNL     1     -11.348  -6.420  16.364  0.00  0.00    +0.044 C 
ATOM     24  H   UNL     1      -6.786  -9.036  17.499  0.00  0.00    +0.167 HD
ENDBRANCH   6  16
BRANCH  12   5
ATOM      5  C   UNL     1      -3.753 -11.720  14.792  0.00  0.00    +0.075 C 
ATOM     10  C   UNL     1      -4.236 -10.794  13.675  0.00  0.00    +0.013 C 
ATOM     11  C   UNL     1      -2.291 -12.125  14.592  0.00  0.00    +0.013 C 
ATOM     13  C   UNL     1      -4.007 -11.412  12.298  0.00  0.00    +0.001 C 
ATOM     14  C   UNL     1      -2.062 -12.738  13.214  0.00  0.00    +0.001 C 
ATOM     15  C   UNL     1      -2.548 -11.816  12.099  0.00  0.00    +0.000 C 
ENDBRANCH  12   5
TORSDOF 2
ENDMDL
MODEL 7
REMARK VINA RESULT:      -6.4     27.868     30.221
REMARK  Name = 45784010
REMARK  3 active torsions:
REMARK  status: ('A' for Active; 'I' for Inactive)
REMARK    1  A    between atoms: C_5  and  C_12
REMARK    2  A    between atoms: C_6  and  C_16
REMARK    3  A    between atoms: C_21  and  C_23
REMARK                            x       y       z     vdW  Elec       q    Type
REMARK                         _______ _______ _______ _____ _____    ______ ____
ROOT
ATOM      1  O   UNL     1     -12.094 -10.549  15.719  0.00  0.00    -0.275 OA
ATOM      2  N   UNL     1     -11.233 -10.353  17.855  0.00  0.00    -0.301 N 
ATOM      6  C   UNL     1      -9.996 -11.826  19.252  0.00  0.00    +0.074 C 
ATOM      7  C   UNL     1     -10.901 -11.763  18.014  0.00  0.00    +0.119 C 
ATOM      8  C   UNL     1     -10.512 -10.641  20.084  0.00  0.00    +0.032 C 
ATOM      9  C   UNL     1     -10.871  -9.588  19.042  0.00  0.00    +0.108 C 
ATOM     12  C   UNL     1     -11.807  -9.857  16.698  0.00  0.00    +0.219 C 
ENDROOT
BRANCH   6  16
ATOM      3  N   UNL     1      -8.003 -11.335  17.796  0.00  0.00    -0.342 N 
ATOM      4  N   UNL     1      -7.544 -11.993  19.868  0.00  0.00    -0.232 NA
ATOM     16  C   UNL     1      -8.500 -11.729  19.007  0.00  0.00    +0.113 A 
ATOM     17  C   UNL     1      -6.634 -11.347  17.881  0.00  0.00    +0.066 A 
ATOM     18  C   UNL     1      -6.373 -11.760  19.185  0.00  0.00    +0.089 A 
ATOM     19  C   UNL     1      -5.634 -11.040  16.959  0.00  0.00    +0.031 A 
ATOM     20  C   UNL     1      -5.039 -11.881  19.611  0.00  0.00    +0.030 A 
ATOM     21  C   UNL     1      -4.311 -11.165  17.400  0.00  0.00    -0.048 A 
ATOM     22  C   UNL     1      -4.017 -11.578  18.702  0.00  0.00    +0.005 A 
ATOM     23  C   UNL     1      -3.195 -10.849  16.460  0.00  0.00    +0.044 C 
ATOM     24  H   UNL     1      -8.544 -11.083  16.980  0.00  0.00    +0.167 HD
ENDBRANCH   6  16
BRANCH  12   5
ATOM      5  C   UNL     1     -12.079  -8.385  16.692  0.00  0.00    +0.075 C 
ATOM     10  C   UNL     1     -10.869  -7.634  16.135  0.00  0.00    +0.013 C 
ATOM     11  C   UNL     1     -13.338  -8.108  15.869  0.00  0.00    +0.013 C 
ATOM     13  C   UNL     1     -11.145  -6.137  16.016  0.00  0.00    +0.001 C 
ATOM     14  C   UNL     1     -13.611  -6.611  15.746  0.00  0.00    +0.001 C 
ATOM     15  C   UNL     1     -12.402  -5.862  15.194  0.00  0.00    +0.000 C 
ENDBRANCH  12   5
TORSDOF 2
ENDMDL
MODEL 8
REMARK VINA RESULT:      -6.4     14.188     16.678
REMARK  Name = 45784010
REMARK  3 active torsions:
REMARK  status: ('A' for Active; 'I' for Inactive)
REMARK    1  A    between atoms: C_5  and  C_12
REMARK    2  A    between atoms: C_6  and  C_16
REMARK    3  A    between atoms: C_21  and  C_23
REMARK                            x       y       z     vdW  Elec       q    Type
REMARK                         _______ _______ _______ _____ _____    ______ ____
ROOT
ATOM      1  O   UNL     1      19.382  -3.626  26.295  0.00  0.00    -0.275 OA
ATOM      2  N   UNL     1      17.724  -5.233  26.401  0.00  0.00    -0.301 N 
ATOM      6  C   UNL     1      17.126  -6.849  28.039  0.00  0.00    +0.074 C 
ATOM      7  C   UNL     1      18.256  -5.923  27.569  0.00  0.00    +0.119 C 
ATOM      8  C   UNL     1      16.403  -7.163  26.720  0.00  0.00    +0.032 C 
ATOM      9  C   UNL     1      16.497  -5.863  25.930  0.00  0.00    +0.108 C 
ATOM     12  C   UNL     1      18.341  -4.120  25.857  0.00  0.00    +0.219 C 
ENDROOT
BRANCH   6  16
ATOM      3  N   UNL     1      14.932  -6.824  29.270  0.00  0.00    -0.342 N 
ATOM      4  N   UNL     1      16.399  -5.273  29.885  0.00  0.00    -0.232 NA
ATOM     16  C   UNL     1      16.174  -6.286  29.079  0.00  0.00    +0.113 A 
ATOM     17  C   UNL     1      14.314  -6.110  30.265  0.00  0.00    +0.066 A 
ATOM     18  C   UNL     1      15.251  -5.148  30.632  0.00  0.00    +0.089 A 
ATOM     19  C   UNL     1      13.056  -6.220  30.857  0.00  0.00    +0.031 A 
ATOM     20  C   UNL     1      14.930  -4.231  31.648  0.00  0.00    +0.030 A 
ATOM     21  C   UNL     1      12.753  -5.300  31.867  0.00  0.00    -0.048 A 
ATOM     22  C   UNL     1      13.672  -4.323  32.257  0.00  0.00    +0.005 A 
ATOM     23  C   UNL     1      11.422  -5.367  32.541  0.00  0.00    +0.044 C 
ATOM     24  H   UNL     1      14.535  -7.607  28.768  0.00  0.00    +0.167 HD
ENDBRANCH   6  16
BRANCH  12   5
ATOM      5  C   UNL     1      17.663  -3.525  24.662  0.00  0.00    +0.075 C 
ATOM     10  C   UNL     1      17.145  -2.127  25.000  0.00  0.00    +0.013 C 
ATOM     11  C   UNL     1      18.645  -3.492  23.489  0.00  0.00    +0.013 C 
ATOM     13  C   UNL     1      16.538  -1.444  23.777  0.00  0.00    +0.001 C 
ATOM     14  C   UNL     1      18.038  -2.805  22.269  0.00  0.00    +0.001 C 
ATOM     15  C   UNL     1      17.518  -1.411  22.607  0.00  0.00    +0.000 C 
ENDBRANCH  12   5
TORSDOF 2
ENDMDL
MODEL 9
REMARK VINA RESULT:      -6.3     31.348     32.643
REMARK  Name = 45784010
REMARK  3 active torsions:
REMARK  status: ('A' for Active; 'I' for Inactive)
REMARK    1  A    between atoms: C_5  and  C_12
REMARK    2  A    between atoms: C_6  and  C_16
REMARK    3  A    between atoms: C_21  and  C_23
REMARK                            x       y       z     vdW  Elec       q    Type
REMARK                         _______ _______ _______ _____ _____    ______ ____
ROOT
ATOM      1  O   UNL     1      -9.311  -6.062  41.964  0.00  0.00    -0.275 OA
ATOM      2  N   UNL     1      -7.514  -6.491  40.576  0.00  0.00    -0.301 N 
ATOM      6  C   UNL     1      -6.163  -8.413  40.210  0.00  0.00    +0.074 C 
ATOM      7  C   UNL     1      -7.148  -7.762  41.189  0.00  0.00    +0.119 C 
ATOM      8  C   UNL     1      -5.497  -7.187  39.566  0.00  0.00    +0.032 C 
ATOM      9  C   UNL     1      -6.623  -6.164  39.469  0.00  0.00    +0.108 C 
ATOM     12  C   UNL     1      -8.587  -5.739  41.021  0.00  0.00    +0.219 C 
ENDROOT
BRANCH   6  16
ATOM      3  N   UNL     1      -5.959 -10.046  38.306  0.00  0.00    -0.342 N 
ATOM      4  N   UNL     1      -8.032  -9.579  38.957  0.00  0.00    -0.232 NA
ATOM     16  C   UNL     1      -6.756  -9.341  39.165  0.00  0.00    +0.113 A 
ATOM     17  C   UNL     1      -6.775 -10.787  37.490  0.00  0.00    +0.066 A 
ATOM     18  C   UNL     1      -8.063 -10.478  37.917  0.00  0.00    +0.089 A 
ATOM     19  C   UNL     1      -6.504 -11.673  36.447  0.00  0.00    +0.031 A 
ATOM     20  C   UNL     1      -9.160 -11.079  37.276  0.00  0.00    +0.030 A 
ATOM     21  C   UNL     1      -7.608 -12.264  35.821  0.00  0.00    -0.048 A 
ATOM     22  C   UNL     1      -8.913 -11.973  36.226  0.00  0.00    +0.005 A 
ATOM     23  C   UNL     1      -7.384 -13.223  34.698  0.00  0.00    +0.044 C 
ATOM     24  H   UNL     1      -4.948 -10.025  38.274  0.00  0.00    +0.167 HD
ENDBRANCH   6  16
BRANCH  12   5
ATOM      5  C   UNL     1      -8.832  -4.463  40.278  0.00  0.00    +0.075 C 
ATOM     10  C   UNL     1     -10.202  -4.510  39.600  0.00  0.00    +0.013 C 
ATOM     11  C   UNL     1      -8.727  -3.286  41.249  0.00  0.00    +0.013 C 
ATOM     13  C   UNL     1     -10.535  -3.186  38.917  0.00  0.00    +0.001 C 
ATOM     14  C   UNL     1      -9.065  -1.963  40.567  0.00  0.00    +0.001 C 
ATOM     15  C   UNL     1     -10.431  -2.012  39.887  0.00  0.00    +0.000 C 
ENDBRANCH  12   5
TORSDOF 2
ENDMDL
MODEL 10
REMARK VINA RESULT:      -6.3     28.151     30.145
REMARK  Name = 45784010
REMARK  3 active torsions:
REMARK  status: ('A' for Active; 'I' for Inactive)
REMARK    1  A    between atoms: C_5  and  C_12
REMARK    2  A    between atoms: C_6  and  C_16
REMARK    3  A    between atoms: C_21  and  C_23
REMARK                            x       y       z     vdW  Elec       q    Type
REMARK                         _______ _______ _______ _____ _____    ______ ____
ROOT
ATOM      1  O   UNL     1      17.811  -6.221  -2.035  0.00  0.00    -0.275 OA
ATOM      2  N   UNL     1      18.009  -8.441  -2.648  0.00  0.00    -0.301 N 
ATOM      6  C   UNL     1      19.048 -10.322  -1.633  0.00  0.00    +0.074 C 
ATOM      7  C   UNL     1      19.000  -8.789  -1.638  0.00  0.00    +0.119 C 
ATOM      8  C   UNL     1      18.689 -10.657  -3.089  0.00  0.00    +0.032 C 
ATOM      9  C   UNL     1      17.665  -9.594  -3.470  0.00  0.00    +0.108 C 
ATOM     12  C   UNL     1      17.485  -7.165  -2.758  0.00  0.00    +0.219 C 
ENDROOT
BRANCH   6  16
ATOM      3  N   UNL     1      17.967 -10.572   0.626  0.00  0.00    -0.342 N 
ATOM      4  N   UNL     1      17.405 -12.101  -0.886  0.00  0.00    -0.232 NA
ATOM     16  C   UNL     1      18.127 -11.028  -0.653  0.00  0.00    +0.113 A 
ATOM     17  C   UNL     1      17.084 -11.408   1.261  0.00  0.00    +0.066 A 
ATOM     18  C   UNL     1      16.748 -12.353   0.296  0.00  0.00    +0.089 A 
ATOM     19  C   UNL     1      16.567 -11.417   2.556  0.00  0.00    +0.031 A 
ATOM     20  C   UNL     1      15.844 -13.377   0.625  0.00  0.00    +0.030 A 
ATOM     21  C   UNL     1      15.667 -12.443   2.868  0.00  0.00    -0.048 A 
ATOM     22  C   UNL     1      15.311 -13.406   1.921  0.00  0.00    +0.005 A 
ATOM     23  C   UNL     1      15.077 -12.507   4.238  0.00  0.00    +0.044 C 
ATOM     24  H   UNL     1      18.420  -9.766   1.035  0.00  0.00    +0.167 HD
ENDBRANCH   6  16
BRANCH  12   5
ATOM      5  C   UNL     1      16.471  -6.974  -3.843  0.00  0.00    +0.075 C 
ATOM     10  C   UNL     1      15.094  -7.419  -3.352  0.00  0.00    +0.013 C 
ATOM     11  C   UNL     1      16.465  -5.507  -4.277  0.00  0.00    +0.013 C 
ATOM     13  C   UNL     1      14.012  -7.145  -4.394  0.00  0.00    +0.001 C 
ATOM     14  C   UNL     1      15.381  -5.233  -5.315  0.00  0.00    +0.001 C 
ATOM     15  C   UNL     1      14.006  -5.680  -4.825  0.00  0.00    +0.000 C 
ENDBRANCH  12   5
TORSDOF 2
ENDMDL
