MODEL 1
REMARK VINA RESULT:      -6.9      0.000      0.000
REMARK  Name = 9424537
REMARK  3 active torsions:
REMARK  status: ('A' for Active; 'I' for Inactive)
REMARK    1  A    between atoms: N_4  and  C_13
REMARK    2  A    between atoms: C_13  and  C_18
REMARK    3  A    between atoms: C_14  and  C_19
REMARK                            x       y       z     vdW  Elec       q    Type
REMARK                         _______ _______ _______ _____ _____    ______ ____
ROOT
ATOM      3  O   UNL     1      16.643   8.286  21.691  0.00  0.00    -0.268 OA
ATOM      4  N   UNL     1      12.401   8.559  19.086  0.00  0.00    -0.297 NA
ATOM      5  N   UNL     1      14.321   8.581  21.622  0.00  0.00    -0.311 N 
ATOM      6  C   UNL     1      12.752   6.740  20.767  0.00  0.00    +0.024 C 
ATOM      7  C   UNL     1      11.830   8.885  21.500  0.00  0.00    +0.051 C 
ATOM      8  C   UNL     1      11.742   7.375  21.707  0.00  0.00    +0.017 C 
ATOM      9  C   UNL     1      12.429   7.108  19.304  0.00  0.00    +0.090 C 
ATOM     10  C   UNL     1      11.489   9.222  20.028  0.00  0.00    +0.094 C 
ATOM     11  C   UNL     1      14.154   7.186  21.186  0.00  0.00    +0.130 C 
ATOM     12  C   UNL     1      13.216   9.418  21.873  0.00  0.00    +0.034 A 
ATOM     14  C   UNL     1      13.409  10.651  22.410  0.00  0.00    +0.005 A 
ATOM     15  C   UNL     1      15.644   8.980  21.878  0.00  0.00    +0.252 A 
ATOM     16  C   UNL     1      14.761  11.101  22.682  0.00  0.00    +0.015 A 
ATOM     17  C   UNL     1      15.828  10.342  22.431  0.00  0.00    +0.071 A 
ENDROOT
BRANCH  14  19
ATOM      1  F   UNL     1      12.309  12.403  20.486  0.00  0.00    -0.205 F 
ATOM     19  C   UNL     1      12.278  11.556  22.708  0.00  0.00    +0.019 A 
ATOM     22  C   UNL     1      11.779  12.397  21.718  0.00  0.00    +0.131 A 
ATOM     23  C   UNL     1      11.721  11.559  23.983  0.00  0.00    +0.011 A 
ATOM     26  C   UNL     1      10.712  13.248  22.005  0.00  0.00    +0.039 A 
ATOM     27  C   UNL     1      10.654  12.410  24.271  0.00  0.00    +0.001 A 
ATOM     29  C   UNL     1      10.149  13.255  23.282  0.00  0.00    +0.003 A 
ENDBRANCH  14  19
BRANCH   4  13
ATOM     13  C   UNL     1      12.046   8.873  17.704  0.00  0.00    +0.119 C 
BRANCH  13  18
ATOM      2  F   UNL     1      16.138  11.774  15.170  0.00  0.00    -0.205 F 
ATOM     18  C   UNL     1      13.141   9.651  17.027  0.00  0.00    -0.033 A 
ATOM     20  C   UNL     1      13.584  10.840  17.588  0.00  0.00    +0.008 A 
ATOM     21  C   UNL     1      13.693   9.167  15.848  0.00  0.00    +0.008 A 
ATOM     24  C   UNL     1      14.600  11.560  16.958  0.00  0.00    +0.038 A 
ATOM     25  C   UNL     1      14.709   9.887  15.219  0.00  0.00    +0.038 A 
ATOM     28  C   UNL     1      15.162  11.084  15.774  0.00  0.00    +0.123 A 
ENDBRANCH  13  18
ENDBRANCH   4  13
TORSDOF 3
ENDMDL
MODEL 2
REMARK VINA RESULT:      -6.8     14.486     17.831
REMARK  Name = 9424537
REMARK  3 active torsions:
REMARK  status: ('A' for Active; 'I' for Inactive)
REMARK    1  A    between atoms: N_4  and  C_13
REMARK    2  A    between atoms: C_13  and  C_18
REMARK    3  A    between atoms: C_14  and  C_19
REMARK                            x       y       z     vdW  Elec       q    Type
REMARK                         _______ _______ _______ _____ _____    ______ ____
ROOT
ATOM      3  O   UNL     1       7.672   8.870   2.690  0.00  0.00    -0.268 OA
ATOM      4  N   UNL     1      11.030   7.484   6.105  0.00  0.00    -0.297 NA
ATOM      5  N   UNL     1       9.060   7.229   3.621  0.00  0.00    -0.311 N 
ATOM      6  C   UNL     1       8.765   6.425   6.038  0.00  0.00    +0.024 C 
ATOM      7  C   UNL     1      10.560   5.500   4.656  0.00  0.00    +0.051 C 
ATOM      8  C   UNL     1       9.357   5.126   5.518  0.00  0.00    +0.017 C 
ATOM      9  C   UNL     1       9.811   7.196   6.869  0.00  0.00    +0.090 C 
ATOM     10  C   UNL     1      11.594   6.260   5.520  0.00  0.00    +0.094 C 
ATOM     11  C   UNL     1       8.251   7.237   4.848  0.00  0.00    +0.130 C 
ATOM     12  C   UNL     1      10.139   6.340   3.447  0.00  0.00    +0.034 A 
ATOM     14  C   UNL     1      10.770   6.267   2.246  0.00  0.00    +0.005 A 
ATOM     15  C   UNL     1       8.616   8.085   2.597  0.00  0.00    +0.252 A 
ATOM     16  C   UNL     1      10.344   7.140   1.168  0.00  0.00    +0.015 A 
ATOM     17  C   UNL     1       9.344   8.010   1.310  0.00  0.00    +0.071 A 
ENDROOT
BRANCH  14  19
ATOM      1  F   UNL     1      10.386   3.525   1.684  0.00  0.00    -0.205 F 
ATOM     19  C   UNL     1      11.894   5.335   2.012  0.00  0.00    +0.019 A 
ATOM     22  C   UNL     1      11.642   3.993   1.740  0.00  0.00    +0.131 A 
ATOM     23  C   UNL     1      13.201   5.809   2.068  0.00  0.00    +0.011 A 
ATOM     26  C   UNL     1      12.706   3.119   1.520  0.00  0.00    +0.039 A 
ATOM     27  C   UNL     1      14.265   4.936   1.848  0.00  0.00    +0.001 A 
ATOM     29  C   UNL     1      14.018   3.590   1.574  0.00  0.00    +0.003 A 
ENDBRANCH  14  19
BRANCH   4  13
ATOM     13  C   UNL     1      12.017   8.171   6.934  0.00  0.00    +0.119 C 
BRANCH  13  18
ATOM      2  F   UNL     1      16.699   9.255   4.021  0.00  0.00    -0.205 F 
ATOM     18  C   UNL     1      13.271   8.461   6.156  0.00  0.00    -0.033 A 
ATOM     20  C   UNL     1      14.468   7.871   6.539  0.00  0.00    +0.008 A 
ATOM     21  C   UNL     1      13.214   9.315   5.062  0.00  0.00    +0.008 A 
ATOM     24  C   UNL     1      15.629   8.141   5.816  0.00  0.00    +0.038 A 
ATOM     25  C   UNL     1      14.375   9.584   4.339  0.00  0.00    +0.038 A 
ATOM     28  C   UNL     1      15.584   8.997   4.716  0.00  0.00    +0.123 A 
ENDBRANCH  13  18
ENDBRANCH   4  13
TORSDOF 3
ENDMDL
MODEL 3
REMARK VINA RESULT:      -6.8      2.784      4.814
REMARK  Name = 9424537
REMARK  3 active torsions:
REMARK  status: ('A' for Active; 'I' for Inactive)
REMARK    1  A    between atoms: N_4  and  C_13
REMARK    2  A    between atoms: C_13  and  C_18
REMARK    3  A    between atoms: C_14  and  C_19
REMARK                            x       y       z     vdW  Elec       q    Type
REMARK                         _______ _______ _______ _____ _____    ______ ____
ROOT
ATOM      3  O   UNL     1      11.370   7.498  20.075  0.00  0.00    -0.268 OA
ATOM      4  N   UNL     1      15.154  10.618  20.969  0.00  0.00    -0.297 NA
ATOM      5  N   UNL     1      12.167   9.673  20.420  0.00  0.00    -0.311 N 
ATOM      6  C   UNL     1      13.865  10.755  18.830  0.00  0.00    +0.024 C 
ATOM      7  C   UNL     1      13.070  11.989  20.789  0.00  0.00    +0.051 C 
ATOM      8  C   UNL     1      13.218  12.057  19.271  0.00  0.00    +0.017 C 
ATOM      9  C   UNL     1      15.241  10.585  19.505  0.00  0.00    +0.090 C 
ATOM     10  C   UNL     1      14.467  11.830  21.435  0.00  0.00    +0.094 C 
ATOM     11  C   UNL     1      12.909   9.605  19.153  0.00  0.00    +0.130 C 
ATOM     12  C   UNL     1      12.144  10.842  21.206  0.00  0.00    +0.034 A 
ATOM     14  C   UNL     1      11.333  10.910  22.294  0.00  0.00    +0.005 A 
ATOM     15  C   UNL     1      11.398   8.538  20.733  0.00  0.00    +0.252 A 
ATOM     16  C   UNL     1      10.530   9.757  22.652  0.00  0.00    +0.015 A 
ATOM     17  C   UNL     1      10.550   8.627  21.944  0.00  0.00    +0.071 A 
ENDROOT
BRANCH  14  19
ATOM      1  F   UNL     1      12.954  11.280  24.578  0.00  0.00    -0.205 F 
ATOM     19  C   UNL     1      11.262  12.124  23.136  0.00  0.00    +0.019 A 
ATOM     22  C   UNL     1      12.086  12.249  24.250  0.00  0.00    +0.131 A 
ATOM     23  C   UNL     1      10.364  13.135  22.806  0.00  0.00    +0.011 A 
ATOM     26  C   UNL     1      12.015  13.396  25.040  0.00  0.00    +0.039 A 
ATOM     27  C   UNL     1      10.292  14.282  23.595  0.00  0.00    +0.001 A 
ATOM     29  C   UNL     1      11.117  14.413  24.713  0.00  0.00    +0.003 A 
ENDBRANCH  14  19
BRANCH   4  13
ATOM     13  C   UNL     1      16.479  10.503  21.575  0.00  0.00    +0.119 C 
BRANCH  13  18
ATOM      2  F   UNL     1      18.690   5.420  20.646  0.00  0.00    -0.205 F 
ATOM     18  C   UNL     1      17.072   9.143  21.326  0.00  0.00    -0.033 A 
ATOM     20  C   UNL     1      18.451   8.995  21.280  0.00  0.00    +0.008 A 
ATOM     21  C   UNL     1      16.230   8.053  21.146  0.00  0.00    +0.008 A 
ATOM     24  C   UNL     1      18.999   7.733  21.049  0.00  0.00    +0.038 A 
ATOM     25  C   UNL     1      16.778   6.792  20.915  0.00  0.00    +0.038 A 
ATOM     28  C   UNL     1      18.164   6.632  20.866  0.00  0.00    +0.123 A 
ENDBRANCH  13  18
ENDBRANCH   4  13
TORSDOF 3
ENDMDL
MODEL 4
REMARK VINA RESULT:      -6.7     13.939     17.013
REMARK  Name = 9424537
REMARK  3 active torsions:
REMARK  status: ('A' for Active; 'I' for Inactive)
REMARK    1  A    between atoms: N_4  and  C_13
REMARK    2  A    between atoms: C_13  and  C_18
REMARK    3  A    between atoms: C_14  and  C_19
REMARK                            x       y       z     vdW  Elec       q    Type
REMARK                         _______ _______ _______ _____ _____    ______ ____
ROOT
ATOM      3  O   UNL     1       8.818  10.100   2.839  0.00  0.00    -0.268 OA
ATOM      4  N   UNL     1      12.942   7.521   3.931  0.00  0.00    -0.297 NA
ATOM      5  N   UNL     1      10.211   9.078   4.419  0.00  0.00    -0.311 N 
ATOM      6  C   UNL     1      12.630   9.851   4.785  0.00  0.00    +0.024 C 
ATOM      7  C   UNL     1      11.741   7.973   6.078  0.00  0.00    +0.051 C 
ATOM      8  C   UNL     1      12.420   9.335   6.199  0.00  0.00    +0.017 C 
ATOM      9  C   UNL     1      13.511   8.872   3.983  0.00  0.00    +0.090 C 
ATOM     10  C   UNL     1      12.654   7.013   5.279  0.00  0.00    +0.094 C 
ATOM     11  C   UNL     1      11.260  10.069   4.139  0.00  0.00    +0.130 C 
ATOM     12  C   UNL     1      10.365   8.094   5.415  0.00  0.00    +0.034 A 
ATOM     14  C   UNL     1       9.320   7.289   5.739  0.00  0.00    +0.005 A 
ATOM     15  C   UNL     1       9.011   9.250   3.707  0.00  0.00    +0.252 A 
ATOM     16  C   UNL     1       8.067   7.432   5.022  0.00  0.00    +0.015 A 
ATOM     17  C   UNL     1       7.899   8.336   4.056  0.00  0.00    +0.071 A 
ENDROOT
BRANCH  14  19
ATOM      1  F   UNL     1      10.116   4.634   5.194  0.00  0.00    -0.205 F 
ATOM     19  C   UNL     1       9.430   6.256   6.792  0.00  0.00    +0.019 A 
ATOM     22  C   UNL     1       9.827   4.964   6.462  0.00  0.00    +0.131 A 
ATOM     23  C   UNL     1       9.132   6.587   8.110  0.00  0.00    +0.011 A 
ATOM     26  C   UNL     1       9.930   3.994   7.459  0.00  0.00    +0.039 A 
ATOM     27  C   UNL     1       9.234   5.618   9.108  0.00  0.00    +0.001 A 
ATOM     29  C   UNL     1       9.633   4.321   8.782  0.00  0.00    +0.003 A 
ENDBRANCH  14  19
BRANCH   4  13
ATOM     13  C   UNL     1      13.823   6.609   3.206  0.00  0.00    +0.119 C 
BRANCH  13  18
ATOM      2  F   UNL     1      10.959   3.606  -0.584  0.00  0.00    -0.205 F 
ATOM     18  C   UNL     1      13.056   5.806   2.192  0.00  0.00    -0.033 A 
ATOM     20  C   UNL     1      11.776   6.204   1.829  0.00  0.00    +0.008 A 
ATOM     21  C   UNL     1      13.639   4.677   1.632  0.00  0.00    +0.008 A 
ATOM     24  C   UNL     1      11.066   5.458   0.888  0.00  0.00    +0.038 A 
ATOM     25  C   UNL     1      12.928   3.931   0.692  0.00  0.00    +0.038 A 
ATOM     28  C   UNL     1      11.641   4.321   0.320  0.00  0.00    +0.123 A 
ENDBRANCH  13  18
ENDBRANCH   4  13
TORSDOF 3
ENDMDL
MODEL 5
REMARK VINA RESULT:      -6.7     14.466     17.556
REMARK  Name = 9424537
REMARK  3 active torsions:
REMARK  status: ('A' for Active; 'I' for Inactive)
REMARK    1  A    between atoms: N_4  and  C_13
REMARK    2  A    between atoms: C_13  and  C_18
REMARK    3  A    between atoms: C_14  and  C_19
REMARK                            x       y       z     vdW  Elec       q    Type
REMARK                         _______ _______ _______ _____ _____    ______ ____
ROOT
ATOM      3  O   UNL     1      22.555  -6.496  23.594  0.00  0.00    -0.268 OA
ATOM      4  N   UNL     1      19.364  -5.161  27.184  0.00  0.00    -0.297 NA
ATOM      5  N   UNL     1      21.116  -4.910  24.541  0.00  0.00    -0.311 N 
ATOM      6  C   UNL     1      21.527  -3.942  26.881  0.00  0.00    +0.024 C 
ATOM      7  C   UNL     1      19.566  -3.238  25.597  0.00  0.00    +0.051 C 
ATOM      8  C   UNL     1      20.797  -2.724  26.339  0.00  0.00    +0.017 C 
ATOM      9  C   UNL     1      20.610  -4.737  27.832  0.00  0.00    +0.090 C 
ATOM     10  C   UNL     1      18.662  -4.020  26.580  0.00  0.00    +0.094 C 
ATOM     11  C   UNL     1      22.013  -4.783  25.699  0.00  0.00    +0.130 C 
ATOM     12  C   UNL     1      19.960  -4.115  24.405  0.00  0.00    +0.034 A 
ATOM     14  C   UNL     1      19.237  -4.162  23.256  0.00  0.00    +0.005 A 
ATOM     15  C   UNL     1      21.548  -5.790  23.533  0.00  0.00    +0.252 A 
ATOM     16  C   UNL     1      19.649  -5.064  22.197  0.00  0.00    +0.015 A 
ATOM     17  C   UNL     1      20.722  -5.847  22.306  0.00  0.00    +0.071 A 
ENDROOT
BRANCH  14  19
ATOM      1  F   UNL     1      16.628  -5.125  23.754  0.00  0.00    -0.205 F 
ATOM     19  C   UNL     1      18.029  -3.332  23.062  0.00  0.00    +0.019 A 
ATOM     22  C   UNL     1      16.769  -3.862  23.324  0.00  0.00    +0.131 A 
ATOM     23  C   UNL     1      18.163  -2.021  22.616  0.00  0.00    +0.011 A 
ATOM     26  C   UNL     1      15.633  -3.074  23.140  0.00  0.00    +0.039 A 
ATOM     27  C   UNL     1      17.028  -1.232  22.431  0.00  0.00    +0.001 A 
ATOM     29  C   UNL     1      15.763  -1.759  22.693  0.00  0.00    +0.003 A 
ENDBRANCH  14  19
BRANCH   4  13
ATOM     13  C   UNL     1      18.499  -5.869  28.125  0.00  0.00    +0.119 C 
BRANCH  13  18
ATOM      2  F   UNL     1      14.653  -8.941  25.413  0.00  0.00    -0.205 F 
ATOM     18  C   UNL     1      17.469  -6.691  27.400  0.00  0.00    -0.033 A 
ATOM     20  C   UNL     1      16.136  -6.607  27.778  0.00  0.00    +0.008 A 
ATOM     21  C   UNL     1      17.866  -7.523  26.362  0.00  0.00    +0.008 A 
ATOM     24  C   UNL     1      15.182  -7.370  27.104  0.00  0.00    +0.038 A 
ATOM     25  C   UNL     1      16.912  -8.286  25.689  0.00  0.00    +0.038 A 
ATOM     28  C   UNL     1      15.569  -8.210  26.061  0.00  0.00    +0.123 A 
ENDBRANCH  13  18
ENDBRANCH   4  13
TORSDOF 3
ENDMDL
MODEL 6
REMARK VINA RESULT:      -6.7      2.789      5.299
REMARK  Name = 9424537
REMARK  3 active torsions:
REMARK  status: ('A' for Active; 'I' for Inactive)
REMARK    1  A    between atoms: N_4  and  C_13
REMARK    2  A    between atoms: C_13  and  C_18
REMARK    3  A    between atoms: C_14  and  C_19
REMARK                            x       y       z     vdW  Elec       q    Type
REMARK                         _______ _______ _______ _____ _____    ______ ____
ROOT
ATOM      3  O   UNL     1      11.542  10.222  22.662  0.00  0.00    -0.268 OA
ATOM      4  N   UNL     1      14.097   7.624  19.261  0.00  0.00    -0.297 NA
ATOM      5  N   UNL     1      12.310   9.962  20.465  0.00  0.00    -0.311 N 
ATOM      6  C   UNL     1      11.629   7.951  19.027  0.00  0.00    +0.024 C 
ATOM      7  C   UNL     1      13.151   9.639  18.120  0.00  0.00    +0.051 C 
ATOM      8  C   UNL     1      11.838   8.906  17.863  0.00  0.00    +0.017 C 
ATOM      9  C   UNL     1      12.801   6.952  19.117  0.00  0.00    +0.090 C 
ATOM     10  C   UNL     1      14.307   8.612  18.194  0.00  0.00    +0.094 C 
ATOM     11  C   UNL     1      11.461   8.773  20.306  0.00  0.00    +0.130 C 
ATOM     12  C   UNL     1      13.082  10.473  19.402  0.00  0.00    +0.034 A 
ATOM     14  C   UNL     1      13.740  11.652  19.549  0.00  0.00    +0.005 A 
ATOM     15  C   UNL     1      12.211  10.615  21.707  0.00  0.00    +0.252 A 
ATOM     16  C   UNL     1      13.666  12.351  20.818  0.00  0.00    +0.015 A 
ATOM     17  C   UNL     1      12.966  11.880  21.851  0.00  0.00    +0.071 A 
ENDROOT
BRANCH  14  19
ATOM      1  F   UNL     1      16.536  11.301  19.359  0.00  0.00    -0.205 F 
ATOM     19  C   UNL     1      14.546  12.235  18.455  0.00  0.00    +0.019 A 
ATOM     22  C   UNL     1      15.921  12.028  18.415  0.00  0.00    +0.131 A 
ATOM     23  C   UNL     1      13.918  12.991  17.469  0.00  0.00    +0.011 A 
ATOM     26  C   UNL     1      16.676  12.579  17.380  0.00  0.00    +0.039 A 
ATOM     27  C   UNL     1      14.671  13.543  16.434  0.00  0.00    +0.001 A 
ATOM     29  C   UNL     1      16.050  13.338  16.389  0.00  0.00    +0.003 A 
ENDBRANCH  14  19
BRANCH   4  13
ATOM     13  C   UNL     1      15.189   6.652  19.295  0.00  0.00    +0.119 C 
BRANCH  13  18
ATOM      2  F   UNL     1      19.525   8.581  22.304  0.00  0.00    -0.205 F 
ATOM     18  C   UNL     1      16.349   7.169  20.100  0.00  0.00    -0.033 A 
ATOM     20  C   UNL     1      16.203   8.334  20.842  0.00  0.00    +0.008 A 
ATOM     21  C   UNL     1      17.551   6.474  20.091  0.00  0.00    +0.008 A 
ATOM     24  C   UNL     1      17.280   8.812  21.589  0.00  0.00    +0.038 A 
ATOM     25  C   UNL     1      18.627   6.952  20.838  0.00  0.00    +0.038 A 
ATOM     28  C   UNL     1      18.492   8.122  21.587  0.00  0.00    +0.123 A 
ENDBRANCH  13  18
ENDBRANCH   4  13
TORSDOF 3
ENDMDL
MODEL 7
REMARK VINA RESULT:      -6.6     26.770     28.878
REMARK  Name = 9424537
REMARK  3 active torsions:
REMARK  status: ('A' for Active; 'I' for Inactive)
REMARK    1  A    between atoms: N_4  and  C_13
REMARK    2  A    between atoms: C_13  and  C_18
REMARK    3  A    between atoms: C_14  and  C_19
REMARK                            x       y       z     vdW  Elec       q    Type
REMARK                         _______ _______ _______ _____ _____    ______ ____
ROOT
ATOM      3  O   UNL     1      -1.091 -12.291  13.593  0.00  0.00    -0.268 OA
ATOM      4  N   UNL     1      -6.045 -12.752  13.265  0.00  0.00    -0.297 NA
ATOM      5  N   UNL     1      -3.151 -12.804  14.584  0.00  0.00    -0.311 N 
ATOM      6  C   UNL     1      -4.607 -14.741  13.745  0.00  0.00    +0.024 C 
ATOM      7  C   UNL     1      -5.382 -13.350  15.602  0.00  0.00    +0.051 C 
ATOM      8  C   UNL     1      -5.103 -14.790  15.180  0.00  0.00    +0.017 C 
ATOM      9  C   UNL     1      -5.672 -14.103  12.830  0.00  0.00    +0.090 C 
ATOM     10  C   UNL     1      -6.461 -12.742  14.674  0.00  0.00    +0.094 C 
ATOM     11  C   UNL     1      -3.279 -13.982  13.715  0.00  0.00    +0.130 C 
ATOM     12  C   UNL     1      -4.105 -12.505  15.577  0.00  0.00    +0.034 A 
ATOM     14  C   UNL     1      -3.877 -11.490  16.451  0.00  0.00    +0.005 A 
ATOM     15  C   UNL     1      -1.963 -12.066  14.432  0.00  0.00    +0.252 A 
ATOM     16  C   UNL     1      -2.666 -10.703  16.322  0.00  0.00    +0.015 A 
ATOM     17  C   UNL     1      -1.757 -10.944  15.376  0.00  0.00    +0.071 A 
ENDROOT
BRANCH  14  19
ATOM      1  F   UNL     1      -6.021  -9.692  16.064  0.00  0.00    -0.205 F 
ATOM     19  C   UNL     1      -4.841 -11.154  17.521  0.00  0.00    +0.019 A 
ATOM     22  C   UNL     1      -5.877 -10.260  17.270  0.00  0.00    +0.131 A 
ATOM     23  C   UNL     1      -4.701 -11.737  18.777  0.00  0.00    +0.011 A 
ATOM     26  C   UNL     1      -6.783  -9.947  18.283  0.00  0.00    +0.039 A 
ATOM     27  C   UNL     1      -5.606 -11.425  19.791  0.00  0.00    +0.001 A 
ATOM     29  C   UNL     1      -6.647 -10.529  19.544  0.00  0.00    +0.003 A 
ENDBRANCH  14  19
BRANCH   4  13
ATOM     13  C   UNL     1      -7.088 -12.196  12.407  0.00  0.00    +0.119 C 
BRANCH  13  18
ATOM      2  F   UNL     1      -5.287  -7.579   9.757  0.00  0.00    -0.205 F 
ATOM     18  C   UNL     1      -6.605 -10.960  11.699  0.00  0.00    -0.033 A 
ATOM     20  C   UNL     1      -5.308 -10.513  11.908  0.00  0.00    +0.008 A 
ATOM     21  C   UNL     1      -7.465 -10.283  10.844  0.00  0.00    +0.008 A 
ATOM     24  C   UNL     1      -4.862  -9.367  11.250  0.00  0.00    +0.038 A 
ATOM     25  C   UNL     1      -7.019  -9.137  10.186  0.00  0.00    +0.038 A 
ATOM     28  C   UNL     1      -5.716  -8.678  10.390  0.00  0.00    +0.123 A 
ENDBRANCH  13  18
ENDBRANCH   4  13
TORSDOF 3
ENDMDL
MODEL 8
REMARK VINA RESULT:      -6.6     13.789     16.580
REMARK  Name = 9424537
REMARK  3 active torsions:
REMARK  status: ('A' for Active; 'I' for Inactive)
REMARK    1  A    between atoms: N_4  and  C_13
REMARK    2  A    between atoms: C_13  and  C_18
REMARK    3  A    between atoms: C_14  and  C_19
REMARK                            x       y       z     vdW  Elec       q    Type
REMARK                         _______ _______ _______ _____ _____    ______ ____
ROOT
ATOM      3  O   UNL     1      19.674  -5.382  21.394  0.00  0.00    -0.268 OA
ATOM      4  N   UNL     1      18.599  -1.815  24.706  0.00  0.00    -0.297 NA
ATOM      5  N   UNL     1      18.247  -4.490  23.022  0.00  0.00    -0.311 N 
ATOM      6  C   UNL     1      17.123  -2.203  22.725  0.00  0.00    +0.024 C 
ATOM      7  C   UNL     1      16.744  -3.491  24.770  0.00  0.00    +0.051 C 
ATOM      8  C   UNL     1      16.039  -2.791  23.612  0.00  0.00    +0.017 C 
ATOM      9  C   UNL     1      17.985  -1.204  23.522  0.00  0.00    +0.090 C 
ATOM     10  C   UNL     1      17.589  -2.461  25.556  0.00  0.00    +0.094 C 
ATOM     11  C   UNL     1      17.949  -3.352  22.141  0.00  0.00    +0.130 C 
ATOM     12  C   UNL     1      17.618  -4.646  24.274  0.00  0.00    +0.034 A 
ATOM     14  C   UNL     1      17.814  -5.782  24.992  0.00  0.00    +0.005 A 
ATOM     15  C   UNL     1      19.111  -5.461  22.485  0.00  0.00    +0.252 A 
ATOM     16  C   UNL     1      18.704  -6.804  24.473  0.00  0.00    +0.015 A 
ATOM     17  C   UNL     1      19.334  -6.673  23.306  0.00  0.00    +0.071 A 
ENDROOT
BRANCH  14  19
ATOM      1  F   UNL     1      18.940  -4.894  27.426  0.00  0.00    -0.205 F 
ATOM     19  C   UNL     1      17.160  -5.998  26.301  0.00  0.00    +0.019 A 
ATOM     22  C   UNL     1      17.764  -5.538  27.467  0.00  0.00    +0.131 A 
ATOM     23  C   UNL     1      15.939  -6.665  26.354  0.00  0.00    +0.011 A 
ATOM     26  C   UNL     1      17.141  -5.744  28.698  0.00  0.00    +0.039 A 
ATOM     27  C   UNL     1      15.316  -6.871  27.585  0.00  0.00    +0.001 A 
ATOM     29  C   UNL     1      15.917  -6.411  28.757  0.00  0.00    +0.003 A 
ENDBRANCH  14  19
BRANCH   4  13
ATOM     13  C   UNL     1      19.368  -0.830  25.464  0.00  0.00    +0.119 C 
BRANCH  13  18
ATOM      2  F   UNL     1      24.733  -2.420  25.981  0.00  0.00    -0.205 F 
ATOM     18  C   UNL     1      20.804  -1.254  25.601  0.00  0.00    -0.033 A 
ATOM     20  C   UNL     1      21.809  -0.299  25.546  0.00  0.00    +0.008 A 
ATOM     21  C   UNL     1      21.105  -2.598  25.783  0.00  0.00    +0.008 A 
ATOM     24  C   UNL     1      23.141  -0.694  25.674  0.00  0.00    +0.038 A 
ATOM     25  C   UNL     1      22.436  -2.993  25.911  0.00  0.00    +0.038 A 
ATOM     28  C   UNL     1      23.455  -2.040  25.856  0.00  0.00    +0.123 A 
ENDBRANCH  13  18
ENDBRANCH   4  13
TORSDOF 3
ENDMDL
MODEL 9
REMARK VINA RESULT:      -6.5     14.246     16.805
REMARK  Name = 9424537
REMARK  3 active torsions:
REMARK  status: ('A' for Active; 'I' for Inactive)
REMARK    1  A    between atoms: N_4  and  C_13
REMARK    2  A    between atoms: C_13  and  C_18
REMARK    3  A    between atoms: C_14  and  C_19
REMARK                            x       y       z     vdW  Elec       q    Type
REMARK                         _______ _______ _______ _____ _____    ______ ____
ROOT
ATOM      3  O   UNL     1      12.849   9.767   6.301  0.00  0.00    -0.268 OA
ATOM      4  N   UNL     1       9.819   5.919   5.371  0.00  0.00    -0.297 NA
ATOM      5  N   UNL     1      10.689   8.869   6.181  0.00  0.00    -0.311 N 
ATOM      6  C   UNL     1       9.960   6.907   7.664  0.00  0.00    +0.024 C 
ATOM      7  C   UNL     1       8.392   7.860   6.045  0.00  0.00    +0.051 C 
ATOM      8  C   UNL     1       8.574   7.512   7.519  0.00  0.00    +0.017 C 
ATOM      9  C   UNL     1      10.089   5.646   6.787  0.00  0.00    +0.090 C 
ATOM     10  C   UNL     1       8.516   6.573   5.194  0.00  0.00    +0.094 C 
ATOM     11  C   UNL     1      10.996   7.976   7.308  0.00  0.00    +0.130 C 
ATOM     12  C   UNL     1       9.410   8.911   5.592  0.00  0.00    +0.034 A 
ATOM     14  C   UNL     1       9.129   9.849   4.650  0.00  0.00    +0.005 A 
ATOM     15  C   UNL     1      11.720   9.751   5.811  0.00  0.00    +0.252 A 
ATOM     16  C   UNL     1      10.170  10.772   4.238  0.00  0.00    +0.015 A 
ATOM     17  C   UNL     1      11.397  10.740   4.757  0.00  0.00    +0.071 A 
ENDROOT
BRANCH  14  19
ATOM      1  F   UNL     1       8.532   8.657   2.159  0.00  0.00    -0.205 F 
ATOM     19  C   UNL     1       7.795   9.943   4.019  0.00  0.00    +0.019 A 
ATOM     22  C   UNL     1       7.561   9.335   2.789  0.00  0.00    +0.131 A 
ATOM     23  C   UNL     1       6.780  10.644   4.663  0.00  0.00    +0.011 A 
ATOM     26  C   UNL     1       6.301   9.426   2.199  0.00  0.00    +0.039 A 
ATOM     27  C   UNL     1       5.520  10.736   4.074  0.00  0.00    +0.001 A 
ATOM     29  C   UNL     1       5.280  10.127   2.842  0.00  0.00    +0.003 A 
ENDBRANCH  14  19
BRANCH   4  13
ATOM     13  C   UNL     1       9.903   4.695   4.577  0.00  0.00    +0.119 C 
BRANCH  13  18
ATOM      2  F   UNL     1      13.854   5.123   0.603  0.00  0.00    -0.205 F 
ATOM     18  C   UNL     1      10.960   4.811   3.513  0.00  0.00    -0.033 A 
ATOM     20  C   UNL     1      11.653   6.004   3.364  0.00  0.00    +0.008 A 
ATOM     21  C   UNL     1      11.229   3.721   2.696  0.00  0.00    +0.008 A 
ATOM     24  C   UNL     1      12.634   6.109   2.377  0.00  0.00    +0.038 A 
ATOM     25  C   UNL     1      12.209   3.827   1.710  0.00  0.00    +0.038 A 
ATOM     28  C   UNL     1      12.912   5.022   1.550  0.00  0.00    +0.123 A 
ENDBRANCH  13  18
ENDBRANCH   4  13
TORSDOF 3
ENDMDL
MODEL 10
REMARK VINA RESULT:      -6.5     28.603     31.453
REMARK  Name = 9424537
REMARK  3 active torsions:
REMARK  status: ('A' for Active; 'I' for Inactive)
REMARK    1  A    between atoms: N_4  and  C_13
REMARK    2  A    between atoms: C_13  and  C_18
REMARK    3  A    between atoms: C_14  and  C_19
REMARK                            x       y       z     vdW  Elec       q    Type
REMARK                         _______ _______ _______ _____ _____    ______ ____
ROOT
ATOM      3  O   UNL     1     -18.235   7.183  28.884  0.00  0.00    -0.268 OA
ATOM      4  N   UNL     1     -15.424   6.159  32.872  0.00  0.00    -0.297 NA
ATOM      5  N   UNL     1     -17.466   5.657  30.486  0.00  0.00    -0.311 N 
ATOM      6  C   UNL     1     -17.917   5.988  32.989  0.00  0.00    +0.024 C 
ATOM      7  C   UNL     1     -16.620   4.058  32.228  0.00  0.00    +0.051 C 
ATOM      8  C   UNL     1     -17.838   4.472  33.048  0.00  0.00    +0.017 C 
ATOM      9  C   UNL     1     -16.632   6.615  33.569  0.00  0.00    +0.090 C 
ATOM     10  C   UNL     1     -15.348   4.692  32.842  0.00  0.00    +0.094 C 
ATOM     11  C   UNL     1     -18.168   6.406  31.539  0.00  0.00    +0.130 C 
ATOM     12  C   UNL     1     -16.774   4.461  30.759  0.00  0.00    +0.034 A 
ATOM     14  C   UNL     1     -16.261   3.727  29.737  0.00  0.00    +0.005 A 
ATOM     15  C   UNL     1     -17.629   6.153  29.180  0.00  0.00    +0.252 A 
ATOM     16  C   UNL     1     -16.404   4.210  28.377  0.00  0.00    +0.015 A 
ATOM     17  C   UNL     1     -17.030   5.352  28.089  0.00  0.00    +0.071 A 
ENDROOT
BRANCH  14  19
ATOM      1  F   UNL     1     -13.503   3.620  30.340  0.00  0.00    -0.205 F 
ATOM     19  C   UNL     1     -15.544   2.455  29.976  0.00  0.00    +0.019 A 
ATOM     22  C   UNL     1     -14.184   2.466  30.268  0.00  0.00    +0.131 A 
ATOM     23  C   UNL     1     -16.240   1.252  29.903  0.00  0.00    +0.011 A 
ATOM     26  C   UNL     1     -13.514   1.264  30.493  0.00  0.00    +0.039 A 
ATOM     27  C   UNL     1     -15.571   0.050  30.128  0.00  0.00    +0.001 A 
ATOM     29  C   UNL     1     -14.207   0.056  30.422  0.00  0.00    +0.003 A 
ENDBRANCH  14  19
BRANCH   4  13
ATOM     13  C   UNL     1     -14.224   6.732  33.476  0.00  0.00    +0.119 C 
BRANCH  13  18
ATOM      2  F   UNL     1     -11.944  10.639  30.140  0.00  0.00    -0.205 F 
ATOM     18  C   UNL     1     -13.615   7.778  32.582  0.00  0.00    -0.033 A 
ATOM     20  C   UNL     1     -14.441   8.608  31.837  0.00  0.00    +0.008 A 
ATOM     21  C   UNL     1     -12.233   7.899  32.516  0.00  0.00    +0.008 A 
ATOM     24  C   UNL     1     -13.874   9.577  31.010  0.00  0.00    +0.038 A 
ATOM     25  C   UNL     1     -11.667   8.868  31.688  0.00  0.00    +0.038 A 
ATOM     28  C   UNL     1     -12.488   9.708  30.934  0.00  0.00    +0.123 A 
ENDBRANCH  13  18
ENDBRANCH   4  13
TORSDOF 3
ENDMDL
