MODEL 1
REMARK VINA RESULT:      -6.9      0.000      0.000
REMARK  Name = 25317500
REMARK  6 active torsions:
REMARK  status: ('A' for Active; 'I' for Inactive)
REMARK    1  A    between atoms: O_3  and  C_10
REMARK    2  A    between atoms: N_5  and  C_9
REMARK    3  A    between atoms: N_6  and  C_11
REMARK    4  A    between atoms: N_7  and  C_20
REMARK    5  A    between atoms: N_8  and  C_23
REMARK    6  A    between atoms: C_23  and  C_27
REMARK                            x       y       z     vdW  Elec       q    Type
REMARK                         _______ _______ _______ _____ _____    ______ ____
ROOT
ATOM      1  O   UNL     1      12.040   7.346  19.310  0.00  0.00    -0.342 OA
ATOM      2  O   UNL     1      11.866   7.971  17.082  0.00  0.00    -0.347 OA
ATOM      9  C   UNL     1      13.902   8.486  18.283  0.00  0.00    +0.144 C 
ATOM     10  C   UNL     1      13.328   9.854  18.714  0.00  0.00    +0.159 C 
ATOM     11  C   UNL     1      12.062   9.741  19.593  0.00  0.00    +0.136 C 
ATOM     12  C   UNL     1      12.768   7.463  18.080  0.00  0.00    +0.270 C 
ATOM     13  C   UNL     1      11.202   8.504  19.262  0.00  0.00    +0.170 C 
ATOM     14  C   UNL     1      10.730   8.445  17.822  0.00  0.00    +0.196 C 
ENDROOT
BRANCH  11   6
ATOM      4  O   UNL     1      11.865  11.922  21.472  0.00  0.00    -0.253 OA
ATOM      6  N   UNL     1      12.430   9.722  20.993  0.00  0.00    -0.291 N 
ATOM      8  N   UNL     1      12.723  10.533  23.120  0.00  0.00    -0.296 N 
ATOM     19  C   UNL     1      12.299  10.826  21.827  0.00  0.00    +0.300 C 
ATOM     29  H   UNL     1      12.872   8.887  21.364  0.00  0.00    +0.151 HD
ATOM     31  H   UNL     1      13.047   9.593  23.326  0.00  0.00    +0.151 HD
BRANCH   8  23
ATOM     23  C   UNL     1      12.697  11.502  24.192  0.00  0.00    +0.132 C 
BRANCH  23  27
ATOM     27  C   UNL     1      11.352  11.475  24.839  0.00  0.00    -0.016 C 
ATOM     28  C   UNL     1      10.740  12.559  25.331  0.00  0.00    +0.005 C 
ENDBRANCH  23  27
ENDBRANCH   8  23
ENDBRANCH  11   6
BRANCH   9   5
ATOM      5  N   UNL     1      14.839   7.991  19.294  0.00  0.00    -0.290 NA
ATOM      7  N   UNL     1      17.402   7.384  20.397  0.00  0.00    -0.327 N 
ATOM     15  C   UNL     1      15.729   9.068  19.742  0.00  0.00    +0.104 C 
ATOM     16  C   UNL     1      15.632   6.876  18.759  0.00  0.00    +0.104 C 
ATOM     17  C   UNL     1      16.677   8.578  20.840  0.00  0.00    +0.120 C 
ATOM     18  C   UNL     1      16.576   6.314  19.824  0.00  0.00    +0.120 C 
BRANCH   7  20
ATOM     20  C   UNL     1      18.597   7.023  21.030  0.00  0.00    +0.030 A 
ATOM     21  C   UNL     1      19.026   7.720  22.159  0.00  0.00    +0.023 A 
ATOM     22  C   UNL     1      19.358   5.965  20.533  0.00  0.00    +0.023 A 
ATOM     24  C   UNL     1      20.216   7.359  22.793  0.00  0.00    +0.002 A 
ATOM     25  C   UNL     1      20.547   5.603  21.166  0.00  0.00    +0.002 A 
ATOM     26  C   UNL     1      20.976   6.300  22.295  0.00  0.00    +0.000 A 
ENDBRANCH   7  20
ENDBRANCH   9   5
BRANCH  10   3
ATOM      3  O   UNL     1      12.998  10.583  17.524  0.00  0.00    -0.388 OA
ATOM     30  H   UNL     1      13.800  10.624  16.974  0.00  0.00    +0.210 HD
ENDBRANCH  10   3
TORSDOF 6
ENDMDL
MODEL 2
REMARK VINA RESULT:      -6.9      1.958      7.351
REMARK  Name = 25317500
REMARK  6 active torsions:
REMARK  status: ('A' for Active; 'I' for Inactive)
REMARK    1  A    between atoms: O_3  and  C_10
REMARK    2  A    between atoms: N_5  and  C_9
REMARK    3  A    between atoms: N_6  and  C_11
REMARK    4  A    between atoms: N_7  and  C_20
REMARK    5  A    between atoms: N_8  and  C_23
REMARK    6  A    between atoms: C_23  and  C_27
REMARK                            x       y       z     vdW  Elec       q    Type
REMARK                         _______ _______ _______ _____ _____    ______ ____
ROOT
ATOM      1  O   UNL     1      13.156   9.161  18.905  0.00  0.00    -0.342 OA
ATOM      2  O   UNL     1      11.584   7.675  18.067  0.00  0.00    -0.347 OA
ATOM      9  C   UNL     1      11.567   8.181  20.432  0.00  0.00    +0.144 C 
ATOM     10  C   UNL     1      12.531   7.007  20.713  0.00  0.00    +0.159 C 
ATOM     11  C   UNL     1      13.904   7.160  20.023  0.00  0.00    +0.136 C 
ATOM     12  C   UNL     1      11.791   8.737  19.014  0.00  0.00    +0.270 C 
ATOM     13  C   UNL     1      13.829   7.918  18.681  0.00  0.00    +0.170 C 
ATOM     14  C   UNL     1      12.904   7.282  17.661  0.00  0.00    +0.196 C 
ENDROOT
BRANCH  11   6
ATOM      4  O   UNL     1      16.785   7.006  19.950  0.00  0.00    -0.253 OA
ATOM      6  N   UNL     1      14.836   7.823  20.910  0.00  0.00    -0.291 N 
ATOM      8  N   UNL     1      16.871   8.435  21.776  0.00  0.00    -0.296 N 
ATOM     19  C   UNL     1      16.215   7.691  20.799  0.00  0.00    +0.300 C 
ATOM     29  H   UNL     1      14.462   8.349  21.694  0.00  0.00    +0.151 HD
ATOM     31  H   UNL     1      16.317   8.988  22.423  0.00  0.00    +0.151 HD
BRANCH   8  23
ATOM     23  C   UNL     1      18.311   8.478  21.893  0.00  0.00    +0.132 C 
BRANCH  23  27
ATOM     27  C   UNL     1      18.782   9.862  21.593  0.00  0.00    -0.016 C 
ATOM     28  C   UNL     1      18.020  10.799  21.016  0.00  0.00    +0.005 C 
ENDBRANCH  23  27
ENDBRANCH   8  23
ENDBRANCH  11   6
BRANCH   9   5
ATOM      5  N   UNL     1      11.768   9.245  21.419  0.00  0.00    -0.290 NA
ATOM      7  N   UNL     1      11.081  11.581  22.910  0.00  0.00    -0.327 N 
ATOM     15  C   UNL     1      10.736   9.185  22.459  0.00  0.00    +0.104 C 
ATOM     16  C   UNL     1      11.747  10.561  20.767  0.00  0.00    +0.104 C 
ATOM     17  C   UNL     1      10.967  10.257  23.527  0.00  0.00    +0.120 C 
ATOM     18  C   UNL     1      12.012  11.678  21.779  0.00  0.00    +0.120 C 
BRANCH   7  20
ATOM     20  C   UNL     1      10.864  12.728  23.682  0.00  0.00    +0.030 A 
ATOM     21  C   UNL     1      10.651  13.958  23.060  0.00  0.00    +0.023 A 
ATOM     22  C   UNL     1      10.857  12.641  25.074  0.00  0.00    +0.023 A 
ATOM     24  C   UNL     1      10.431  15.102  23.829  0.00  0.00    +0.002 A 
ATOM     25  C   UNL     1      10.637  13.783  25.844  0.00  0.00    +0.002 A 
ATOM     26  C   UNL     1      10.424  15.013  25.222  0.00  0.00    +0.000 A 
ENDBRANCH   7  20
ENDBRANCH   9   5
BRANCH  10   3
ATOM      3  O   UNL     1      11.907   5.807  20.236  0.00  0.00    -0.388 OA
ATOM     30  H   UNL     1      11.249   6.065  19.567  0.00  0.00    +0.210 HD
ENDBRANCH  10   3
TORSDOF 6
ENDMDL
MODEL 3
REMARK VINA RESULT:      -6.5      1.799      2.257
REMARK  Name = 25317500
REMARK  6 active torsions:
REMARK  status: ('A' for Active; 'I' for Inactive)
REMARK    1  A    between atoms: O_3  and  C_10
REMARK    2  A    between atoms: N_5  and  C_9
REMARK    3  A    between atoms: N_6  and  C_11
REMARK    4  A    between atoms: N_7  and  C_20
REMARK    5  A    between atoms: N_8  and  C_23
REMARK    6  A    between atoms: C_23  and  C_27
REMARK                            x       y       z     vdW  Elec       q    Type
REMARK                         _______ _______ _______ _____ _____    ______ ____
ROOT
ATOM      1  O   UNL     1      12.603   7.229  21.724  0.00  0.00    -0.342 OA
ATOM      2  O   UNL     1      11.571   7.561  19.673  0.00  0.00    -0.347 OA
ATOM      9  C   UNL     1      13.890   8.197  19.929  0.00  0.00    +0.144 C 
ATOM     10  C   UNL     1      13.474   9.618  20.370  0.00  0.00    +0.159 C 
ATOM     11  C   UNL     1      12.644   9.639  21.673  0.00  0.00    +0.136 C 
ATOM     12  C   UNL     1      12.803   7.174  20.305  0.00  0.00    +0.270 C 
ATOM     13  C   UNL     1      11.768   8.383  21.854  0.00  0.00    +0.170 C 
ATOM     14  C   UNL     1      10.785   8.144  20.724  0.00  0.00    +0.196 C 
ENDROOT
BRANCH  11   6
ATOM      4  O   UNL     1      13.493  12.118  22.882  0.00  0.00    -0.253 OA
ATOM      6  N   UNL     1      13.518   9.798  22.816  0.00  0.00    -0.291 N 
ATOM      8  N   UNL     1      14.720  10.901  24.430  0.00  0.00    -0.296 N 
ATOM     19  C   UNL     1      13.874  11.038  23.333  0.00  0.00    +0.300 C 
ATOM     29  H   UNL     1      13.948   8.968  23.212  0.00  0.00    +0.151 HD
ATOM     31  H   UNL     1      14.964   9.967  24.745  0.00  0.00    +0.151 HD
BRANCH   8  23
ATOM     23  C   UNL     1      15.245  12.032  25.160  0.00  0.00    +0.132 C 
BRANCH  23  27
ATOM     27  C   UNL     1      14.304  12.375  26.267  0.00  0.00    -0.016 C 
ATOM     28  C   UNL     1      14.696  12.826  27.465  0.00  0.00    +0.005 C 
ENDBRANCH  23  27
ENDBRANCH   8  23
ENDBRANCH  11   6
BRANCH   9   5
ATOM      5  N   UNL     1      15.160   7.825  20.558  0.00  0.00    -0.290 NA
ATOM      7  N   UNL     1      17.957   7.259  20.648  0.00  0.00    -0.327 N 
ATOM     15  C   UNL     1      16.141   8.907  20.417  0.00  0.00    +0.104 C 
ATOM     16  C   UNL     1      15.686   6.590  19.962  0.00  0.00    +0.104 C 
ATOM     17  C   UNL     1      17.454   8.553  21.120  0.00  0.00    +0.120 C 
ATOM     18  C   UNL     1      16.984   6.160  20.650  0.00  0.00    +0.120 C 
BRANCH   7  20
ATOM     20  C   UNL     1      19.310   6.940  20.811  0.00  0.00    +0.030 A 
ATOM     21  C   UNL     1      19.766   5.658  20.502  0.00  0.00    +0.023 A 
ATOM     22  C   UNL     1      20.203   7.903  21.278  0.00  0.00    +0.023 A 
ATOM     24  C   UNL     1      21.115   5.339  20.661  0.00  0.00    +0.002 A 
ATOM     25  C   UNL     1      21.552   7.585  21.436  0.00  0.00    +0.002 A 
ATOM     26  C   UNL     1      22.008   6.304  21.128  0.00  0.00    +0.000 A 
ENDBRANCH   7  20
ENDBRANCH   9   5
BRANCH  10   3
ATOM      3  O   UNL     1      12.690  10.190  19.315  0.00  0.00    -0.388 OA
ATOM     30  H   UNL     1      12.559   9.502  18.640  0.00  0.00    +0.210 HD
ENDBRANCH  10   3
TORSDOF 6
ENDMDL
MODEL 4
REMARK VINA RESULT:      -6.4     27.951     29.316
REMARK  Name = 25317500
REMARK  6 active torsions:
REMARK  status: ('A' for Active; 'I' for Inactive)
REMARK    1  A    between atoms: O_3  and  C_10
REMARK    2  A    between atoms: N_5  and  C_9
REMARK    3  A    between atoms: N_6  and  C_11
REMARK    4  A    between atoms: N_7  and  C_20
REMARK    5  A    between atoms: N_8  and  C_23
REMARK    6  A    between atoms: C_23  and  C_27
REMARK                            x       y       z     vdW  Elec       q    Type
REMARK                         _______ _______ _______ _____ _____    ______ ____
ROOT
ATOM      1  O   UNL     1      -5.277 -10.288  18.529  0.00  0.00    -0.342 OA
ATOM      2  O   UNL     1      -5.371 -12.529  19.125  0.00  0.00    -0.347 OA
ATOM      9  C   UNL     1      -5.951 -11.898  16.864  0.00  0.00    +0.144 C 
ATOM     10  C   UNL     1      -7.432 -11.726  17.268  0.00  0.00    +0.159 C 
ATOM     11  C   UNL     1      -7.656 -10.626  18.330  0.00  0.00    +0.136 C 
ATOM     12  C   UNL     1      -5.027 -11.622  18.064  0.00  0.00    +0.270 C 
ATOM     13  C   UNL     1      -6.468 -10.469  19.301  0.00  0.00    +0.170 C 
ATOM     14  C   UNL     1      -6.116 -11.734  20.061  0.00  0.00    +0.196 C 
ENDROOT
BRANCH  11   6
ATOM      4  O   UNL     1      -9.942  -9.972  16.695  0.00  0.00    -0.253 OA
ATOM      6  N   UNL     1      -7.933  -9.360  17.685  0.00  0.00    -0.291 N 
ATOM      8  N   UNL     1      -9.084  -7.835  16.413  0.00  0.00    -0.296 N 
ATOM     19  C   UNL     1      -9.066  -9.135  16.912  0.00  0.00    +0.300 C 
ATOM     29  H   UNL     1      -7.231  -8.629  17.738  0.00  0.00    +0.151 HD
ATOM     31  H   UNL     1      -8.326  -7.206  16.662  0.00  0.00    +0.151 HD
BRANCH   8  23
ATOM     23  C   UNL     1     -10.148  -7.332  15.576  0.00  0.00    +0.132 C 
BRANCH  23  27
ATOM     27  C   UNL     1     -11.178  -6.680  16.438  0.00  0.00    -0.016 C 
ATOM     28  C   UNL     1     -12.353  -6.230  15.983  0.00  0.00    +0.005 C 
ENDBRANCH  23  27
ENDBRANCH   8  23
ENDBRANCH  11   6
BRANCH   9   5
ATOM      5  N   UNL     1      -5.620 -10.988  15.764  0.00  0.00    -0.290 NA
ATOM      7  N   UNL     1      -5.081 -10.260  13.056  0.00  0.00    -0.327 N 
ATOM     15  C   UNL     1      -6.701 -10.964  14.772  0.00  0.00    +0.104 C 
ATOM     16  C   UNL     1      -4.362 -11.392  15.123  0.00  0.00    +0.104 C 
ATOM     17  C   UNL     1      -6.393  -9.974  13.646  0.00  0.00    +0.120 C 
ATOM     18  C   UNL     1      -3.976 -10.417  14.010  0.00  0.00    +0.120 C 
BRANCH   7  20
ATOM     20  C   UNL     1      -4.780  -9.789  11.773  0.00  0.00    +0.030 A 
ATOM     21  C   UNL     1      -5.756  -9.132  11.024  0.00  0.00    +0.023 A 
ATOM     22  C   UNL     1      -3.503  -9.975  11.244  0.00  0.00    +0.023 A 
ATOM     24  C   UNL     1      -5.456  -8.660   9.746  0.00  0.00    +0.002 A 
ATOM     25  C   UNL     1      -3.202  -9.502   9.966  0.00  0.00    +0.002 A 
ATOM     26  C   UNL     1      -4.178  -8.845   9.218  0.00  0.00    +0.000 A 
ENDBRANCH   7  20
ENDBRANCH   9   5
BRANCH  10   3
ATOM      3  O   UNL     1      -7.888 -12.978  17.799  0.00  0.00    -0.388 OA
ATOM     30  H   UNL     1      -7.323 -13.196  18.561  0.00  0.00    +0.210 HD
ENDBRANCH  10   3
TORSDOF 6
ENDMDL
MODEL 5
REMARK VINA RESULT:      -6.3     27.210     30.011
REMARK  Name = 25317500
REMARK  6 active torsions:
REMARK  status: ('A' for Active; 'I' for Inactive)
REMARK    1  A    between atoms: O_3  and  C_10
REMARK    2  A    between atoms: N_5  and  C_9
REMARK    3  A    between atoms: N_6  and  C_11
REMARK    4  A    between atoms: N_7  and  C_20
REMARK    5  A    between atoms: N_8  and  C_23
REMARK    6  A    between atoms: C_23  and  C_27
REMARK                            x       y       z     vdW  Elec       q    Type
REMARK                         _______ _______ _______ _____ _____    ______ ____
ROOT
ATOM      1  O   UNL     1      -8.852 -11.144  20.194  0.00  0.00    -0.342 OA
ATOM      2  O   UNL     1      -9.816 -13.254  20.144  0.00  0.00    -0.347 OA
ATOM      9  C   UNL     1      -8.675 -12.445  18.171  0.00  0.00    +0.144 C 
ATOM     10  C   UNL     1      -9.988 -11.830  17.637  0.00  0.00    +0.159 C 
ATOM     11  C   UNL     1     -10.569 -10.730  18.553  0.00  0.00    +0.136 C 
ATOM     12  C   UNL     1      -8.682 -12.483  19.710  0.00  0.00    +0.270 C 
ATOM     13  C   UNL     1     -10.263 -10.960  20.047  0.00  0.00    +0.170 C 
ATOM     14  C   UNL     1     -10.773 -12.281  20.588  0.00  0.00    +0.196 C 
ENDROOT
BRANCH  11   6
ATOM      4  O   UNL     1     -11.319  -9.246  16.194  0.00  0.00    -0.253 OA
ATOM      6  N   UNL     1     -10.075  -9.432  18.145  0.00  0.00    -0.291 N 
ATOM      8  N   UNL     1      -9.864  -7.558  16.836  0.00  0.00    -0.296 N 
ATOM     19  C   UNL     1     -10.496  -8.789  16.986  0.00  0.00    +0.300 C 
ATOM     29  H   UNL     1      -9.333  -9.006  18.691  0.00  0.00    +0.151 HD
ATOM     31  H   UNL     1      -9.212  -7.253  17.554  0.00  0.00    +0.151 HD
BRANCH   8  23
ATOM     23  C   UNL     1     -10.115  -6.680  15.717  0.00  0.00    +0.132 C 
BRANCH  23  27
ATOM     27  C   UNL     1     -11.371  -5.915  15.972  0.00  0.00    -0.016 C 
ATOM     28  C   UNL     1     -12.429  -5.925  15.151  0.00  0.00    +0.005 C 
ENDBRANCH  23  27
ENDBRANCH   8  23
ENDBRANCH  11   6
BRANCH   9   5
ATOM      5  N   UNL     1      -7.526 -11.667  17.700  0.00  0.00    -0.290 NA
ATOM      7  N   UNL     1      -5.092 -11.213  16.278  0.00  0.00    -0.327 N 
ATOM     15  C   UNL     1      -7.527 -11.584  16.235  0.00  0.00    +0.104 C 
ATOM     16  C   UNL     1      -6.271 -12.269  18.167  0.00  0.00    +0.104 C 
ATOM     17  C   UNL     1      -6.363 -10.726  15.733  0.00  0.00    +0.120 C 
ATOM     18  C   UNL     1      -5.066 -11.434  17.729  0.00  0.00    +0.120 C 
BRANCH   7  20
ATOM     20  C   UNL     1      -3.890 -10.880  15.643  0.00  0.00    +0.030 A 
ATOM     21  C   UNL     1      -2.736 -10.676  16.397  0.00  0.00    +0.023 A 
ATOM     22  C   UNL     1      -3.847 -10.755  14.254  0.00  0.00    +0.023 A 
ATOM     24  C   UNL     1      -1.536 -10.346  15.765  0.00  0.00    +0.002 A 
ATOM     25  C   UNL     1      -2.648 -10.426  13.621  0.00  0.00    +0.002 A 
ATOM     26  C   UNL     1      -1.493 -10.222  14.376  0.00  0.00    +0.000 A 
ENDBRANCH   7  20
ENDBRANCH   9   5
BRANCH  10   3
ATOM      3  O   UNL     1     -10.950 -12.888  17.522  0.00  0.00    -0.388 OA
ATOM     30  H   UNL     1     -11.813 -12.531  17.795  0.00  0.00    +0.210 HD
ENDBRANCH  10   3
TORSDOF 6
ENDMDL
MODEL 6
REMARK VINA RESULT:      -6.1     14.074     16.620
REMARK  Name = 25317500
REMARK  6 active torsions:
REMARK  status: ('A' for Active; 'I' for Inactive)
REMARK    1  A    between atoms: O_3  and  C_10
REMARK    2  A    between atoms: N_5  and  C_9
REMARK    3  A    between atoms: N_6  and  C_11
REMARK    4  A    between atoms: N_7  and  C_20
REMARK    5  A    between atoms: N_8  and  C_23
REMARK    6  A    between atoms: C_23  and  C_27
REMARK                            x       y       z     vdW  Elec       q    Type
REMARK                         _______ _______ _______ _____ _____    ______ ____
ROOT
ATOM      1  O   UNL     1      12.377   4.308   2.448  0.00  0.00    -0.342 OA
ATOM      2  O   UNL     1      11.325   5.157   0.562  0.00  0.00    -0.347 OA
ATOM      9  C   UNL     1      12.121   6.698   2.248  0.00  0.00    +0.144 C 
ATOM     10  C   UNL     1      10.762   6.634   2.980  0.00  0.00    +0.159 C 
ATOM     11  C   UNL     1      10.410   5.222   3.500  0.00  0.00    +0.136 C 
ATOM     12  C   UNL     1      12.394   5.381   1.497  0.00  0.00    +0.270 C 
ATOM     13  C   UNL     1      10.973   4.091   2.615  0.00  0.00    +0.170 C 
ATOM     14  C   UNL     1      10.510   4.144   1.172  0.00  0.00    +0.196 C 
ENDROOT
BRANCH  11   6
ATOM      4  O   UNL     1       9.115   6.148   5.907  0.00  0.00    -0.253 OA
ATOM      6  N   UNL     1      10.879   5.062   4.860  0.00  0.00    -0.291 N 
ATOM      8  N   UNL     1      10.859   5.252   7.147  0.00  0.00    -0.296 N 
ATOM     19  C   UNL     1      10.185   5.543   5.964  0.00  0.00    +0.300 C 
ATOM     29  H   UNL     1      11.793   4.645   5.007  0.00  0.00    +0.151 HD
ATOM     31  H   UNL     1      11.729   4.729   7.098  0.00  0.00    +0.151 HD
BRANCH   8  23
ATOM     23  C   UNL     1      10.361   5.638   8.447  0.00  0.00    +0.132 C 
BRANCH  23  27
ATOM     27  C   UNL     1       9.533   4.526   9.000  0.00  0.00    -0.016 C 
ATOM     28  C   UNL     1       8.979   4.545  10.219  0.00  0.00    +0.005 C 
ENDBRANCH  23  27
ENDBRANCH   8  23
ENDBRANCH  11   6
BRANCH   9   5
ATOM      5  N   UNL     1      13.198   6.954   3.206  0.00  0.00    -0.290 NA
ATOM      7  N   UNL     1      15.263   8.475   4.463  0.00  0.00    -0.327 N 
ATOM     15  C   UNL     1      12.862   8.094   4.066  0.00  0.00    +0.104 C 
ATOM     16  C   UNL     1      14.462   7.212   2.504  0.00  0.00    +0.104 C 
ATOM     17  C   UNL     1      13.955   8.337   5.110  0.00  0.00    +0.120 C 
ATOM     18  C   UNL     1      15.607   7.425   3.496  0.00  0.00    +0.120 C 
BRANCH   7  20
ATOM     20  C   UNL     1      16.309   9.114   5.139  0.00  0.00    +0.030 A 
ATOM     21  C   UNL     1      17.577   8.535   5.168  0.00  0.00    +0.023 A 
ATOM     22  C   UNL     1      16.083  10.331   5.781  0.00  0.00    +0.023 A 
ATOM     24  C   UNL     1      18.621   9.172   5.839  0.00  0.00    +0.002 A 
ATOM     25  C   UNL     1      17.126  10.970   6.452  0.00  0.00    +0.002 A 
ATOM     26  C   UNL     1      18.395  10.391   6.481  0.00  0.00    +0.000 A 
ENDBRANCH   7  20
ENDBRANCH   9   5
BRANCH  10   3
ATOM      3  O   UNL     1       9.748   7.049   2.054  0.00  0.00    -0.388 OA
ATOM     30  H   UNL     1       9.638   8.011   2.153  0.00  0.00    +0.210 HD
ENDBRANCH  10   3
TORSDOF 6
ENDMDL
MODEL 7
REMARK VINA RESULT:      -6.0     14.263     16.371
REMARK  Name = 25317500
REMARK  6 active torsions:
REMARK  status: ('A' for Active; 'I' for Inactive)
REMARK    1  A    between atoms: O_3  and  C_10
REMARK    2  A    between atoms: N_5  and  C_9
REMARK    3  A    between atoms: N_6  and  C_11
REMARK    4  A    between atoms: N_7  and  C_20
REMARK    5  A    between atoms: N_8  and  C_23
REMARK    6  A    between atoms: C_23  and  C_27
REMARK                            x       y       z     vdW  Elec       q    Type
REMARK                         _______ _______ _______ _____ _____    ______ ____
ROOT
ATOM      1  O   UNL     1      10.092   8.271   5.143  0.00  0.00    -0.342 OA
ATOM      2  O   UNL     1       9.001   8.041   7.178  0.00  0.00    -0.347 OA
ATOM      9  C   UNL     1      11.404   7.781   7.107  0.00  0.00    +0.144 C 
ATOM     10  C   UNL     1      11.255   6.264   6.854  0.00  0.00    +0.159 C 
ATOM     11  C   UNL     1      10.523   5.931   5.535  0.00  0.00    +0.136 C 
ATOM     12  C   UNL     1      10.191   8.545   6.548  0.00  0.00    +0.270 C 
ATOM     13  C   UNL     1       9.467   6.984   5.143  0.00  0.00    +0.170 C 
ATOM     14  C   UNL     1       8.389   7.199   6.189  0.00  0.00    +0.196 C 
ENDROOT
BRANCH  11   6
ATOM      4  O   UNL     1      10.242   4.285   3.181  0.00  0.00    -0.253 OA
ATOM      6  N   UNL     1      11.481   5.773   4.461  0.00  0.00    -0.291 N 
ATOM      8  N   UNL     1      12.339   4.990   2.481  0.00  0.00    -0.296 N 
ATOM     19  C   UNL     1      11.259   4.955   3.359  0.00  0.00    +0.300 C 
ATOM     29  H   UNL     1      12.386   6.224   4.554  0.00  0.00    +0.151 HD
ATOM     31  H   UNL     1      13.129   5.590   2.702  0.00  0.00    +0.151 HD
BRANCH   8  23
ATOM     23  C   UNL     1      12.374   4.230   1.253  0.00  0.00    +0.132 C 
BRANCH  23  27
ATOM     27  C   UNL     1      13.510   3.263   1.313  0.00  0.00    -0.016 C 
ATOM     28  C   UNL     1      14.742   3.585   1.723  0.00  0.00    +0.005 C 
ENDBRANCH  23  27
ENDBRANCH   8  23
ENDBRANCH  11   6
BRANCH   9   5
ATOM      5  N   UNL     1      12.633   8.278   6.483  0.00  0.00    -0.290 NA
ATOM      7  N   UNL     1      15.317   9.252   6.423  0.00  0.00    -0.327 N 
ATOM     15  C   UNL     1      13.756   7.378   6.770  0.00  0.00    +0.104 C 
ATOM     16  C   UNL     1      12.942   9.632   6.961  0.00  0.00    +0.104 C 
ATOM     17  C   UNL     1      15.034   7.856   6.076  0.00  0.00    +0.120 C 
ATOM     18  C   UNL     1      14.192  10.184   6.274  0.00  0.00    +0.120 C 
BRANCH   7  20
ATOM     20  C   UNL     1      16.613   9.757   6.271  0.00  0.00    +0.030 A 
ATOM     21  C   UNL     1      17.661   8.899   5.938  0.00  0.00    +0.023 A 
ATOM     22  C   UNL     1      16.857  11.118   6.449  0.00  0.00    +0.023 A 
ATOM     24  C   UNL     1      18.954   9.401   5.784  0.00  0.00    +0.002 A 
ATOM     25  C   UNL     1      18.148  11.622   6.294  0.00  0.00    +0.002 A 
ATOM     26  C   UNL     1      19.196  10.764   5.961  0.00  0.00    +0.000 A 
ENDBRANCH   7  20
ENDBRANCH   9   5
BRANCH  10   3
ATOM      3  O   UNL     1      10.509   5.711   7.947  0.00  0.00    -0.388 OA
ATOM     30  H   UNL     1      10.972   4.906   8.239  0.00  0.00    +0.210 HD
ENDBRANCH  10   3
TORSDOF 6
ENDMDL
MODEL 8
REMARK VINA RESULT:      -5.8     27.211     29.603
REMARK  Name = 25317500
REMARK  6 active torsions:
REMARK  status: ('A' for Active; 'I' for Inactive)
REMARK    1  A    between atoms: O_3  and  C_10
REMARK    2  A    between atoms: N_5  and  C_9
REMARK    3  A    between atoms: N_6  and  C_11
REMARK    4  A    between atoms: N_7  and  C_20
REMARK    5  A    between atoms: N_8  and  C_23
REMARK    6  A    between atoms: C_23  and  C_27
REMARK                            x       y       z     vdW  Elec       q    Type
REMARK                         _______ _______ _______ _____ _____    ______ ____
ROOT
ATOM      1  O   UNL     1      -4.055 -13.070  13.291  0.00  0.00    -0.342 OA
ATOM      2  O   UNL     1      -2.128 -13.632  14.456  0.00  0.00    -0.347 OA
ATOM      9  C   UNL     1      -3.547 -11.876  15.325  0.00  0.00    +0.144 C 
ATOM     10  C   UNL     1      -2.758 -10.814  14.528  0.00  0.00    +0.159 C 
ATOM     11  C   UNL     1      -2.830 -11.014  12.998  0.00  0.00    +0.136 C 
ATOM     12  C   UNL     1      -3.503 -13.236  14.604  0.00  0.00    +0.270 C 
ATOM     13  C   UNL     1      -2.952 -12.495  12.584  0.00  0.00    +0.170 C 
ATOM     14  C   UNL     1      -1.818 -13.372  13.079  0.00  0.00    +0.196 C 
ENDROOT
BRANCH  11   6
ATOM      4  O   UNL     1      -2.926  -9.681  10.440  0.00  0.00    -0.253 OA
ATOM      6  N   UNL     1      -3.936 -10.258  12.449  0.00  0.00    -0.291 N 
ATOM      8  N   UNL     1      -5.088  -8.991  10.921  0.00  0.00    -0.296 N 
ATOM     19  C   UNL     1      -3.893  -9.647  11.201  0.00  0.00    +0.300 C 
ATOM     29  H   UNL     1      -4.752 -10.106  13.033  0.00  0.00    +0.151 HD
ATOM     31  H   UNL     1      -5.841  -9.035  11.602  0.00  0.00    +0.151 HD
BRANCH   8  23
ATOM     23  C   UNL     1      -5.316  -8.270   9.690  0.00  0.00    +0.132 C 
BRANCH  23  27
ATOM     27  C   UNL     1      -5.960  -9.186   8.703  0.00  0.00    -0.016 C 
ATOM     28  C   UNL     1      -5.299  -9.799   7.714  0.00  0.00    +0.005 C 
ENDBRANCH  23  27
ENDBRANCH   8  23
ENDBRANCH  11   6
BRANCH   9   5
ATOM      5  N   UNL     1      -4.939 -11.450  15.492  0.00  0.00    -0.290 NA
ATOM      7  N   UNL     1      -7.268 -10.667  16.947  0.00  0.00    -0.327 N 
ATOM     15  C   UNL     1      -5.000 -10.137  16.145  0.00  0.00    +0.104 C 
ATOM     16  C   UNL     1      -5.688 -12.437  16.281  0.00  0.00    +0.104 C 
ATOM     17  C   UNL     1      -6.447  -9.655  16.275  0.00  0.00    +0.120 C 
ATOM     18  C   UNL     1      -7.157 -12.031  16.415  0.00  0.00    +0.120 C 
BRANCH   7  20
ATOM     20  C   UNL     1      -8.474 -10.293  17.550  0.00  0.00    +0.030 A 
ATOM     21  C   UNL     1      -8.969 -11.023  18.630  0.00  0.00    +0.023 A 
ATOM     22  C   UNL     1      -9.180  -9.188  17.075  0.00  0.00    +0.023 A 
ATOM     24  C   UNL     1     -10.170 -10.650  19.235  0.00  0.00    +0.002 A 
ATOM     25  C   UNL     1     -10.380  -8.814  17.679  0.00  0.00    +0.002 A 
ATOM     26  C   UNL     1     -10.875  -9.544  18.759  0.00  0.00    +0.000 A 
ENDBRANCH   7  20
ENDBRANCH   9   5
BRANCH  10   3
ATOM      3  O   UNL     1      -1.386 -10.891  14.938  0.00  0.00    -0.388 OA
ATOM     30  H   UNL     1      -1.340 -10.591  15.863  0.00  0.00    +0.210 HD
ENDBRANCH  10   3
TORSDOF 6
ENDMDL
MODEL 9
REMARK VINA RESULT:      -5.6     27.368     29.514
REMARK  Name = 25317500
REMARK  6 active torsions:
REMARK  status: ('A' for Active; 'I' for Inactive)
REMARK    1  A    between atoms: O_3  and  C_10
REMARK    2  A    between atoms: N_5  and  C_9
REMARK    3  A    between atoms: N_6  and  C_11
REMARK    4  A    between atoms: N_7  and  C_20
REMARK    5  A    between atoms: N_8  and  C_23
REMARK    6  A    between atoms: C_23  and  C_27
REMARK                            x       y       z     vdW  Elec       q    Type
REMARK                         _______ _______ _______ _____ _____    ______ ____
ROOT
ATOM      1  O   UNL     1      -2.464 -10.285  13.463  0.00  0.00    -0.342 OA
ATOM      2  O   UNL     1      -1.465 -12.337  13.048  0.00  0.00    -0.347 OA
ATOM      9  C   UNL     1      -3.592 -11.843  12.008  0.00  0.00    +0.144 C 
ATOM     10  C   UNL     1      -4.347 -12.451  13.210  0.00  0.00    +0.159 C 
ATOM     11  C   UNL     1      -4.083 -11.710  14.540  0.00  0.00    +0.136 C 
ATOM     12  C   UNL     1      -2.231 -11.276  12.453  0.00  0.00    +0.270 C 
ATOM     13  C   UNL     1      -2.671 -11.096  14.623  0.00  0.00    +0.170 C 
ATOM     14  C   UNL     1      -1.547 -12.101  14.462  0.00  0.00    +0.196 C 
ENDROOT
BRANCH  11   6
ATOM      4  O   UNL     1      -5.708 -11.297  16.889  0.00  0.00    -0.253 OA
ATOM      6  N   UNL     1      -5.080 -10.680  14.741  0.00  0.00    -0.291 N 
ATOM      8  N   UNL     1      -6.701  -9.483  15.839  0.00  0.00    -0.296 N 
ATOM     19  C   UNL     1      -5.818 -10.556  15.913  0.00  0.00    +0.300 C 
ATOM     29  H   UNL     1      -5.301 -10.066  13.963  0.00  0.00    +0.151 HD
ATOM     31  H   UNL     1      -6.708  -8.912  14.998  0.00  0.00    +0.151 HD
BRANCH   8  23
ATOM     23  C   UNL     1      -7.592  -9.126  16.918  0.00  0.00    +0.132 C 
BRANCH  23  27
ATOM     27  C   UNL     1      -8.937  -8.808  16.354  0.00  0.00    -0.016 C 
ATOM     28  C   UNL     1      -9.843  -8.043  16.975  0.00  0.00    +0.005 C 
ENDBRANCH  23  27
ENDBRANCH   8  23
ENDBRANCH  11   6
BRANCH   9   5
ATOM      5  N   UNL     1      -4.393 -10.782  11.393  0.00  0.00    -0.290 NA
ATOM      7  N   UNL     1      -5.938  -9.540   9.338  0.00  0.00    -0.327 N 
ATOM     15  C   UNL     1      -5.740 -11.271  11.079  0.00  0.00    +0.104 C 
ATOM     16  C   UNL     1      -3.743 -10.286  10.173  0.00  0.00    +0.104 C 
ATOM     17  C   UNL     1      -6.606 -10.155  10.488  0.00  0.00    +0.120 C 
ATOM     18  C   UNL     1      -4.542  -9.138   9.553  0.00  0.00    +0.120 C 
BRANCH   7  20
ATOM     20  C   UNL     1      -6.690  -8.824   8.399  0.00  0.00    +0.030 A 
ATOM     21  C   UNL     1      -7.367  -7.667   8.783  0.00  0.00    +0.023 A 
ATOM     22  C   UNL     1      -6.759  -9.266   7.078  0.00  0.00    +0.023 A 
ATOM     24  C   UNL     1      -8.115  -6.951   7.848  0.00  0.00    +0.002 A 
ATOM     25  C   UNL     1      -7.506  -8.550   6.142  0.00  0.00    +0.002 A 
ATOM     26  C   UNL     1      -8.183  -7.393   6.526  0.00  0.00    +0.000 A 
ENDBRANCH   7  20
ENDBRANCH   9   5
BRANCH  10   3
ATOM      3  O   UNL     1      -3.920 -13.813  13.349  0.00  0.00    -0.388 OA
ATOM     30  H   UNL     1      -4.373 -14.334  12.663  0.00  0.00    +0.210 HD
ENDBRANCH  10   3
TORSDOF 6
ENDMDL
MODEL 10
REMARK VINA RESULT:      -5.6     16.342     19.406
REMARK  Name = 25317500
REMARK  6 active torsions:
REMARK  status: ('A' for Active; 'I' for Inactive)
REMARK    1  A    between atoms: O_3  and  C_10
REMARK    2  A    between atoms: N_5  and  C_9
REMARK    3  A    between atoms: N_6  and  C_11
REMARK    4  A    between atoms: N_7  and  C_20
REMARK    5  A    between atoms: N_8  and  C_23
REMARK    6  A    between atoms: C_23  and  C_27
REMARK                            x       y       z     vdW  Elec       q    Type
REMARK                         _______ _______ _______ _____ _____    ______ ____
ROOT
ATOM      1  O   UNL     1      13.287   9.115   3.150  0.00  0.00    -0.342 OA
ATOM      2  O   UNL     1      15.520   9.728   2.994  0.00  0.00    -0.347 OA
ATOM      9  C   UNL     1      14.863   7.514   2.272  0.00  0.00    +0.144 C 
ATOM     10  C   UNL     1      15.114   6.954   3.690  0.00  0.00    +0.159 C 
ATOM     11  C   UNL     1      14.207   7.584   4.770  0.00  0.00    +0.136 C 
ATOM     12  C   UNL     1      14.466   9.000   2.341  0.00  0.00    +0.270 C 
ATOM     13  C   UNL     1      13.835   9.051   4.470  0.00  0.00    +0.170 C 
ATOM     14  C   UNL     1      15.029   9.975   4.320  0.00  0.00    +0.196 C 
ENDROOT
BRANCH  11   6
ATOM      4  O   UNL     1      12.601   7.327   7.154  0.00  0.00    -0.253 OA
ATOM      6  N   UNL     1      13.003   6.796   4.930  0.00  0.00    -0.291 N 
ATOM      8  N   UNL     1      11.178   5.905   5.999  0.00  0.00    -0.296 N 
ATOM     19  C   UNL     1      12.291   6.732   6.122  0.00  0.00    +0.300 C 
ATOM     29  H   UNL     1      12.708   6.206   4.159  0.00  0.00    +0.151 HD
ATOM     31  H   UNL     1      10.989   5.471   5.100  0.00  0.00    +0.151 HD
BRANCH   8  23
ATOM     23  C   UNL     1      10.262   5.658   7.088  0.00  0.00    +0.132 C 
BRANCH  23  27
ATOM     27  C   UNL     1       8.948   6.293   6.772  0.00  0.00    -0.016 C 
ATOM     28  C   UNL     1       8.376   6.258   5.562  0.00  0.00    +0.005 C 
ENDBRANCH  23  27
ENDBRANCH   8  23
ENDBRANCH  11   6
BRANCH   9   5
ATOM      5  N   UNL     1      13.806   6.749   1.607  0.00  0.00    -0.290 NA
ATOM      7  N   UNL     1      12.697   5.003  -0.362  0.00  0.00    -0.327 N 
ATOM     15  C   UNL     1      14.120   5.316   1.624  0.00  0.00    +0.104 C 
ATOM     16  C   UNL     1      13.632   7.207   0.223  0.00  0.00    +0.104 C 
ATOM     17  C   UNL     1      12.996   4.499   0.982  0.00  0.00    +0.120 C 
ATOM     18  C   UNL     1      12.492   6.454  -0.465  0.00  0.00    +0.120 C 
BRANCH   7  20
ATOM     20  C   UNL     1      12.038   4.180  -1.282  0.00  0.00    +0.030 A 
ATOM     21  C   UNL     1      10.944   4.667  -1.997  0.00  0.00    +0.023 A 
ATOM     22  C   UNL     1      12.478   2.872  -1.487  0.00  0.00    +0.023 A 
ATOM     24  C   UNL     1      10.289   3.848  -2.917  0.00  0.00    +0.002 A 
ATOM     25  C   UNL     1      11.824   2.053  -2.408  0.00  0.00    +0.002 A 
ATOM     26  C   UNL     1      10.730   2.540  -3.122  0.00  0.00    +0.000 A 
ENDBRANCH   7  20
ENDBRANCH   9   5
BRANCH  10   3
ATOM      3  O   UNL     1      16.483   7.218   4.027  0.00  0.00    -0.388 OA
ATOM     30  H   UNL     1      16.749   8.028   3.560  0.00  0.00    +0.210 HD
ENDBRANCH  10   3
TORSDOF 6
ENDMDL
