MODEL 1
REMARK VINA RESULT:      -7.3      0.000      0.000
REMARK  Name = 11942591
REMARK  11 active torsions:
REMARK  status: ('A' for Active; 'I' for Inactive)
REMARK    1  A    between atoms: N_3  and  C_14
REMARK    2  A    between atoms: N_4  and  C_16
REMARK    3  A    between atoms: C_8  and  C_15
REMARK    4  A    between atoms: C_9  and  C_14
REMARK    5  A    between atoms: C_16  and  C_19
REMARK    6  A    between atoms: C_16  and  C_20
REMARK    7  A    between atoms: C_18  and  C_21
REMARK    8  A    between atoms: C_22  and  C_25
REMARK    9  A    between atoms: C_22  and  C_28
REMARK   10  A    between atoms: C_22  and  C_29
REMARK   11  A    between atoms: C_22  and  C_30
REMARK                            x       y       z     vdW  Elec       q    Type
REMARK                         _______ _______ _______ _____ _____    ______ ____
ROOT
ATOM     14  C   UNL     1      15.289   7.619  20.002  0.00  0.00    +0.164 C 
ENDROOT
BRANCH  14   9
ATOM      2  N   UNL     1      14.789   9.834  18.939  0.00  0.00    -0.297 NA
ATOM      7  C   UNL     1      12.998   8.869  17.316  0.00  0.00    +0.005 C 
ATOM      8  C   UNL     1      12.340   9.607  18.497  0.00  0.00    +0.092 C 
ATOM      9  C   UNL     1      15.045   8.388  18.701  0.00  0.00    +0.078 C 
ATOM     10  C   UNL     1      13.912   7.756  17.865  0.00  0.00    +0.025 C 
ATOM     11  C   UNL     1      13.901   9.891  16.601  0.00  0.00    +0.020 C 
ATOM     12  C   UNL     1      13.429  10.030  19.499  0.00  0.00    +0.097 C 
ATOM     13  C   UNL     1      14.855  10.529  17.630  0.00  0.00    +0.085 C 
BRANCH   8  15
ATOM      1  O   UNL     1      10.252   8.452  18.556  0.00  0.00    -0.275 OA
ATOM      4  N   UNL     1      11.615   8.415  20.444  0.00  0.00    -0.313 N 
ATOM     15  C   UNL     1      11.285   8.762  19.145  0.00  0.00    +0.218 C 
ATOM     31  H   UNL     1      12.519   8.695  20.815  0.00  0.00    +0.149 HD
BRANCH   4  16
ATOM     16  C   UNL     1      10.755   7.623  21.292  0.00  0.00    +0.067 C 
ATOM     19  C   UNL     1      10.586   8.294  22.649  0.00  0.00    +0.027 C 
ATOM     20  C   UNL     1      11.305   6.210  21.440  0.00  0.00    +0.027 C 
ENDBRANCH   4  16
ENDBRANCH   8  15
ENDBRANCH  14   9
BRANCH  14   3
ATOM      3  N   UNL     1      16.545   6.888  19.969  0.00  0.00    -0.250 N 
ATOM      5  N   UNL     1      16.819   6.068  18.949  0.00  0.00    -0.065 NA
ATOM      6  N   UNL     1      18.018   5.546  19.187  0.00  0.00    -0.130 NA
ATOM     17  C   UNL     1      17.539   6.924  20.887  0.00  0.00    +0.138 A 
ATOM     18  C   UNL     1      18.472   6.060  20.371  0.00  0.00    +0.113 A 
BRANCH  18  21
ATOM     21  C   UNL     1      19.728   5.738  20.967  0.00  0.00    +0.004 A 
ATOM     23  C   UNL     1      20.551   4.760  20.396  0.00  0.00    +0.010 A 
ATOM     24  C   UNL     1      20.148   6.396  22.127  0.00  0.00    +0.010 A 
ATOM     25  C   UNL     1      22.191   5.106  22.136  0.00  0.00    -0.042 A 
ATOM     26  C   UNL     1      21.778   4.446  20.979  0.00  0.00    +0.005 A 
ATOM     27  C   UNL     1      21.376   6.081  22.710  0.00  0.00    +0.005 A 
BRANCH  25  22
ATOM     22  C   UNL     1      23.503   4.769  22.759  0.00  0.00    -0.013 C 
ATOM     28  C   UNL     1      24.062   5.969  23.585  0.00  0.00    +0.015 C 
ATOM     29  C   UNL     1      24.567   4.408  21.676  0.00  0.00    +0.015 C 
ATOM     30  C   UNL     1      23.486   3.556  23.748  0.00  0.00    +0.015 C 
ENDBRANCH  25  22
ENDBRANCH  18  21
ENDBRANCH  14   3
TORSDOF 6
ENDMDL
MODEL 2
REMARK VINA RESULT:      -7.2      1.992      3.149
REMARK  Name = 11942591
REMARK  11 active torsions:
REMARK  status: ('A' for Active; 'I' for Inactive)
REMARK    1  A    between atoms: N_3  and  C_14
REMARK    2  A    between atoms: N_4  and  C_16
REMARK    3  A    between atoms: C_8  and  C_15
REMARK    4  A    between atoms: C_9  and  C_14
REMARK    5  A    between atoms: C_16  and  C_19
REMARK    6  A    between atoms: C_16  and  C_20
REMARK    7  A    between atoms: C_18  and  C_21
REMARK    8  A    between atoms: C_22  and  C_25
REMARK    9  A    between atoms: C_22  and  C_28
REMARK   10  A    between atoms: C_22  and  C_29
REMARK   11  A    between atoms: C_22  and  C_30
REMARK                            x       y       z     vdW  Elec       q    Type
REMARK                         _______ _______ _______ _____ _____    ______ ____
ROOT
ATOM     14  C   UNL     1      14.787   7.672  19.236  0.00  0.00    +0.164 C 
ENDROOT
BRANCH  14   9
ATOM      2  N   UNL     1      12.394   7.068  19.678  0.00  0.00    -0.297 NA
ATOM      7  C   UNL     1      12.249   8.453  21.877  0.00  0.00    +0.005 C 
ATOM      8  C   UNL     1      11.554   9.182  20.712  0.00  0.00    +0.092 C 
ATOM      9  C   UNL     1      13.750   7.226  20.269  0.00  0.00    +0.078 C 
ATOM     10  C   UNL     1      13.714   8.171  21.490  0.00  0.00    +0.025 C 
ATOM     11  C   UNL     1      11.547   7.091  22.032  0.00  0.00    +0.020 C 
ATOM     12  C   UNL     1      11.792   8.398  19.410  0.00  0.00    +0.097 C 
ATOM     13  C   UNL     1      11.543   6.367  20.672  0.00  0.00    +0.085 C 
BRANCH   8  15
ATOM      1  O   UNL     1      12.834  10.950  19.747  0.00  0.00    -0.275 OA
ATOM      4  N   UNL     1      11.462  11.417  21.568  0.00  0.00    -0.313 N 
ATOM     15  C   UNL     1      12.025  10.601  20.602  0.00  0.00    +0.218 C 
ATOM     31  H   UNL     1      10.770  11.027  22.202  0.00  0.00    +0.149 HD
BRANCH   4  16
ATOM     16  C   UNL     1      11.770  12.823  21.692  0.00  0.00    +0.067 C 
ATOM     19  C   UNL     1      12.863  13.036  22.730  0.00  0.00    +0.027 C 
ATOM     20  C   UNL     1      10.516  13.616  22.040  0.00  0.00    +0.027 C 
ENDBRANCH   4  16
ENDBRANCH   8  15
ENDBRANCH  14   9
BRANCH  14   3
ATOM      3  N   UNL     1      16.034   6.937  19.370  0.00  0.00    -0.250 N 
ATOM      5  N   UNL     1      16.352   5.987  18.486  0.00  0.00    -0.065 NA
ATOM      6  N   UNL     1      17.530   5.496  18.857  0.00  0.00    -0.130 NA
ATOM     17  C   UNL     1      16.977   7.092  20.328  0.00  0.00    +0.138 A 
ATOM     18  C   UNL     1      17.926   6.161  19.984  0.00  0.00    +0.113 A 
BRANCH  18  21
ATOM     21  C   UNL     1      19.144   5.916  20.686  0.00  0.00    +0.004 A 
ATOM     23  C   UNL     1      20.058   4.972  20.206  0.00  0.00    +0.010 A 
ATOM     24  C   UNL     1      19.436   6.619  21.860  0.00  0.00    +0.010 A 
ATOM     25  C   UNL     1      21.533   5.436  22.062  0.00  0.00    -0.042 A 
ATOM     26  C   UNL     1      21.249   4.732  20.892  0.00  0.00    +0.005 A 
ATOM     27  C   UNL     1      20.627   6.379  22.546  0.00  0.00    +0.005 A 
BRANCH  25  22
ATOM     22  C   UNL     1      22.806   5.179  22.795  0.00  0.00    -0.013 C 
ATOM     28  C   UNL     1      23.160   6.365  23.747  0.00  0.00    +0.015 C 
ATOM     29  C   UNL     1      24.000   4.996  21.808  0.00  0.00    +0.015 C 
ATOM     30  C   UNL     1      22.814   3.903  23.701  0.00  0.00    +0.015 C 
ENDBRANCH  25  22
ENDBRANCH  18  21
ENDBRANCH  14   3
TORSDOF 6
ENDMDL
MODEL 3
REMARK VINA RESULT:      -6.9      2.428      3.602
REMARK  Name = 11942591
REMARK  11 active torsions:
REMARK  status: ('A' for Active; 'I' for Inactive)
REMARK    1  A    between atoms: N_3  and  C_14
REMARK    2  A    between atoms: N_4  and  C_16
REMARK    3  A    between atoms: C_8  and  C_15
REMARK    4  A    between atoms: C_9  and  C_14
REMARK    5  A    between atoms: C_16  and  C_19
REMARK    6  A    between atoms: C_16  and  C_20
REMARK    7  A    between atoms: C_18  and  C_21
REMARK    8  A    between atoms: C_22  and  C_25
REMARK    9  A    between atoms: C_22  and  C_28
REMARK   10  A    between atoms: C_22  and  C_29
REMARK   11  A    between atoms: C_22  and  C_30
REMARK                            x       y       z     vdW  Elec       q    Type
REMARK                         _______ _______ _______ _____ _____    ______ ____
ROOT
ATOM     14  C   UNL     1      14.738   9.094  20.228  0.00  0.00    +0.164 C 
ENDROOT
BRANCH  14   9
ATOM      2  N   UNL     1      12.288   9.297  19.738  0.00  0.00    -0.297 NA
ATOM      7  C   UNL     1      11.553   8.628  22.143  0.00  0.00    +0.005 C 
ATOM      8  C   UNL     1      11.433  10.148  21.926  0.00  0.00    +0.092 C 
ATOM      9  C   UNL     1      13.347   8.475  20.382  0.00  0.00    +0.078 C 
ATOM     10  C   UNL     1      13.005   8.193  21.861  0.00  0.00    +0.025 C 
ATOM     11  C   UNL     1      10.660   7.956  21.083  0.00  0.00    +0.020 C 
ATOM     12  C   UNL     1      12.014  10.510  20.548  0.00  0.00    +0.097 C 
ATOM     13  C   UNL     1      11.047   8.484  19.689  0.00  0.00    +0.085 C 
BRANCH   8  15
ATOM      1  O   UNL     1      11.626  10.967  24.160  0.00  0.00    -0.275 OA
ATOM      4  N   UNL     1      13.273  11.522  22.610  0.00  0.00    -0.313 N 
ATOM     15  C   UNL     1      12.105  10.908  23.030  0.00  0.00    +0.218 C 
ATOM     31  H   UNL     1      13.595  11.370  21.658  0.00  0.00    +0.149 HD
BRANCH   4  16
ATOM     16  C   UNL     1      14.095  12.333  23.478  0.00  0.00    +0.067 C 
ATOM     19  C   UNL     1      14.052  13.790  23.037  0.00  0.00    +0.027 C 
ATOM     20  C   UNL     1      15.524  11.806  23.506  0.00  0.00    +0.027 C 
ENDBRANCH   4  16
ENDBRANCH   8  15
ENDBRANCH  14   9
BRANCH  14   3
ATOM      3  N   UNL     1      15.772   8.079  20.120  0.00  0.00    -0.250 N 
ATOM      5  N   UNL     1      15.667   7.108  19.207  0.00  0.00    -0.065 NA
ATOM      6  N   UNL     1      16.742   6.338  19.339  0.00  0.00    -0.130 NA
ATOM     17  C   UNL     1      16.899   7.973  20.862  0.00  0.00    +0.138 A 
ATOM     18  C   UNL     1      17.506   6.854  20.349  0.00  0.00    +0.113 A 
BRANCH  18  21
ATOM     21  C   UNL     1      18.746   6.303  20.793  0.00  0.00    +0.004 A 
ATOM     23  C   UNL     1      19.356   5.269  20.074  0.00  0.00    +0.010 A 
ATOM     24  C   UNL     1      19.362   6.791  21.950  0.00  0.00    +0.010 A 
ATOM     25  C   UNL     1      21.176   5.223  21.662  0.00  0.00    -0.042 A 
ATOM     26  C   UNL     1      20.568   4.730  20.508  0.00  0.00    +0.005 A 
ATOM     27  C   UNL     1      20.574   6.253  22.383  0.00  0.00    +0.005 A 
BRANCH  25  22
ATOM     22  C   UNL     1      22.471   4.646  22.125  0.00  0.00    -0.013 C 
ATOM     28  C   UNL     1      22.370   3.098  22.301  0.00  0.00    +0.015 C 
ATOM     29  C   UNL     1      22.900   5.248  23.499  0.00  0.00    +0.015 C 
ATOM     30  C   UNL     1      23.690   4.876  21.171  0.00  0.00    +0.015 C 
ENDBRANCH  25  22
ENDBRANCH  18  21
ENDBRANCH  14   3
TORSDOF 6
ENDMDL
MODEL 4
REMARK VINA RESULT:      -6.8      1.547      3.027
REMARK  Name = 11942591
REMARK  11 active torsions:
REMARK  status: ('A' for Active; 'I' for Inactive)
REMARK    1  A    between atoms: N_3  and  C_14
REMARK    2  A    between atoms: N_4  and  C_16
REMARK    3  A    between atoms: C_8  and  C_15
REMARK    4  A    between atoms: C_9  and  C_14
REMARK    5  A    between atoms: C_16  and  C_19
REMARK    6  A    between atoms: C_16  and  C_20
REMARK    7  A    between atoms: C_18  and  C_21
REMARK    8  A    between atoms: C_22  and  C_25
REMARK    9  A    between atoms: C_22  and  C_28
REMARK   10  A    between atoms: C_22  and  C_29
REMARK   11  A    between atoms: C_22  and  C_30
REMARK                            x       y       z     vdW  Elec       q    Type
REMARK                         _______ _______ _______ _____ _____    ______ ____
ROOT
ATOM     14  C   UNL     1      14.759   6.775  20.830  0.00  0.00    +0.164 C 
ENDROOT
BRANCH  14   9
ATOM      2  N   UNL     1      13.326   8.588  21.804  0.00  0.00    -0.297 NA
ATOM      7  C   UNL     1      13.856  10.291  19.909  0.00  0.00    +0.005 C 
ATOM      8  C   UNL     1      12.456   9.673  19.728  0.00  0.00    +0.092 C 
ATOM      9  C   UNL     1      14.635   8.260  21.177  0.00  0.00    +0.078 C 
ATOM     10  C   UNL     1      14.902   9.160  19.952  0.00  0.00    +0.025 C 
ATOM     11  C   UNL     1      13.865  10.976  21.287  0.00  0.00    +0.020 C 
ATOM     12  C   UNL     1      12.250   8.572  20.782  0.00  0.00    +0.097 C 
ATOM     13  C   UNL     1      13.418   9.962  22.358  0.00  0.00    +0.085 C 
BRANCH   8  15
ATOM      1  O   UNL     1      11.731   8.070  18.115  0.00  0.00    -0.275 OA
ATOM      4  N   UNL     1      12.784  10.012  17.380  0.00  0.00    -0.313 N 
ATOM     15  C   UNL     1      12.269   9.152  18.335  0.00  0.00    +0.218 C 
ATOM     31  H   UNL     1      13.173  10.903  17.676  0.00  0.00    +0.149 HD
BRANCH   4  16
ATOM     16  C   UNL     1      12.750   9.731  15.963  0.00  0.00    +0.067 C 
ATOM     19  C   UNL     1      11.372   9.224  15.558  0.00  0.00    +0.027 C 
ATOM     20  C   UNL     1      13.838   8.731  15.590  0.00  0.00    +0.027 C 
ENDBRANCH   4  16
ENDBRANCH   8  15
ENDBRANCH  14   9
BRANCH  14   3
ATOM      3  N   UNL     1      16.095   6.437  20.368  0.00  0.00    -0.250 N 
ATOM      5  N   UNL     1      16.280   5.974  19.128  0.00  0.00    -0.065 NA
ATOM      6  N   UNL     1      17.583   5.756  18.990  0.00  0.00    -0.130 NA
ATOM     17  C   UNL     1      17.251   6.533  21.063  0.00  0.00    +0.138 A 
ATOM     18  C   UNL     1      18.193   6.093  20.167  0.00  0.00    +0.113 A 
BRANCH  18  21
ATOM     21  C   UNL     1      19.595   5.996  20.412  0.00  0.00    +0.004 A 
ATOM     23  C   UNL     1      20.235   4.753  20.375  0.00  0.00    +0.010 A 
ATOM     24  C   UNL     1      20.344   7.145  20.691  0.00  0.00    +0.010 A 
ATOM     25  C   UNL     1      22.345   5.808  20.892  0.00  0.00    -0.042 A 
ATOM     26  C   UNL     1      21.606   4.658  20.615  0.00  0.00    +0.005 A 
ATOM     27  C   UNL     1      21.715   7.050  20.930  0.00  0.00    +0.005 A 
BRANCH  25  22
ATOM     22  C   UNL     1      23.811   5.706  21.149  0.00  0.00    -0.013 C 
ATOM     28  C   UNL     1      24.521   7.077  20.920  0.00  0.00    +0.015 C 
ATOM     29  C   UNL     1      24.481   4.665  20.199  0.00  0.00    +0.015 C 
ATOM     30  C   UNL     1      24.211   5.268  22.597  0.00  0.00    +0.015 C 
ENDBRANCH  25  22
ENDBRANCH  18  21
ENDBRANCH  14   3
TORSDOF 6
ENDMDL
MODEL 5
REMARK VINA RESULT:      -6.5      4.717     11.067
REMARK  Name = 11942591
REMARK  11 active torsions:
REMARK  status: ('A' for Active; 'I' for Inactive)
REMARK    1  A    between atoms: N_3  and  C_14
REMARK    2  A    between atoms: N_4  and  C_16
REMARK    3  A    between atoms: C_8  and  C_15
REMARK    4  A    between atoms: C_9  and  C_14
REMARK    5  A    between atoms: C_16  and  C_19
REMARK    6  A    between atoms: C_16  and  C_20
REMARK    7  A    between atoms: C_18  and  C_21
REMARK    8  A    between atoms: C_22  and  C_25
REMARK    9  A    between atoms: C_22  and  C_28
REMARK   10  A    between atoms: C_22  and  C_29
REMARK   11  A    between atoms: C_22  and  C_30
REMARK                            x       y       z     vdW  Elec       q    Type
REMARK                         _______ _______ _______ _____ _____    ______ ____
ROOT
ATOM     14  C   UNL     1      23.168   4.650  22.348  0.00  0.00    +0.164 C 
ENDROOT
BRANCH  14   9
ATOM      2  N   UNL     1      24.063   3.273  20.453  0.00  0.00    -0.297 NA
ATOM      7  C   UNL     1      26.326   2.766  21.634  0.00  0.00    +0.005 C 
ATOM      8  C   UNL     1      25.380   1.551  21.696  0.00  0.00    +0.092 C 
ATOM      9  C   UNL     1      24.366   4.336  21.448  0.00  0.00    +0.078 C 
ATOM     10  C   UNL     1      25.624   3.982  22.270  0.00  0.00    +0.025 C 
ATOM     11  C   UNL     1      26.538   3.088  20.143  0.00  0.00    +0.020 C 
ATOM     12  C   UNL     1      24.010   1.947  21.118  0.00  0.00    +0.097 C 
ATOM     13  C   UNL     1      25.166   3.249  19.461  0.00  0.00    +0.085 C 
BRANCH   8  15
ATOM      1  O   UNL     1      26.185   0.424  23.640  0.00  0.00    -0.275 OA
ATOM      4  N   UNL     1      24.021   1.284  23.651  0.00  0.00    -0.313 N 
ATOM     15  C   UNL     1      25.263   1.026  23.095  0.00  0.00    +0.218 C 
ATOM     31  H   UNL     1      23.347   1.828  23.120  0.00  0.00    +0.149 HD
BRANCH   4  16
ATOM     16  C   UNL     1      23.648   0.862  24.981  0.00  0.00    +0.067 C 
ATOM     19  C   UNL     1      22.138   0.692  25.077  0.00  0.00    +0.027 C 
ATOM     20  C   UNL     1      24.159   1.853  26.020  0.00  0.00    +0.027 C 
ENDBRANCH   4  16
ENDBRANCH   8  15
ENDBRANCH  14   9
BRANCH  14   3
ATOM      3  N   UNL     1      22.189   5.485  21.673  0.00  0.00    -0.250 N 
ATOM      5  N   UNL     1      22.590   6.486  20.884  0.00  0.00    -0.065 NA
ATOM      6  N   UNL     1      21.493   7.065  20.410  0.00  0.00    -0.130 NA
ATOM     17  C   UNL     1      20.842   5.383  21.738  0.00  0.00    +0.138 A 
ATOM     18  C   UNL     1      20.413   6.402  20.924  0.00  0.00    +0.113 A 
BRANCH  18  21
ATOM     21  C   UNL     1      19.051   6.730  20.648  0.00  0.00    +0.004 A 
ATOM     23  C   UNL     1      18.445   7.819  21.282  0.00  0.00    +0.010 A 
ATOM     24  C   UNL     1      18.311   5.965  19.740  0.00  0.00    +0.010 A 
ATOM     25  C   UNL     1      16.382   7.373  20.106  0.00  0.00    -0.042 A 
ATOM     26  C   UNL     1      17.114   8.140  21.012  0.00  0.00    +0.005 A 
ATOM     27  C   UNL     1      16.980   6.286  19.470  0.00  0.00    +0.005 A 
BRANCH  25  22
ATOM     22  C   UNL     1      14.960   7.716  19.819  0.00  0.00    -0.013 C 
ATOM     28  C   UNL     1      13.985   6.842  20.669  0.00  0.00    +0.015 C 
ATOM     29  C   UNL     1      14.613   7.479  18.316  0.00  0.00    +0.015 C 
ATOM     30  C   UNL     1      14.553   9.198  20.112  0.00  0.00    +0.015 C 
ENDBRANCH  25  22
ENDBRANCH  18  21
ENDBRANCH  14   3
TORSDOF 6
ENDMDL
MODEL 6
REMARK VINA RESULT:      -6.5      4.463     11.315
REMARK  Name = 11942591
REMARK  11 active torsions:
REMARK  status: ('A' for Active; 'I' for Inactive)
REMARK    1  A    between atoms: N_3  and  C_14
REMARK    2  A    between atoms: N_4  and  C_16
REMARK    3  A    between atoms: C_8  and  C_15
REMARK    4  A    between atoms: C_9  and  C_14
REMARK    5  A    between atoms: C_16  and  C_19
REMARK    6  A    between atoms: C_16  and  C_20
REMARK    7  A    between atoms: C_18  and  C_21
REMARK    8  A    between atoms: C_22  and  C_25
REMARK    9  A    between atoms: C_22  and  C_28
REMARK   10  A    between atoms: C_22  and  C_29
REMARK   11  A    between atoms: C_22  and  C_30
REMARK                            x       y       z     vdW  Elec       q    Type
REMARK                         _______ _______ _______ _____ _____    ______ ____
ROOT
ATOM     14  C   UNL     1      22.529   4.674  21.484  0.00  0.00    +0.164 C 
ENDROOT
BRANCH  14   9
ATOM      2  N   UNL     1      23.232   3.671  23.672  0.00  0.00    -0.297 NA
ATOM      7  C   UNL     1      24.299   1.562  22.584  0.00  0.00    +0.005 C 
ATOM      8  C   UNL     1      25.378   2.570  23.023  0.00  0.00    +0.092 C 
ATOM      9  C   UNL     1      22.607   3.412  22.347  0.00  0.00    +0.078 C 
ATOM     10  C   UNL     1      23.326   2.259  21.614  0.00  0.00    +0.025 C 
ATOM     11  C   UNL     1      23.499   1.190  23.846  0.00  0.00    +0.020 C 
ATOM     12  C   UNL     1      24.697   3.855  23.523  0.00  0.00    +0.097 C 
ATOM     13  C   UNL     1      23.000   2.480  24.526  0.00  0.00    +0.085 C 
BRANCH   8  15
ATOM      1  O   UNL     1      27.207   2.037  21.585  0.00  0.00    -0.275 OA
ATOM      4  N   UNL     1      26.148   4.097  21.346  0.00  0.00    -0.313 N 
ATOM     15  C   UNL     1      26.344   2.848  21.911  0.00  0.00    +0.218 C 
ATOM     31  H   UNL     1      25.374   4.669  21.671  0.00  0.00    +0.149 HD
BRANCH   4  16
ATOM     16  C   UNL     1      26.963   4.614  20.271  0.00  0.00    +0.067 C 
ATOM     19  C   UNL     1      26.884   6.134  20.232  0.00  0.00    +0.027 C 
ATOM     20  C   UNL     1      26.541   4.004  18.940  0.00  0.00    +0.027 C 
ENDBRANCH   4  16
ENDBRANCH   8  15
ENDBRANCH  14   9
BRANCH  14   3
ATOM      3  N   UNL     1      21.229   5.317  21.585  0.00  0.00    -0.250 N 
ATOM      5  N   UNL     1      20.829   5.844  22.746  0.00  0.00    -0.065 NA
ATOM      6  N   UNL     1      19.620   6.356  22.540  0.00  0.00    -0.130 NA
ATOM     17  C   UNL     1      20.310   5.466  20.604  0.00  0.00    +0.138 A 
ATOM     18  C   UNL     1      19.287   6.132  21.233  0.00  0.00    +0.113 A 
BRANCH  18  21
ATOM     21  C   UNL     1      18.059   6.534  20.626  0.00  0.00    +0.004 A 
ATOM     23  C   UNL     1      17.569   5.855  19.506  0.00  0.00    +0.010 A 
ATOM     24  C   UNL     1      17.335   7.612  21.147  0.00  0.00    +0.010 A 
ATOM     25  C   UNL     1      15.652   7.323  19.438  0.00  0.00    -0.042 A 
ATOM     26  C   UNL     1      16.369   6.248  18.913  0.00  0.00    +0.005 A 
ATOM     27  C   UNL     1      16.135   8.005  20.554  0.00  0.00    +0.005 A 
BRANCH  25  22
ATOM     22  C   UNL     1      14.370   7.744  18.803  0.00  0.00    -0.013 C 
ATOM     28  C   UNL     1      14.098   9.264  19.031  0.00  0.00    +0.015 C 
ATOM     29  C   UNL     1      13.160   6.956  19.396  0.00  0.00    +0.015 C 
ATOM     30  C   UNL     1      14.285   7.535  17.255  0.00  0.00    +0.015 C 
ENDBRANCH  25  22
ENDBRANCH  18  21
ENDBRANCH  14   3
TORSDOF 6
ENDMDL
MODEL 7
REMARK VINA RESULT:      -6.4      2.144      3.477
REMARK  Name = 11942591
REMARK  11 active torsions:
REMARK  status: ('A' for Active; 'I' for Inactive)
REMARK    1  A    between atoms: N_3  and  C_14
REMARK    2  A    between atoms: N_4  and  C_16
REMARK    3  A    between atoms: C_8  and  C_15
REMARK    4  A    between atoms: C_9  and  C_14
REMARK    5  A    between atoms: C_16  and  C_19
REMARK    6  A    between atoms: C_16  and  C_20
REMARK    7  A    between atoms: C_18  and  C_21
REMARK    8  A    between atoms: C_22  and  C_25
REMARK    9  A    between atoms: C_22  and  C_28
REMARK   10  A    between atoms: C_22  and  C_29
REMARK   11  A    between atoms: C_22  and  C_30
REMARK                            x       y       z     vdW  Elec       q    Type
REMARK                         _______ _______ _______ _____ _____    ______ ____
ROOT
ATOM     14  C   UNL     1      14.335   8.366  20.644  0.00  0.00    +0.164 C 
ENDROOT
BRANCH  14   9
ATOM      2  N   UNL     1      13.464  10.596  21.390  0.00  0.00    -0.297 NA
ATOM      7  C   UNL     1      15.086  11.954  19.875  0.00  0.00    +0.005 C 
ATOM      8  C   UNL     1      13.666  11.917  19.278  0.00  0.00    +0.092 C 
ATOM      9  C   UNL     1      14.678   9.789  21.094  0.00  0.00    +0.078 C 
ATOM     10  C   UNL     1      15.586  10.510  20.074  0.00  0.00    +0.025 C 
ATOM     11  C   UNL     1      14.966  12.593  21.270  0.00  0.00    +0.020 C 
ATOM     12  C   UNL     1      12.785  10.985  20.129  0.00  0.00    +0.097 C 
ATOM     13  C   UNL     1      13.899  11.835  22.083  0.00  0.00    +0.085 C 
BRANCH   8  15
ATOM      1  O   UNL     1      14.273  12.159  16.982  0.00  0.00    -0.275 OA
ATOM      4  N   UNL     1      12.989  10.325  17.622  0.00  0.00    -0.313 N 
ATOM     15  C   UNL     1      13.693  11.497  17.840  0.00  0.00    +0.218 C 
ATOM     31  H   UNL     1      12.582   9.839  18.416  0.00  0.00    +0.149 HD
BRANCH   4  16
ATOM     16  C   UNL     1      12.844   9.722  16.317  0.00  0.00    +0.067 C 
ATOM     19  C   UNL     1      11.468   9.084  16.179  0.00  0.00    +0.027 C 
ATOM     20  C   UNL     1      13.951   8.703  16.073  0.00  0.00    +0.027 C 
ENDBRANCH   4  16
ENDBRANCH   8  15
ENDBRANCH  14   9
BRANCH  14   3
ATOM      3  N   UNL     1      15.529   7.582  20.376  0.00  0.00    -0.250 N 
ATOM      5  N   UNL     1      15.641   6.898  19.234  0.00  0.00    -0.065 NA
ATOM      6  N   UNL     1      16.820   6.286  19.266  0.00  0.00    -0.130 NA
ATOM     17  C   UNL     1      16.613   7.441  21.174  0.00  0.00    +0.138 A 
ATOM     18  C   UNL     1      17.428   6.608  20.448  0.00  0.00    +0.113 A 
BRANCH  18  21
ATOM     21  C   UNL     1      18.715   6.142  20.853  0.00  0.00    +0.004 A 
ATOM     23  C   UNL     1      19.309   6.636  22.019  0.00  0.00    +0.010 A 
ATOM     24  C   UNL     1      19.393   5.187  20.089  0.00  0.00    +0.010 A 
ATOM     25  C   UNL     1      21.237   5.228  21.648  0.00  0.00    -0.042 A 
ATOM     26  C   UNL     1      20.567   6.181  22.415  0.00  0.00    +0.005 A 
ATOM     27  C   UNL     1      20.650   4.732  20.485  0.00  0.00    +0.005 A 
BRANCH  25  22
ATOM     22  C   UNL     1      22.582   4.743  22.072  0.00  0.00    -0.013 C 
ATOM     28  C   UNL     1      22.588   3.195  22.270  0.00  0.00    +0.015 C 
ATOM     29  C   UNL     1      23.017   5.391  23.423  0.00  0.00    +0.015 C 
ATOM     30  C   UNL     1      23.749   5.038  21.073  0.00  0.00    +0.015 C 
ENDBRANCH  25  22
ENDBRANCH  18  21
ENDBRANCH  14   3
TORSDOF 6
ENDMDL
MODEL 8
REMARK VINA RESULT:      -6.3      1.346      3.441
REMARK  Name = 11942591
REMARK  11 active torsions:
REMARK  status: ('A' for Active; 'I' for Inactive)
REMARK    1  A    between atoms: N_3  and  C_14
REMARK    2  A    between atoms: N_4  and  C_16
REMARK    3  A    between atoms: C_8  and  C_15
REMARK    4  A    between atoms: C_9  and  C_14
REMARK    5  A    between atoms: C_16  and  C_19
REMARK    6  A    between atoms: C_16  and  C_20
REMARK    7  A    between atoms: C_18  and  C_21
REMARK    8  A    between atoms: C_22  and  C_25
REMARK    9  A    between atoms: C_22  and  C_28
REMARK   10  A    between atoms: C_22  and  C_29
REMARK   11  A    between atoms: C_22  and  C_30
REMARK                            x       y       z     vdW  Elec       q    Type
REMARK                         _______ _______ _______ _____ _____    ______ ____
ROOT
ATOM     14  C   UNL     1      14.800   9.310  20.447  0.00  0.00    +0.164 C 
ENDROOT
BRANCH  14   9
ATOM      2  N   UNL     1      13.382   7.263  20.741  0.00  0.00    -0.297 NA
ATOM      7  C   UNL     1      11.162   8.477  20.133  0.00  0.00    +0.005 C 
ATOM      8  C   UNL     1      11.665   7.614  18.960  0.00  0.00    +0.092 C 
ATOM      9  C   UNL     1      13.508   8.719  21.016  0.00  0.00    +0.078 C 
ATOM     10  C   UNL     1      12.261   9.485  20.522  0.00  0.00    +0.025 C 
ATOM     11  C   UNL     1      10.966   7.529  21.330  0.00  0.00    +0.020 C 
ATOM     12  C   UNL     1      13.047   7.036  19.313  0.00  0.00    +0.097 C 
ATOM     13  C   UNL     1      12.267   6.738  21.567  0.00  0.00    +0.085 C 
BRANCH   8  15
ATOM      1  O   UNL     1      10.699   8.545  16.986  0.00  0.00    -0.275 OA
ATOM      4  N   UNL     1      12.961   8.897  17.408  0.00  0.00    -0.313 N 
ATOM     15  C   UNL     1      11.699   8.400  17.685  0.00  0.00    +0.218 C 
ATOM     31  H   UNL     1      13.708   8.748  18.081  0.00  0.00    +0.149 HD
BRANCH   4  16
ATOM     16  C   UNL     1      13.264   9.669  16.226  0.00  0.00    +0.067 C 
ATOM     19  C   UNL     1      14.194   8.888  15.307  0.00  0.00    +0.027 C 
ATOM     20  C   UNL     1      13.868  11.015  16.607  0.00  0.00    +0.027 C 
ENDBRANCH   4  16
ENDBRANCH   8  15
ENDBRANCH  14   9
BRANCH  14   3
ATOM      3  N   UNL     1      15.846   8.307  20.327  0.00  0.00    -0.250 N 
ATOM      5  N   UNL     1      15.797   7.399  19.348  0.00  0.00    -0.065 NA
ATOM      6  N   UNL     1      16.868   6.626  19.487  0.00  0.00    -0.130 NA
ATOM     17  C   UNL     1      16.930   8.156  21.121  0.00  0.00    +0.138 A 
ATOM     18  C   UNL     1      17.573   7.075  20.570  0.00  0.00    +0.113 A 
BRANCH  18  21
ATOM     21  C   UNL     1      18.790   6.500  21.043  0.00  0.00    +0.004 A 
ATOM     23  C   UNL     1      19.431   5.498  20.306  0.00  0.00    +0.010 A 
ATOM     24  C   UNL     1      19.354   6.933  22.248  0.00  0.00    +0.010 A 
ATOM     25  C   UNL     1      21.177   5.372  21.970  0.00  0.00    -0.042 A 
ATOM     26  C   UNL     1      20.621   4.936  20.768  0.00  0.00    +0.005 A 
ATOM     27  C   UNL     1      20.544   6.370  22.710  0.00  0.00    +0.005 A 
BRANCH  25  22
ATOM     22  C   UNL     1      22.449   4.770  22.464  0.00  0.00    -0.013 C 
ATOM     28  C   UNL     1      22.345   3.214  22.542  0.00  0.00    +0.015 C 
ATOM     29  C   UNL     1      22.803   5.288  23.893  0.00  0.00    +0.015 C 
ATOM     30  C   UNL     1      23.714   5.059  21.590  0.00  0.00    +0.015 C 
ENDBRANCH  25  22
ENDBRANCH  18  21
ENDBRANCH  14   3
TORSDOF 6
ENDMDL
MODEL 9
REMARK VINA RESULT:      -6.3      3.638     10.147
REMARK  Name = 11942591
REMARK  11 active torsions:
REMARK  status: ('A' for Active; 'I' for Inactive)
REMARK    1  A    between atoms: N_3  and  C_14
REMARK    2  A    between atoms: N_4  and  C_16
REMARK    3  A    between atoms: C_8  and  C_15
REMARK    4  A    between atoms: C_9  and  C_14
REMARK    5  A    between atoms: C_16  and  C_19
REMARK    6  A    between atoms: C_16  and  C_20
REMARK    7  A    between atoms: C_18  and  C_21
REMARK    8  A    between atoms: C_22  and  C_25
REMARK    9  A    between atoms: C_22  and  C_28
REMARK   10  A    between atoms: C_22  and  C_29
REMARK   11  A    between atoms: C_22  and  C_30
REMARK                            x       y       z     vdW  Elec       q    Type
REMARK                         _______ _______ _______ _____ _____    ______ ____
ROOT
ATOM     14  C   UNL     1      20.494   5.986  20.630  0.00  0.00    +0.164 C 
ENDROOT
BRANCH  14   9
ATOM      2  N   UNL     1      21.871   7.849  21.589  0.00  0.00    -0.297 NA
ATOM      7  C   UNL     1      22.404   6.579  23.797  0.00  0.00    +0.005 C 
ATOM      8  C   UNL     1      23.610   6.561  22.839  0.00  0.00    +0.092 C 
ATOM      9  C   UNL     1      20.815   6.837  21.861  0.00  0.00    +0.078 C 
ATOM     10  C   UNL     1      21.184   5.966  23.081  0.00  0.00    +0.025 C 
ATOM     11  C   UNL     1      22.077   8.058  24.074  0.00  0.00    +0.020 C 
ATOM     12  C   UNL     1      23.199   7.193  21.498  0.00  0.00    +0.097 C 
ATOM     13  C   UNL     1      21.900   8.795  22.732  0.00  0.00    +0.085 C 
BRANCH   8  15
ATOM      1  O   UNL     1      24.601   4.527  23.600  0.00  0.00    -0.275 OA
ATOM      4  N   UNL     1      24.059   4.743  21.346  0.00  0.00    -0.313 N 
ATOM     15  C   UNL     1      24.140   5.170  22.660  0.00  0.00    +0.218 C 
ATOM     31  H   UNL     1      23.619   5.347  20.657  0.00  0.00    +0.149 HD
BRANCH   4  16
ATOM     16  C   UNL     1      24.524   3.448  20.906  0.00  0.00    +0.067 C 
ATOM     19  C   UNL     1      25.049   3.530  19.479  0.00  0.00    +0.027 C 
ATOM     20  C   UNL     1      23.413   2.411  21.027  0.00  0.00    +0.027 C 
ENDBRANCH   4  16
ENDBRANCH   8  15
ENDBRANCH  14   9
BRANCH  14   3
ATOM      3  N   UNL     1      19.081   6.033  20.293  0.00  0.00    -0.250 N 
ATOM      5  N   UNL     1      18.601   5.278  19.301  0.00  0.00    -0.065 NA
ATOM      6  N   UNL     1      17.299   5.526  19.224  0.00  0.00    -0.130 NA
ATOM     17  C   UNL     1      18.123   6.784  20.883  0.00  0.00    +0.138 A 
ATOM     18  C   UNL     1      16.989   6.448  20.186  0.00  0.00    +0.113 A 
BRANCH  18  21
ATOM     21  C   UNL     1      15.682   6.971  20.420  0.00  0.00    +0.004 A 
ATOM     23  C   UNL     1      14.726   6.964  19.399  0.00  0.00    +0.010 A 
ATOM     24  C   UNL     1      15.345   7.496  21.672  0.00  0.00    +0.010 A 
ATOM     25  C   UNL     1      13.120   7.997  20.878  0.00  0.00    -0.042 A 
ATOM     26  C   UNL     1      13.448   7.475  19.627  0.00  0.00    +0.005 A 
ATOM     27  C   UNL     1      14.068   8.008  21.900  0.00  0.00    +0.005 A 
BRANCH  25  22
ATOM     22  C   UNL     1      11.754   8.545  21.121  0.00  0.00    -0.013 C 
ATOM     28  C   UNL     1      10.925   8.604  19.799  0.00  0.00    +0.015 C 
ATOM     29  C   UNL     1      11.820   9.992  21.699  0.00  0.00    +0.015 C 
ATOM     30  C   UNL     1      10.873   7.733  22.127  0.00  0.00    +0.015 C 
ENDBRANCH  25  22
ENDBRANCH  18  21
ENDBRANCH  14   3
TORSDOF 6
ENDMDL
MODEL 10
REMARK VINA RESULT:      -6.3     27.328     32.788
REMARK  Name = 11942591
REMARK  11 active torsions:
REMARK  status: ('A' for Active; 'I' for Inactive)
REMARK    1  A    between atoms: N_3  and  C_14
REMARK    2  A    between atoms: N_4  and  C_16
REMARK    3  A    between atoms: C_8  and  C_15
REMARK    4  A    between atoms: C_9  and  C_14
REMARK    5  A    between atoms: C_16  and  C_19
REMARK    6  A    between atoms: C_16  and  C_20
REMARK    7  A    between atoms: C_18  and  C_21
REMARK    8  A    between atoms: C_22  and  C_25
REMARK    9  A    between atoms: C_22  and  C_28
REMARK   10  A    between atoms: C_22  and  C_29
REMARK   11  A    between atoms: C_22  and  C_30
REMARK                            x       y       z     vdW  Elec       q    Type
REMARK                         _______ _______ _______ _____ _____    ______ ____
ROOT
ATOM     14  C   UNL     1      -8.363 -12.065  16.780  0.00  0.00    +0.164 C 
ENDROOT
BRANCH  14   9
ATOM      2  N   UNL     1      -7.253 -10.654  18.531  0.00  0.00    -0.297 NA
ATOM      7  C   UNL     1      -4.915 -11.750  18.209  0.00  0.00    +0.005 C 
ATOM      8  C   UNL     1      -4.979 -10.365  17.538  0.00  0.00    +0.092 C 
ATOM      9  C   UNL     1      -7.407 -12.025  17.975  0.00  0.00    +0.078 C 
ATOM     10  C   UNL     1      -6.034 -12.640  17.632  0.00  0.00    +0.025 C 
ATOM     11  C   UNL     1      -5.226 -11.536  19.702  0.00  0.00    +0.020 C 
ATOM     12  C   UNL     1      -6.417  -9.824  17.629  0.00  0.00    +0.097 C 
ATOM     13  C   UNL     1      -6.555 -10.767  19.836  0.00  0.00    +0.085 C 
BRANCH   8  15
ATOM      1  O   UNL     1      -5.274 -10.412  15.169  0.00  0.00    -0.275 OA
ATOM      4  N   UNL     1      -3.117 -10.520  16.039  0.00  0.00    -0.313 N 
ATOM     15  C   UNL     1      -4.496 -10.427  16.120  0.00  0.00    +0.218 C 
ATOM     31  H   UNL     1      -2.569 -10.483  16.895  0.00  0.00    +0.149 HD
BRANCH   4  16
ATOM     16  C   UNL     1      -2.404 -10.616  14.787  0.00  0.00    +0.067 C 
ATOM     19  C   UNL     1      -2.096 -12.072  14.463  0.00  0.00    +0.027 C 
ATOM     20  C   UNL     1      -1.131  -9.779  14.831  0.00  0.00    +0.027 C 
ENDBRANCH   4  16
ENDBRANCH   8  15
ENDBRANCH  14   9
BRANCH  14   3
ATOM      3  N   UNL     1      -9.530 -11.224  16.994  0.00  0.00    -0.250 N 
ATOM      5  N   UNL     1      -9.800 -10.224  16.150  0.00  0.00    -0.065 NA
ATOM      6  N   UNL     1     -10.909  -9.639  16.589  0.00  0.00    -0.130 NA
ATOM     17  C   UNL     1     -10.438 -11.320  17.992  0.00  0.00    +0.138 A 
ATOM     18  C   UNL     1     -11.312 -10.298  17.718  0.00  0.00    +0.113 A 
BRANCH  18  21
ATOM     21  C   UNL     1     -12.469  -9.965  18.484  0.00  0.00    +0.004 A 
ATOM     23  C   UNL     1     -12.397  -9.905  19.880  0.00  0.00    +0.010 A 
ATOM     24  C   UNL     1     -13.684  -9.694  17.847  0.00  0.00    +0.010 A 
ATOM     25  C   UNL     1     -14.736  -9.310  19.988  0.00  0.00    -0.042 A 
ATOM     26  C   UNL     1     -13.528  -9.578  20.630  0.00  0.00    +0.005 A 
ATOM     27  C   UNL     1     -14.815  -9.367  18.597  0.00  0.00    +0.005 A 
BRANCH  25  22
ATOM     22  C   UNL     1     -15.944  -8.961  20.790  0.00  0.00    -0.013 C 
ATOM     28  C   UNL     1     -16.232 -10.043  21.877  0.00  0.00    +0.015 C 
ATOM     29  C   UNL     1     -17.212  -8.855  19.886  0.00  0.00    +0.015 C 
ATOM     30  C   UNL     1     -15.869  -7.604  21.564  0.00  0.00    +0.015 C 
ENDBRANCH  25  22
ENDBRANCH  18  21
ENDBRANCH  14   3
TORSDOF 6
ENDMDL
