MODEL 1
REMARK VINA RESULT:      -6.8      0.000      0.000
REMARK  Name = 11942509
REMARK  11 active torsions:
REMARK  status: ('A' for Active; 'I' for Inactive)
REMARK    1  A    between atoms: N_4  and  C_16
REMARK    2  A    between atoms: N_5  and  C_19
REMARK    3  A    between atoms: N_8  and  C_21
REMARK    4  A    between atoms: C_10  and  C_16
REMARK    5  A    between atoms: C_11  and  C_17
REMARK    6  A    between atoms: C_19  and  C_21
REMARK    7  A    between atoms: C_20  and  C_22
REMARK    8  A    between atoms: C_22  and  C_23
REMARK    9  A    between atoms: C_23  and  C_24
REMARK   10  A    between atoms: C_24  and  C_26
REMARK   11  A    between atoms: C_25  and  C_27
REMARK                            x       y       z     vdW  Elec       q    Type
REMARK                         _______ _______ _______ _____ _____    ______ ____
ROOT
ATOM      3  N   UNL     1      14.585   8.923  18.752  0.00  0.00    -0.297 NA
ATOM      9  C   UNL     1      12.077   8.635  18.124  0.00  0.00    +0.005 C 
ATOM     10  C   UNL     1      14.255   7.479  18.635  0.00  0.00    +0.078 C 
ATOM     11  C   UNL     1      12.242   9.546  19.355  0.00  0.00    +0.092 C 
ATOM     12  C   UNL     1      12.740   7.274  18.413  0.00  0.00    +0.025 C 
ATOM     13  C   UNL     1      12.863   9.292  16.976  0.00  0.00    +0.020 C 
ATOM     14  C   UNL     1      13.723   9.568  19.773  0.00  0.00    +0.097 C 
ATOM     15  C   UNL     1      14.306   9.563  17.442  0.00  0.00    +0.085 C 
ENDROOT
BRANCH  11  17
ATOM      1  O   UNL     1      10.614   8.131  20.376  0.00  0.00    -0.275 OA
ATOM      5  N   UNL     1      11.460   9.929  21.586  0.00  0.00    -0.314 N 
ATOM     17  C   UNL     1      11.353   9.105  20.479  0.00  0.00    +0.218 C 
ATOM     28  H   UNL     1      12.100  10.718  21.561  0.00  0.00    +0.149 HD
BRANCH   5  19
ATOM     19  C   UNL     1      10.692   9.735  22.794  0.00  0.00    +0.123 C 
BRANCH  19  21
ATOM     21  C   UNL     1      11.034  10.758  23.862  0.00  0.00    +0.123 C 
BRANCH  21   8
ATOM      2  O   UNL     1      11.913  13.521  23.709  0.00  0.00    -0.276 OA
ATOM      8  N   UNL     1      10.211  11.933  23.769  0.00  0.00    -0.314 N 
ATOM     25  C   UNL     1      10.722  13.222  23.699  0.00  0.00    +0.210 C 
ATOM     27  C   UNL     1       9.642  14.263  23.581  0.00  0.00    +0.109 C 
ATOM     29  H   UNL     1       9.204  11.798  23.731  0.00  0.00    +0.149 HD
ENDBRANCH  21   8
ENDBRANCH  19  21
ENDBRANCH   5  19
ENDBRANCH  11  17
BRANCH  10  16
ATOM     16  C   UNL     1      14.771   6.664  19.823  0.00  0.00    +0.164 C 
BRANCH  16   4
ATOM      4  N   UNL     1      16.208   6.456  19.753  0.00  0.00    -0.250 N 
ATOM      6  N   UNL     1      16.729   5.675  18.802  0.00  0.00    -0.065 NA
ATOM      7  N   UNL     1      18.044   5.668  18.987  0.00  0.00    -0.135 NA
ATOM     18  C   UNL     1      17.152   6.974  20.573  0.00  0.00    +0.133 A 
ATOM     20  C   UNL     1      18.319   6.458  20.069  0.00  0.00    +0.083 A 
BRANCH  20  22
ATOM     22  C   UNL     1      19.698   6.660  20.535  0.00  0.00    +0.059 C 
BRANCH  22  23
ATOM     23  C   UNL     1      20.333   5.389  21.138  0.00  0.00    +0.006 C 
BRANCH  23  24
ATOM     24  C   UNL     1      21.051   5.668  22.459  0.00  0.00    -0.003 C 
ATOM     26  C   UNL     1      20.396   6.811  23.218  0.00  0.00    +0.004 C 
ENDBRANCH  23  24
ENDBRANCH  22  23
ENDBRANCH  20  22
ENDBRANCH  16   4
ENDBRANCH  10  16
TORSDOF 9
ENDMDL
MODEL 2
REMARK VINA RESULT:      -6.5      3.271      5.625
REMARK  Name = 11942509
REMARK  11 active torsions:
REMARK  status: ('A' for Active; 'I' for Inactive)
REMARK    1  A    between atoms: N_4  and  C_16
REMARK    2  A    between atoms: N_5  and  C_19
REMARK    3  A    between atoms: N_8  and  C_21
REMARK    4  A    between atoms: C_10  and  C_16
REMARK    5  A    between atoms: C_11  and  C_17
REMARK    6  A    between atoms: C_19  and  C_21
REMARK    7  A    between atoms: C_20  and  C_22
REMARK    8  A    between atoms: C_22  and  C_23
REMARK    9  A    between atoms: C_23  and  C_24
REMARK   10  A    between atoms: C_24  and  C_26
REMARK   11  A    between atoms: C_25  and  C_27
REMARK                            x       y       z     vdW  Elec       q    Type
REMARK                         _______ _______ _______ _____ _____    ______ ____
ROOT
ATOM      3  N   UNL     1      12.446   8.037  19.383  0.00  0.00    -0.297 NA
ATOM      9  C   UNL     1      13.427  10.327  18.633  0.00  0.00    +0.005 C 
ATOM     10  C   UNL     1      13.926   8.021  19.513  0.00  0.00    +0.078 C 
ATOM     11  C   UNL     1      12.492   9.743  17.557  0.00  0.00    +0.092 C 
ATOM     12  C   UNL     1      14.547   9.311  18.933  0.00  0.00    +0.025 C 
ATOM     13  C   UNL     1      12.590  10.477  19.915  0.00  0.00    +0.020 C 
ATOM     14  C   UNL     1      12.055   8.329  17.981  0.00  0.00    +0.097 C 
ATOM     15  C   UNL     1      11.923   9.128  20.244  0.00  0.00    +0.085 C 
ENDROOT
BRANCH  11  17
ATOM      1  O   UNL     1      13.179   8.737  15.504  0.00  0.00    -0.275 OA
ATOM      5  N   UNL     1      13.718  10.966  15.903  0.00  0.00    -0.314 N 
ATOM     17  C   UNL     1      13.151   9.741  16.210  0.00  0.00    +0.218 C 
ATOM     28  H   UNL     1      13.643  11.731  16.566  0.00  0.00    +0.149 HD
BRANCH   5  19
ATOM     19  C   UNL     1      14.432  11.220  14.673  0.00  0.00    +0.123 C 
BRANCH  19  21
ATOM     21  C   UNL     1      13.862  12.404  13.912  0.00  0.00    +0.123 C 
BRANCH  21   8
ATOM      2  O   UNL     1      12.224  11.900  11.569  0.00  0.00    -0.276 OA
ATOM      8  N   UNL     1      12.426  12.360  13.843  0.00  0.00    -0.314 N 
ATOM     25  C   UNL     1      11.725  12.109  12.671  0.00  0.00    +0.210 C 
ATOM     27  C   UNL     1      10.235  12.094  12.885  0.00  0.00    +0.109 C 
ATOM     29  H   UNL     1      11.910  12.499  14.707  0.00  0.00    +0.149 HD
ENDBRANCH  21   8
ENDBRANCH  19  21
ENDBRANCH   5  19
ENDBRANCH  11  17
BRANCH  10  16
ATOM     16  C   UNL     1      14.552   6.765  18.904  0.00  0.00    +0.164 C 
BRANCH  16   4
ATOM      4  N   UNL     1      15.905   6.545  19.387  0.00  0.00    -0.250 N 
ATOM      6  N   UNL     1      16.756   5.792  18.683  0.00  0.00    -0.065 NA
ATOM      7  N   UNL     1      17.898   5.766  19.361  0.00  0.00    -0.135 NA
ATOM     18  C   UNL     1      16.456   7.023  20.527  0.00  0.00    +0.133 A 
ATOM     20  C   UNL     1      17.730   6.514  20.494  0.00  0.00    +0.083 A 
BRANCH  20  22
ATOM     22  C   UNL     1      18.820   6.685  21.463  0.00  0.00    +0.059 C 
BRANCH  22  23
ATOM     23  C   UNL     1      20.225   6.602  20.828  0.00  0.00    +0.006 C 
BRANCH  23  24
ATOM     24  C   UNL     1      21.093   5.523  21.477  0.00  0.00    -0.003 C 
ATOM     26  C   UNL     1      21.020   4.214  20.709  0.00  0.00    +0.004 C 
ENDBRANCH  23  24
ENDBRANCH  22  23
ENDBRANCH  20  22
ENDBRANCH  16   4
ENDBRANCH  10  16
TORSDOF 9
ENDMDL
MODEL 3
REMARK VINA RESULT:      -6.4      2.737      4.613
REMARK  Name = 11942509
REMARK  11 active torsions:
REMARK  status: ('A' for Active; 'I' for Inactive)
REMARK    1  A    between atoms: N_4  and  C_16
REMARK    2  A    between atoms: N_5  and  C_19
REMARK    3  A    between atoms: N_8  and  C_21
REMARK    4  A    between atoms: C_10  and  C_16
REMARK    5  A    between atoms: C_11  and  C_17
REMARK    6  A    between atoms: C_19  and  C_21
REMARK    7  A    between atoms: C_20  and  C_22
REMARK    8  A    between atoms: C_22  and  C_23
REMARK    9  A    between atoms: C_23  and  C_24
REMARK   10  A    between atoms: C_24  and  C_26
REMARK   11  A    between atoms: C_25  and  C_27
REMARK                            x       y       z     vdW  Elec       q    Type
REMARK                         _______ _______ _______ _____ _____    ______ ____
ROOT
ATOM      3  N   UNL     1      12.365   7.855  21.458  0.00  0.00    -0.297 NA
ATOM      9  C   UNL     1      12.830   9.839  19.840  0.00  0.00    +0.005 C 
ATOM     10  C   UNL     1      13.807   7.889  21.099  0.00  0.00    +0.078 C 
ATOM     11  C   UNL     1      11.672   8.961  19.327  0.00  0.00    +0.092 C 
ATOM     12  C   UNL     1      14.084   8.960  20.022  0.00  0.00    +0.025 C 
ATOM     13  C   UNL     1      12.420  10.346  21.234  0.00  0.00    +0.020 C 
ATOM     14  C   UNL     1      11.532   7.727  20.236  0.00  0.00    +0.097 C 
ATOM     15  C   UNL     1      12.028   9.144  22.114  0.00  0.00    +0.085 C 
ENDROOT
BRANCH  11  17
ATOM      1  O   UNL     1      11.715   7.423  17.503  0.00  0.00    -0.275 OA
ATOM      5  N   UNL     1      12.284   9.647  17.116  0.00  0.00    -0.314 N 
ATOM     17  C   UNL     1      11.878   8.575  17.894  0.00  0.00    +0.218 C 
ATOM     28  H   UNL     1      12.397  10.560  17.546  0.00  0.00    +0.149 HD
BRANCH   5  19
ATOM     19  C   UNL     1      12.572   9.535  15.705  0.00  0.00    +0.123 C 
BRANCH  19  21
ATOM     21  C   UNL     1      14.041   9.768  15.400  0.00  0.00    +0.123 C 
BRANCH  21   8
ATOM      2  O   UNL     1      14.680  12.577  15.754  0.00  0.00    -0.276 OA
ATOM      8  N   UNL     1      14.733  10.374  16.505  0.00  0.00    -0.314 N 
ATOM     25  C   UNL     1      14.995  11.734  16.590  0.00  0.00    +0.210 C 
ATOM     27  C   UNL     1      15.708  12.104  17.862  0.00  0.00    +0.109 C 
ATOM     29  H   UNL     1      15.021   9.767  17.268  0.00  0.00    +0.149 HD
ENDBRANCH  21   8
ENDBRANCH  19  21
ENDBRANCH   5  19
ENDBRANCH  11  17
BRANCH  10  16
ATOM     16  C   UNL     1      14.336   6.514  20.683  0.00  0.00    +0.164 C 
BRANCH  16   4
ATOM      4  N   UNL     1      15.766   6.541  20.423  0.00  0.00    -0.250 N 
ATOM      6  N   UNL     1      16.250   6.044  19.280  0.00  0.00    -0.065 NA
ATOM      7  N   UNL     1      17.569   6.199  19.322  0.00  0.00    -0.135 NA
ATOM     18  C   UNL     1      16.737   7.028  21.229  0.00  0.00    +0.133 A 
ATOM     20  C   UNL     1      17.883   6.800  20.509  0.00  0.00    +0.083 A 
BRANCH  20  22
ATOM     22  C   UNL     1      19.275   7.113  20.861  0.00  0.00    +0.059 C 
BRANCH  22  23
ATOM     23  C   UNL     1      20.083   5.880  21.322  0.00  0.00    +0.006 C 
BRANCH  23  24
ATOM     24  C   UNL     1      21.589   6.142  21.330  0.00  0.00    -0.003 C 
ATOM     26  C   UNL     1      22.325   5.183  20.408  0.00  0.00    +0.004 C 
ENDBRANCH  23  24
ENDBRANCH  22  23
ENDBRANCH  20  22
ENDBRANCH  16   4
ENDBRANCH  10  16
TORSDOF 9
ENDMDL
MODEL 4
REMARK VINA RESULT:      -6.3     27.636     31.323
REMARK  Name = 11942509
REMARK  11 active torsions:
REMARK  status: ('A' for Active; 'I' for Inactive)
REMARK    1  A    between atoms: N_4  and  C_16
REMARK    2  A    between atoms: N_5  and  C_19
REMARK    3  A    between atoms: N_8  and  C_21
REMARK    4  A    between atoms: C_10  and  C_16
REMARK    5  A    between atoms: C_11  and  C_17
REMARK    6  A    between atoms: C_19  and  C_21
REMARK    7  A    between atoms: C_20  and  C_22
REMARK    8  A    between atoms: C_22  and  C_23
REMARK    9  A    between atoms: C_23  and  C_24
REMARK   10  A    between atoms: C_24  and  C_26
REMARK   11  A    between atoms: C_25  and  C_27
REMARK                            x       y       z     vdW  Elec       q    Type
REMARK                         _______ _______ _______ _____ _____    ______ ____
ROOT
ATOM      3  N   UNL     1     -18.493   3.317  25.546  0.00  0.00    -0.297 NA
ATOM      9  C   UNL     1     -16.649   1.830  26.621  0.00  0.00    +0.005 C 
ATOM     10  C   UNL     1     -17.190   3.560  24.873  0.00  0.00    +0.078 C 
ATOM     11  C   UNL     1     -17.410   2.635  27.692  0.00  0.00    +0.092 C 
ATOM     12  C   UNL     1     -16.049   2.806  25.590  0.00  0.00    +0.025 C 
ATOM     13  C   UNL     1     -17.693   0.972  25.885  0.00  0.00    +0.020 C 
ATOM     14  C   UNL     1     -18.385   3.603  26.998  0.00  0.00    +0.097 C 
ATOM     15  C   UNL     1     -18.830   1.881  25.382  0.00  0.00    +0.085 C 
ENDROOT
BRANCH  11  17
ATOM      1  O   UNL     1     -16.601   4.547  28.869  0.00  0.00    -0.275 OA
ATOM      5  N   UNL     1     -15.444   2.537  29.054  0.00  0.00    -0.314 N 
ATOM     17  C   UNL     1     -16.462   3.357  28.601  0.00  0.00    +0.218 C 
ATOM     28  H   UNL     1     -15.419   1.564  28.763  0.00  0.00    +0.149 HD
BRANCH   5  19
ATOM     19  C   UNL     1     -14.387   2.996  29.926  0.00  0.00    +0.123 C 
BRANCH  19  21
ATOM     21  C   UNL     1     -13.933   1.917  30.894  0.00  0.00    +0.123 C 
BRANCH  21   8
ATOM      2  O   UNL     1     -15.149  -0.527  29.906  0.00  0.00    -0.276 OA
ATOM      8  N   UNL     1     -13.281   0.828  30.220  0.00  0.00    -0.314 N 
ATOM     25  C   UNL     1     -13.947  -0.308  29.780  0.00  0.00    +0.210 C 
ATOM     27  C   UNL     1     -13.032  -1.279  29.084  0.00  0.00    +0.109 C 
ATOM     29  H   UNL     1     -12.284   0.915  30.043  0.00  0.00    +0.149 HD
ENDBRANCH  21   8
ENDBRANCH  19  21
ENDBRANCH   5  19
ENDBRANCH  11  17
BRANCH  10  16
ATOM     16  C   UNL     1     -16.880   5.052  24.725  0.00  0.00    +0.164 C 
BRANCH  16   4
ATOM      4  N   UNL     1     -16.017   5.314  23.585  0.00  0.00    -0.250 N 
ATOM      6  N   UNL     1     -16.547   5.538  22.378  0.00  0.00    -0.065 NA
ATOM      7  N   UNL     1     -15.533   5.739  21.544  0.00  0.00    -0.135 NA
ATOM     18  C   UNL     1     -14.665   5.362  23.574  0.00  0.00    +0.133 A 
ATOM     20  C   UNL     1     -14.373   5.634  22.261  0.00  0.00    +0.083 A 
BRANCH  20  22
ATOM     22  C   UNL     1     -13.062   5.807  21.622  0.00  0.00    +0.059 C 
BRANCH  22  23
ATOM     23  C   UNL     1     -12.859   7.210  21.010  0.00  0.00    +0.006 C 
BRANCH  23  24
ATOM     24  C   UNL     1     -11.449   7.404  20.453  0.00  0.00    -0.003 C 
ATOM     26  C   UNL     1     -11.392   7.101  18.964  0.00  0.00    +0.004 C 
ENDBRANCH  23  24
ENDBRANCH  22  23
ENDBRANCH  20  22
ENDBRANCH  16   4
ENDBRANCH  10  16
TORSDOF 9
ENDMDL
MODEL 5
REMARK VINA RESULT:      -6.1     27.075     29.910
REMARK  Name = 11942509
REMARK  11 active torsions:
REMARK  status: ('A' for Active; 'I' for Inactive)
REMARK    1  A    between atoms: N_4  and  C_16
REMARK    2  A    between atoms: N_5  and  C_19
REMARK    3  A    between atoms: N_8  and  C_21
REMARK    4  A    between atoms: C_10  and  C_16
REMARK    5  A    between atoms: C_11  and  C_17
REMARK    6  A    between atoms: C_19  and  C_21
REMARK    7  A    between atoms: C_20  and  C_22
REMARK    8  A    between atoms: C_22  and  C_23
REMARK    9  A    between atoms: C_23  and  C_24
REMARK   10  A    between atoms: C_24  and  C_26
REMARK   11  A    between atoms: C_25  and  C_27
REMARK                            x       y       z     vdW  Elec       q    Type
REMARK                         _______ _______ _______ _____ _____    ______ ____
ROOT
ATOM      3  N   UNL     1      -6.256 -10.387  17.954  0.00  0.00    -0.297 NA
ATOM      9  C   UNL     1      -4.826 -12.553  17.769  0.00  0.00    +0.005 C 
ATOM     10  C   UNL     1      -7.138 -11.557  17.702  0.00  0.00    +0.078 C 
ATOM     11  C   UNL     1      -4.296 -11.454  16.828  0.00  0.00    +0.092 C 
ATOM     12  C   UNL     1      -6.305 -12.830  17.436  0.00  0.00    +0.025 C 
ATOM     13  C   UNL     1      -4.778 -11.978  19.195  0.00  0.00    +0.020 C 
ATOM     14  C   UNL     1      -5.256 -10.251  16.865  0.00  0.00    +0.097 C 
ATOM     15  C   UNL     1      -5.526 -10.631  19.223  0.00  0.00    +0.085 C 
ENDROOT
BRANCH  11  17
ATOM      1  O   UNL     1      -4.810 -11.591  14.501  0.00  0.00    -0.275 OA
ATOM      5  N   UNL     1      -3.107 -12.925  15.360  0.00  0.00    -0.314 N 
ATOM     17  C   UNL     1      -4.112 -11.975  15.435  0.00  0.00    +0.218 C 
ATOM     28  H   UNL     1      -2.595 -13.176  16.200  0.00  0.00    +0.149 HD
BRANCH   5  19
ATOM     19  C   UNL     1      -2.746 -13.599  14.134  0.00  0.00    +0.123 C 
BRANCH  19  21
ATOM     21  C   UNL     1      -1.520 -12.985  13.482  0.00  0.00    +0.123 C 
BRANCH  21   8
ATOM      2  O   UNL     1      -1.809 -10.099  13.607  0.00  0.00    -0.276 OA
ATOM      8  N   UNL     1      -1.868 -12.095  12.408  0.00  0.00    -0.314 N 
ATOM     25  C   UNL     1      -1.983 -10.720  12.562  0.00  0.00    +0.210 C 
ATOM     27  C   UNL     1      -2.331 -10.024  11.274  0.00  0.00    +0.109 C 
ATOM     29  H   UNL     1      -2.013 -12.503  11.489  0.00  0.00    +0.149 HD
ENDBRANCH  21   8
ENDBRANCH  19  21
ENDBRANCH   5  19
ENDBRANCH  11  17
BRANCH  10  16
ATOM     16  C   UNL     1      -8.148 -11.295  16.583  0.00  0.00    +0.164 C 
BRANCH  16   4
ATOM      4  N   UNL     1      -9.131 -10.293  16.964  0.00  0.00    -0.250 N 
ATOM      6  N   UNL     1      -9.770 -10.391  18.134  0.00  0.00    -0.065 NA
ATOM      7  N   UNL     1     -10.598  -9.355  18.208  0.00  0.00    -0.135 NA
ATOM     18  C   UNL     1      -9.515  -9.209  16.252  0.00  0.00    +0.133 A 
ATOM     20  C   UNL     1     -10.454  -8.621  17.062  0.00  0.00    +0.083 A 
BRANCH  20  22
ATOM     22  C   UNL     1     -11.237  -7.399  16.835  0.00  0.00    +0.059 C 
BRANCH  22  23
ATOM     23  C   UNL     1     -10.590  -6.437  15.817  0.00  0.00    +0.006 C 
BRANCH  23  24
ATOM     24  C   UNL     1     -11.596  -5.911  14.793  0.00  0.00    -0.003 C 
ATOM     26  C   UNL     1     -13.027  -6.154  15.243  0.00  0.00    +0.004 C 
ENDBRANCH  23  24
ENDBRANCH  22  23
ENDBRANCH  20  22
ENDBRANCH  16   4
ENDBRANCH  10  16
TORSDOF 9
ENDMDL
MODEL 6
REMARK VINA RESULT:      -6.1      2.912      5.323
REMARK  Name = 11942509
REMARK  11 active torsions:
REMARK  status: ('A' for Active; 'I' for Inactive)
REMARK    1  A    between atoms: N_4  and  C_16
REMARK    2  A    between atoms: N_5  and  C_19
REMARK    3  A    between atoms: N_8  and  C_21
REMARK    4  A    between atoms: C_10  and  C_16
REMARK    5  A    between atoms: C_11  and  C_17
REMARK    6  A    between atoms: C_19  and  C_21
REMARK    7  A    between atoms: C_20  and  C_22
REMARK    8  A    between atoms: C_22  and  C_23
REMARK    9  A    between atoms: C_23  and  C_24
REMARK   10  A    between atoms: C_24  and  C_26
REMARK   11  A    between atoms: C_25  and  C_27
REMARK                            x       y       z     vdW  Elec       q    Type
REMARK                         _______ _______ _______ _____ _____    ______ ____
ROOT
ATOM      3  N   UNL     1      15.178   7.344  18.939  0.00  0.00    -0.297 NA
ATOM      9  C   UNL     1      14.614   8.464  21.219  0.00  0.00    +0.005 C 
ATOM     10  C   UNL     1      14.837   8.776  18.730  0.00  0.00    +0.078 C 
ATOM     11  C   UNL     1      13.789   7.179  21.010  0.00  0.00    +0.092 C 
ATOM     12  C   UNL     1      14.351   9.427  20.043  0.00  0.00    +0.025 C 
ATOM     13  C   UNL     1      16.096   8.057  21.154  0.00  0.00    +0.020 C 
ATOM     14  C   UNL     1      14.049   6.636  19.594  0.00  0.00    +0.097 C 
ATOM     15  C   UNL     1      16.350   7.282  19.847  0.00  0.00    +0.085 C 
ENDROOT
BRANCH  11  17
ATOM      1  O   UNL     1      11.463   6.942  20.531  0.00  0.00    -0.275 OA
ATOM      5  N   UNL     1      12.113   8.258  22.337  0.00  0.00    -0.314 N 
ATOM     17  C   UNL     1      12.331   7.426  21.253  0.00  0.00    +0.218 C 
ATOM     28  H   UNL     1      12.908   8.611  22.862  0.00  0.00    +0.149 HD
BRANCH   5  19
ATOM     19  C   UNL     1      10.796   8.669  22.767  0.00  0.00    +0.123 C 
BRANCH  19  21
ATOM     21  C   UNL     1      10.670  10.180  22.861  0.00  0.00    +0.123 C 
BRANCH  21   8
ATOM      2  O   UNL     1      10.314  12.300  24.812  0.00  0.00    -0.276 OA
ATOM      8  N   UNL     1      11.670  10.753  23.721  0.00  0.00    -0.314 N 
ATOM     25  C   UNL     1      11.406  11.769  24.629  0.00  0.00    +0.210 C 
ATOM     27  C   UNL     1      12.623  12.164  25.421  0.00  0.00    +0.109 C 
ATOM     29  H   UNL     1      12.610  10.370  23.668  0.00  0.00    +0.149 HD
ENDBRANCH  21   8
ENDBRANCH  19  21
ENDBRANCH   5  19
ENDBRANCH  11  17
BRANCH  10  16
ATOM     16  C   UNL     1      13.835   8.977  17.591  0.00  0.00    +0.164 C 
BRANCH  16   4
ATOM      4  N   UNL     1      14.412   9.729  16.489  0.00  0.00    -0.250 N 
ATOM      6  N   UNL     1      14.376   9.235  15.247  0.00  0.00    -0.065 NA
ATOM      7  N   UNL     1      14.973  10.124  14.462  0.00  0.00    -0.135 NA
ATOM     18  C   UNL     1      15.023  10.934  16.550  0.00  0.00    +0.133 A 
ATOM     20  C   UNL     1      15.376  11.171  15.245  0.00  0.00    +0.083 A 
BRANCH  20  22
ATOM     22  C   UNL     1      16.074  12.329  14.671  0.00  0.00    +0.059 C 
BRANCH  22  23
ATOM     23  C   UNL     1      17.602  12.292  14.885  0.00  0.00    +0.006 C 
BRANCH  23  24
ATOM     24  C   UNL     1      18.374  12.295  13.565  0.00  0.00    -0.003 C 
ATOM     26  C   UNL     1      19.866  12.109  13.793  0.00  0.00    +0.004 C 
ENDBRANCH  23  24
ENDBRANCH  22  23
ENDBRANCH  20  22
ENDBRANCH  16   4
ENDBRANCH  10  16
TORSDOF 9
ENDMDL
MODEL 7
REMARK VINA RESULT:      -6.1     27.265     28.839
REMARK  Name = 11942509
REMARK  11 active torsions:
REMARK  status: ('A' for Active; 'I' for Inactive)
REMARK    1  A    between atoms: N_4  and  C_16
REMARK    2  A    between atoms: N_5  and  C_19
REMARK    3  A    between atoms: N_8  and  C_21
REMARK    4  A    between atoms: C_10  and  C_16
REMARK    5  A    between atoms: C_11  and  C_17
REMARK    6  A    between atoms: C_19  and  C_21
REMARK    7  A    between atoms: C_20  and  C_22
REMARK    8  A    between atoms: C_22  and  C_23
REMARK    9  A    between atoms: C_23  and  C_24
REMARK   10  A    between atoms: C_24  and  C_26
REMARK   11  A    between atoms: C_25  and  C_27
REMARK                            x       y       z     vdW  Elec       q    Type
REMARK                         _______ _______ _______ _____ _____    ______ ____
ROOT
ATOM      3  N   UNL     1      -5.080 -12.718  16.895  0.00  0.00    -0.297 NA
ATOM      9  C   UNL     1      -5.401 -11.414  19.124  0.00  0.00    +0.005 C 
ATOM     10  C   UNL     1      -4.664 -11.301  16.718  0.00  0.00    +0.078 C 
ATOM     11  C   UNL     1      -6.691 -12.156  18.721  0.00  0.00    +0.092 C 
ATOM     12  C   UNL     1      -4.987 -10.469  17.978  0.00  0.00    +0.025 C 
ATOM     13  C   UNL     1      -4.299 -12.479  19.259  0.00  0.00    +0.020 C 
ATOM     14  C   UNL     1      -6.496 -12.789  17.331  0.00  0.00    +0.097 C 
ATOM     15  C   UNL     1      -4.237 -13.310  17.964  0.00  0.00    +0.085 C 
ENDROOT
BRANCH  11  17
ATOM      1  O   UNL     1      -8.368 -10.856  19.812  0.00  0.00    -0.275 OA
ATOM      5  N   UNL     1      -8.331 -10.925  17.486  0.00  0.00    -0.314 N 
ATOM     17  C   UNL     1      -7.876 -11.240  18.755  0.00  0.00    +0.218 C 
ATOM     28  H   UNL     1      -7.852 -11.306  16.675  0.00  0.00    +0.149 HD
BRANCH   5  19
ATOM     19  C   UNL     1      -9.476 -10.077  17.244  0.00  0.00    +0.123 C 
BRANCH  19  21
ATOM     21  C   UNL     1      -9.211  -9.055  16.152  0.00  0.00    +0.123 C 
BRANCH  21   8
ATOM      2  O   UNL     1     -11.274  -7.750  14.580  0.00  0.00    -0.276 OA
ATOM      8  N   UNL     1      -9.852  -7.797  16.423  0.00  0.00    -0.314 N 
ATOM     25  C   UNL     1     -10.835  -7.248  15.611  0.00  0.00    +0.210 C 
ATOM     27  C   UNL     1     -11.353  -5.938  16.140  0.00  0.00    +0.109 C 
ATOM     29  H   UNL     1      -9.577  -7.303  17.268  0.00  0.00    +0.149 HD
ENDBRANCH  21   8
ENDBRANCH  19  21
ENDBRANCH   5  19
ENDBRANCH  11  17
BRANCH  10  16
ATOM     16  C   UNL     1      -5.257 -10.673  15.455  0.00  0.00    +0.164 C 
BRANCH  16   4
ATOM      4  N   UNL     1      -4.300 -10.655  14.360  0.00  0.00    -0.250 N 
ATOM      6  N   UNL     1      -2.990 -10.574  14.614  0.00  0.00    -0.065 NA
ATOM      7  N   UNL     1      -2.371 -10.572  13.439  0.00  0.00    -0.135 NA
ATOM     18  C   UNL     1      -4.570 -10.707  13.035  0.00  0.00    +0.133 A 
ATOM     20  C   UNL     1      -3.324 -10.653  12.461  0.00  0.00    +0.083 A 
BRANCH  20  22
ATOM     22  C   UNL     1      -2.959 -10.673  11.039  0.00  0.00    +0.059 C 
BRANCH  22  23
ATOM     23  C   UNL     1      -2.869  -9.267  10.409  0.00  0.00    +0.006 C 
BRANCH  23  24
ATOM     24  C   UNL     1      -3.996  -9.004   9.409  0.00  0.00    -0.003 C 
ATOM     26  C   UNL     1      -5.167  -8.291  10.066  0.00  0.00    +0.004 C 
ENDBRANCH  23  24
ENDBRANCH  22  23
ENDBRANCH  20  22
ENDBRANCH  16   4
ENDBRANCH  10  16
TORSDOF 9
ENDMDL
MODEL 8
REMARK VINA RESULT:      -6.0     15.556     19.023
REMARK  Name = 11942509
REMARK  11 active torsions:
REMARK  status: ('A' for Active; 'I' for Inactive)
REMARK    1  A    between atoms: N_4  and  C_16
REMARK    2  A    between atoms: N_5  and  C_19
REMARK    3  A    between atoms: N_8  and  C_21
REMARK    4  A    between atoms: C_10  and  C_16
REMARK    5  A    between atoms: C_11  and  C_17
REMARK    6  A    between atoms: C_19  and  C_21
REMARK    7  A    between atoms: C_20  and  C_22
REMARK    8  A    between atoms: C_22  and  C_23
REMARK    9  A    between atoms: C_23  and  C_24
REMARK   10  A    between atoms: C_24  and  C_26
REMARK   11  A    between atoms: C_25  and  C_27
REMARK                            x       y       z     vdW  Elec       q    Type
REMARK                         _______ _______ _______ _____ _____    ______ ____
ROOT
ATOM      3  N   UNL     1       9.674   7.290   4.006  0.00  0.00    -0.297 NA
ATOM      9  C   UNL     1       9.296   5.752   6.070  0.00  0.00    +0.005 C 
ATOM     10  C   UNL     1      10.010   5.884   3.659  0.00  0.00    +0.078 C 
ATOM     11  C   UNL     1      10.190   6.955   6.428  0.00  0.00    +0.092 C 
ATOM     12  C   UNL     1       9.941   4.975   4.905  0.00  0.00    +0.025 C 
ATOM     13  C   UNL     1       7.964   6.326   5.556  0.00  0.00    +0.020 C 
ATOM     14  C   UNL     1      10.503   7.751   5.148  0.00  0.00    +0.097 C 
ATOM     15  C   UNL     1       8.250   7.330   4.423  0.00  0.00    +0.085 C 
ENDROOT
BRANCH  11  17
ATOM      1  O   UNL     1      11.405   5.812   8.135  0.00  0.00    -0.275 OA
ATOM      5  N   UNL     1      12.582   7.004   6.519  0.00  0.00    -0.314 N 
ATOM     17  C   UNL     1      11.440   6.512   7.127  0.00  0.00    +0.218 C 
ATOM     28  H   UNL     1      12.496   7.585   5.691  0.00  0.00    +0.149 HD
BRANCH   5  19
ATOM     19  C   UNL     1      13.915   6.742   7.012  0.00  0.00    +0.123 C 
BRANCH  19  21
ATOM     21  C   UNL     1      14.978   7.463   6.201  0.00  0.00    +0.123 C 
BRANCH  21   8
ATOM      2  O   UNL     1      13.786   8.430   3.736  0.00  0.00    -0.276 OA
ATOM      8  N   UNL     1      15.121   6.905   4.883  0.00  0.00    -0.314 N 
ATOM     25  C   UNL     1      14.511   7.439   3.756  0.00  0.00    +0.210 C 
ATOM     27  C   UNL     1      14.850   6.678   2.503  0.00  0.00    +0.109 C 
ATOM     29  H   UNL     1      15.722   6.092   4.781  0.00  0.00    +0.149 HD
ENDBRANCH  21   8
ENDBRANCH  19  21
ENDBRANCH   5  19
ENDBRANCH  11  17
BRANCH  10  16
ATOM     16  C   UNL     1      11.357   5.766   2.943  0.00  0.00    +0.164 C 
BRANCH  16   4
ATOM      4  N   UNL     1      11.234   5.078   1.668  0.00  0.00    -0.250 N 
ATOM      6  N   UNL     1      10.051   5.017   1.049  0.00  0.00    -0.065 NA
ATOM      7  N   UNL     1      10.239   4.333  -0.073  0.00  0.00    -0.135 NA
ATOM     18  C   UNL     1      12.212   4.446   0.980  0.00  0.00    +0.133 A 
ATOM     20  C   UNL     1      11.558   3.975  -0.130  0.00  0.00    +0.083 A 
BRANCH  20  22
ATOM     22  C   UNL     1      12.092   3.203  -1.261  0.00  0.00    +0.059 C 
BRANCH  22  23
ATOM     23  C   UNL     1      11.581   3.692  -2.633  0.00  0.00    +0.006 C 
BRANCH  23  24
ATOM     24  C   UNL     1      11.137   2.539  -3.533  0.00  0.00    -0.003 C 
ATOM     26  C   UNL     1       9.662   2.642  -3.883  0.00  0.00    +0.004 C 
ENDBRANCH  23  24
ENDBRANCH  22  23
ENDBRANCH  20  22
ENDBRANCH  16   4
ENDBRANCH  10  16
TORSDOF 9
ENDMDL
MODEL 9
REMARK VINA RESULT:      -6.0     17.728     21.336
REMARK  Name = 11942509
REMARK  11 active torsions:
REMARK  status: ('A' for Active; 'I' for Inactive)
REMARK    1  A    between atoms: N_4  and  C_16
REMARK    2  A    between atoms: N_5  and  C_19
REMARK    3  A    between atoms: N_8  and  C_21
REMARK    4  A    between atoms: C_10  and  C_16
REMARK    5  A    between atoms: C_11  and  C_17
REMARK    6  A    between atoms: C_19  and  C_21
REMARK    7  A    between atoms: C_20  and  C_22
REMARK    8  A    between atoms: C_22  and  C_23
REMARK    9  A    between atoms: C_23  and  C_24
REMARK   10  A    between atoms: C_24  and  C_26
REMARK   11  A    between atoms: C_25  and  C_27
REMARK                            x       y       z     vdW  Elec       q    Type
REMARK                         _______ _______ _______ _____ _____    ______ ____
ROOT
ATOM      3  N   UNL     1      13.218   5.716   1.529  0.00  0.00    -0.297 NA
ATOM      9  C   UNL     1      13.113   3.213   0.826  0.00  0.00    +0.005 C 
ATOM     10  C   UNL     1      12.344   4.963   2.466  0.00  0.00    +0.078 C 
ATOM     11  C   UNL     1      12.779   4.140  -0.359  0.00  0.00    +0.092 C 
ATOM     12  C   UNL     1      12.140   3.510   1.985  0.00  0.00    +0.025 C 
ATOM     13  C   UNL     1      14.525   3.595   1.304  0.00  0.00    +0.020 C 
ATOM     14  C   UNL     1      12.711   5.594   0.139  0.00  0.00    +0.097 C 
ATOM     15  C   UNL     1      14.572   5.109   1.582  0.00  0.00    +0.085 C 
ENDROOT
BRANCH  11  17
ATOM      1  O   UNL     1      10.416   4.179  -0.696  0.00  0.00    -0.275 OA
ATOM      5  N   UNL     1      11.720   2.776  -2.018  0.00  0.00    -0.314 N 
ATOM     17  C   UNL     1      11.505   3.722  -1.031  0.00  0.00    +0.218 C 
ATOM     28  H   UNL     1      12.666   2.460  -2.210  0.00  0.00    +0.149 HD
BRANCH   5  19
ATOM     19  C   UNL     1      10.654   2.193  -2.800  0.00  0.00    +0.123 C 
BRANCH  19  21
ATOM     21  C   UNL     1      10.217   3.099  -3.939  0.00  0.00    +0.123 C 
BRANCH  21   8
ATOM      2  O   UNL     1      12.865   4.041  -4.668  0.00  0.00    -0.276 OA
ATOM      8  N   UNL     1      10.938   2.826  -5.152  0.00  0.00    -0.314 N 
ATOM     25  C   UNL     1      12.208   3.321  -5.416  0.00  0.00    +0.210 C 
ATOM     27  C   UNL     1      12.741   2.861  -6.746  0.00  0.00    +0.109 C 
ATOM     29  H   UNL     1      10.493   2.219  -5.836  0.00  0.00    +0.149 HD
ENDBRANCH  21   8
ENDBRANCH  19  21
ENDBRANCH   5  19
ENDBRANCH  11  17
BRANCH  10  16
ATOM     16  C   UNL     1      11.010   5.671   2.715  0.00  0.00    +0.164 C 
BRANCH  16   4
ATOM      4  N   UNL     1      10.517   5.438   4.062  0.00  0.00    -0.250 N 
ATOM      6  N   UNL     1      10.215   4.198   4.462  0.00  0.00    -0.065 NA
ATOM      7  N   UNL     1       9.791   4.291   5.717  0.00  0.00    -0.135 NA
ATOM     18  C   UNL     1      10.302   6.360   5.028  0.00  0.00    +0.133 A 
ATOM     20  C   UNL     1       9.838   5.610   6.079  0.00  0.00    +0.083 A 
BRANCH  20  22
ATOM     22  C   UNL     1       9.431   6.048   7.420  0.00  0.00    +0.059 C 
BRANCH  22  23
ATOM     23  C   UNL     1      10.236   5.378   8.554  0.00  0.00    +0.006 C 
BRANCH  23  24
ATOM     24  C   UNL     1       9.472   4.227   9.209  0.00  0.00    -0.003 C 
ATOM     26  C   UNL     1       8.666   4.704  10.407  0.00  0.00    +0.004 C 
ENDBRANCH  23  24
ENDBRANCH  22  23
ENDBRANCH  20  22
ENDBRANCH  16   4
ENDBRANCH  10  16
TORSDOF 9
ENDMDL
MODEL 10
REMARK VINA RESULT:      -6.0     27.806     29.204
REMARK  Name = 11942509
REMARK  11 active torsions:
REMARK  status: ('A' for Active; 'I' for Inactive)
REMARK    1  A    between atoms: N_4  and  C_16
REMARK    2  A    between atoms: N_5  and  C_19
REMARK    3  A    between atoms: N_8  and  C_21
REMARK    4  A    between atoms: C_10  and  C_16
REMARK    5  A    between atoms: C_11  and  C_17
REMARK    6  A    between atoms: C_19  and  C_21
REMARK    7  A    between atoms: C_20  and  C_22
REMARK    8  A    between atoms: C_22  and  C_23
REMARK    9  A    between atoms: C_23  and  C_24
REMARK   10  A    between atoms: C_24  and  C_26
REMARK   11  A    between atoms: C_25  and  C_27
REMARK                            x       y       z     vdW  Elec       q    Type
REMARK                         _______ _______ _______ _____ _____    ______ ____
ROOT
ATOM      3  N   UNL     1      -5.769 -12.288  16.255  0.00  0.00    -0.297 NA
ATOM      9  C   UNL     1      -5.747 -11.765  18.804  0.00  0.00    +0.005 C 
ATOM     10  C   UNL     1      -5.135 -10.966  16.495  0.00  0.00    +0.078 C 
ATOM     11  C   UNL     1      -7.162 -12.146  18.325  0.00  0.00    +0.092 C 
ATOM     12  C   UNL     1      -5.246 -10.561  17.982  0.00  0.00    +0.025 C 
ATOM     13  C   UNL     1      -4.831 -12.957  18.475  0.00  0.00    +0.020 C 
ATOM     14  C   UNL     1      -7.152 -12.303  16.794  0.00  0.00    +0.097 C 
ATOM     15  C   UNL     1      -4.978 -13.312  16.984  0.00  0.00    +0.085 C 
ENDROOT
BRANCH  11  17
ATOM      1  O   UNL     1      -8.502 -11.029  19.953  0.00  0.00    -0.275 OA
ATOM      5  N   UNL     1      -8.686 -10.403  17.719  0.00  0.00    -0.314 N 
ATOM     17  C   UNL     1      -8.176 -11.139  18.774  0.00  0.00    +0.218 C 
ATOM     28  H   UNL     1      -8.351 -10.582  16.777  0.00  0.00    +0.149 HD
BRANCH   5  19
ATOM     19  C   UNL     1      -9.696  -9.382  17.882  0.00  0.00    +0.123 C 
BRANCH  19  21
ATOM     21  C   UNL     1      -9.352  -8.110  17.126  0.00  0.00    +0.123 C 
BRANCH  21   8
ATOM      2  O   UNL     1     -10.942  -7.674  14.736  0.00  0.00    -0.276 OA
ATOM      8  N   UNL     1     -10.491  -7.244  16.980  0.00  0.00    -0.314 N 
ATOM     25  C   UNL     1     -11.194  -7.099  15.792  0.00  0.00    +0.210 C 
ATOM     27  C   UNL     1     -12.356  -6.152  15.923  0.00  0.00    +0.109 C 
ATOM     29  H   UNL     1     -10.801  -6.734  17.802  0.00  0.00    +0.149 HD
ENDBRANCH  21   8
ENDBRANCH  19  21
ENDBRANCH   5  19
ENDBRANCH  11  17
BRANCH  10  16
ATOM     16  C   UNL     1      -5.684  -9.879  15.568  0.00  0.00    +0.164 C 
BRANCH  16   4
ATOM      4  N   UNL     1      -5.400 -10.165  14.172  0.00  0.00    -0.250 N 
ATOM      6  N   UNL     1      -6.392 -10.189  13.276  0.00  0.00    -0.065 NA
ATOM      7  N   UNL     1      -5.842 -10.476  12.101  0.00  0.00    -0.135 NA
ATOM     18  C   UNL     1      -4.195 -10.431  13.618  0.00  0.00    +0.133 A 
ATOM     20  C   UNL     1      -4.496 -10.628  12.294  0.00  0.00    +0.083 A 
BRANCH  20  22
ATOM     22  C   UNL     1      -3.597 -10.952  11.179  0.00  0.00    +0.059 C 
BRANCH  22  23
ATOM     23  C   UNL     1      -2.901  -9.715  10.573  0.00  0.00    +0.006 C 
BRANCH  23  24
ATOM     24  C   UNL     1      -3.803  -8.959   9.597  0.00  0.00    -0.003 C 
ATOM     26  C   UNL     1      -4.584  -9.913   8.709  0.00  0.00    +0.004 C 
ENDBRANCH  23  24
ENDBRANCH  22  23
ENDBRANCH  20  22
ENDBRANCH  16   4
ENDBRANCH  10  16
TORSDOF 9
ENDMDL
