MODEL 1
REMARK VINA RESULT:      -7.1      0.000      0.000
REMARK  Name = 25338452
REMARK  6 active torsions:
REMARK  status: ('A' for Active; 'I' for Inactive)
REMARK    1  A    between atoms: N_3  and  C_14
REMARK    2  A    between atoms: N_4  and  C_9
REMARK    3  A    between atoms: N_6  and  C_17
REMARK    4  A    between atoms: C_10  and  C_13
REMARK    5  A    between atoms: C_16  and  C_18
REMARK    6  A    between atoms: C_17  and  C_19
REMARK                            x       y       z     vdW  Elec       q    Type
REMARK                         _______ _______ _______ _____ _____    ______ ____
ROOT
ATOM      3  N   UNL     1      -6.247 -12.014  18.002  0.00  0.00    -0.293 NA
ATOM      9  C   UNL     1      -4.049 -11.506  17.416  0.00  0.00    +0.090 C 
ATOM     10  C   UNL     1      -6.228 -10.540  17.951  0.00  0.00    +0.147 C 
ATOM     11  C   UNL     1      -4.826 -10.189  17.416  0.00  0.00    +0.052 C 
ATOM     12  C   UNL     1      -4.872 -12.422  18.307  0.00  0.00    +0.107 C 
ATOM     14  C   UNL     1      -7.199 -12.542  18.971  0.00  0.00    +0.105 C 
ENDROOT
BRANCH   9   4
ATOM      2  O   UNL     1      -1.935 -10.979  15.523  0.00  0.00    -0.253 OA
ATOM      4  N   UNL     1      -3.920 -12.046  16.083  0.00  0.00    -0.295 N 
ATOM      6  N   UNL     1      -2.985 -12.393  14.012  0.00  0.00    -0.295 N 
ATOM     15  C   UNL     1      -2.861 -11.735  15.234  0.00  0.00    +0.300 C 
ATOM     29  H   UNL     1      -4.672 -12.625  15.722  0.00  0.00    +0.151 HD
ATOM     30  H   UNL     1      -3.796 -12.982  13.854  0.00  0.00    +0.151 HD
BRANCH   6  17
ATOM     17  C   UNL     1      -2.022 -12.249  12.946  0.00  0.00    +0.141 C 
BRANCH  17  19
ATOM     19  C   UNL     1      -2.481 -11.271  11.903  0.00  0.00    -0.030 A 
ATOM     22  C   UNL     1      -3.607 -11.554  11.129  0.00  0.00    +0.005 A 
ATOM     23  C   UNL     1      -1.782 -10.081  11.706  0.00  0.00    +0.005 A 
ATOM     26  C   UNL     1      -4.034 -10.646  10.160  0.00  0.00    +0.000 A 
ATOM     27  C   UNL     1      -2.208  -9.172  10.737  0.00  0.00    +0.000 A 
ATOM     28  C   UNL     1      -3.334  -9.455   9.964  0.00  0.00    +0.000 A 
ENDBRANCH  17  19
ENDBRANCH   6  17
ENDBRANCH   9   4
BRANCH  10  13
ATOM      1  O   UNL     1      -7.292 -10.227  15.773  0.00  0.00    -0.336 OA
ATOM      5  N   UNL     1      -8.349  -9.204  17.463  0.00  0.00    -0.190 NA
ATOM      7  N   UNL     1      -8.402  -9.584  15.209  0.00  0.00    -0.056 NA
ATOM     13  C   UNL     1      -7.336  -9.952  17.104  0.00  0.00    +0.245 A 
ATOM     16  C   UNL     1      -8.974  -9.004  16.267  0.00  0.00    +0.202 A 
BRANCH  16  18
ATOM      8  N   UNL     1     -12.502  -6.690  15.964  0.00  0.00    -0.263 NA
ATOM     18  C   UNL     1     -10.171  -8.220  16.164  0.00  0.00    +0.025 A 
ATOM     20  C   UNL     1     -10.098  -6.881  15.791  0.00  0.00    +0.031 A 
ATOM     21  C   UNL     1     -11.407  -8.794  16.435  0.00  0.00    +0.031 A 
ATOM     24  C   UNL     1     -11.282  -6.167  15.707  0.00  0.00    +0.111 A 
ATOM     25  C   UNL     1     -12.533  -7.994  16.322  0.00  0.00    +0.111 A 
ENDBRANCH  16  18
ENDBRANCH  10  13
TORSDOF 5
ENDMDL
MODEL 2
REMARK VINA RESULT:      -6.7     14.541     19.232
REMARK  Name = 25338452
REMARK  6 active torsions:
REMARK  status: ('A' for Active; 'I' for Inactive)
REMARK    1  A    between atoms: N_3  and  C_14
REMARK    2  A    between atoms: N_4  and  C_9
REMARK    3  A    between atoms: N_6  and  C_17
REMARK    4  A    between atoms: C_10  and  C_13
REMARK    5  A    between atoms: C_16  and  C_18
REMARK    6  A    between atoms: C_17  and  C_19
REMARK                            x       y       z     vdW  Elec       q    Type
REMARK                         _______ _______ _______ _____ _____    ______ ____
ROOT
ATOM      3  N   UNL     1      -2.495 -13.139   1.127  0.00  0.00    -0.293 NA
ATOM      9  C   UNL     1      -3.296 -14.001  -0.885  0.00  0.00    +0.090 C 
ATOM     10  C   UNL     1      -2.016 -14.535   1.126  0.00  0.00    +0.147 C 
ATOM     11  C   UNL     1      -2.404 -15.076  -0.264  0.00  0.00    +0.052 C 
ATOM     12  C   UNL     1      -3.701 -13.128   0.293  0.00  0.00    +0.107 C 
ATOM     14  C   UNL     1      -2.755 -12.624   2.465  0.00  0.00    +0.105 C 
ENDROOT
BRANCH   9   4
ATOM      2  O   UNL     1      -2.955 -14.677  -3.669  0.00  0.00    -0.253 OA
ATOM      4  N   UNL     1      -2.589 -13.237  -1.886  0.00  0.00    -0.295 N 
ATOM      6  N   UNL     1      -1.743 -12.721  -3.960  0.00  0.00    -0.295 N 
ATOM     15  C   UNL     1      -2.474 -13.642  -3.214  0.00  0.00    +0.300 C 
ATOM     29  H   UNL     1      -2.093 -12.400  -1.594  0.00  0.00    +0.151 HD
ATOM     30  H   UNL     1      -1.365 -11.903  -3.493  0.00  0.00    +0.151 HD
BRANCH   6  17
ATOM     17  C   UNL     1      -1.473 -12.894  -5.368  0.00  0.00    +0.141 C 
BRANCH  17  19
ATOM     19  C   UNL     1      -0.118 -12.369  -5.749  0.00  0.00    -0.030 A 
ATOM     22  C   UNL     1       0.606 -11.589  -4.847  0.00  0.00    +0.005 A 
ATOM     23  C   UNL     1       0.415 -12.659  -7.004  0.00  0.00    +0.005 A 
ATOM     26  C   UNL     1       1.864 -11.101  -5.200  0.00  0.00    +0.000 A 
ATOM     27  C   UNL     1       1.673 -12.172  -7.358  0.00  0.00    +0.000 A 
ATOM     28  C   UNL     1       2.397 -11.392  -6.456  0.00  0.00    +0.000 A 
ENDBRANCH  17  19
ENDBRANCH   6  17
ENDBRANCH   9   4
BRANCH  10  13
ATOM      1  O   UNL     1      -0.180 -14.893   2.699  0.00  0.00    -0.336 OA
ATOM      5  N   UNL     1       0.478 -14.586   0.580  0.00  0.00    -0.190 NA
ATOM      7  N   UNL     1       1.218 -14.972   2.709  0.00  0.00    -0.056 NA
ATOM     13  C   UNL     1      -0.534 -14.664   1.407  0.00  0.00    +0.245 A 
ATOM     16  C   UNL     1       1.531 -14.782   1.425  0.00  0.00    +0.202 A 
BRANCH  16  18
ATOM      8  N   UNL     1       5.525 -14.782   0.031  0.00  0.00    -0.263 NA
ATOM     18  C   UNL     1       2.886 -14.782   0.952  0.00  0.00    +0.025 A 
ATOM     20  C   UNL     1       3.262 -13.937  -0.087  0.00  0.00    +0.031 A 
ATOM     21  C   UNL     1       3.827 -15.625   1.532  0.00  0.00    +0.031 A 
ATOM     24  C   UNL     1       4.582 -13.976  -0.507  0.00  0.00    +0.111 A 
ATOM     25  C   UNL     1       5.122 -15.588   1.040  0.00  0.00    +0.111 A 
ENDBRANCH  16  18
ENDBRANCH  10  13
TORSDOF 5
ENDMDL
MODEL 3
REMARK VINA RESULT:      -6.6      1.714      2.061
REMARK  Name = 25338452
REMARK  6 active torsions:
REMARK  status: ('A' for Active; 'I' for Inactive)
REMARK    1  A    between atoms: N_3  and  C_14
REMARK    2  A    between atoms: N_4  and  C_9
REMARK    3  A    between atoms: N_6  and  C_17
REMARK    4  A    between atoms: C_10  and  C_13
REMARK    5  A    between atoms: C_16  and  C_18
REMARK    6  A    between atoms: C_17  and  C_19
REMARK                            x       y       z     vdW  Elec       q    Type
REMARK                         _______ _______ _______ _____ _____    ______ ____
ROOT
ATOM      3  N   UNL     1      -7.256 -12.278  17.939  0.00  0.00    -0.293 NA
ATOM      9  C   UNL     1      -5.234 -11.120  17.979  0.00  0.00    +0.090 C 
ATOM     10  C   UNL     1      -7.508 -11.162  18.870  0.00  0.00    +0.147 C 
ATOM     11  C   UNL     1      -6.234 -10.298  18.792  0.00  0.00    +0.052 C 
ATOM     12  C   UNL     1      -5.812 -12.526  17.992  0.00  0.00    +0.107 C 
ATOM     14  C   UNL     1      -8.026 -13.474  18.256  0.00  0.00    +0.105 C 
ENDROOT
BRANCH   9   4
ATOM      2  O   UNL     1      -3.294 -11.927  16.001  0.00  0.00    -0.253 OA
ATOM      4  N   UNL     1      -5.104 -10.617  16.632  0.00  0.00    -0.295 N 
ATOM      6  N   UNL     1      -4.234 -10.414  14.514  0.00  0.00    -0.295 N 
ATOM     15  C   UNL     1      -4.132 -11.066  15.741  0.00  0.00    +0.300 C 
ATOM     29  H   UNL     1      -5.704  -9.851  16.343  0.00  0.00    +0.151 HD
ATOM     30  H   UNL     1      -4.945  -9.701  14.397  0.00  0.00    +0.151 HD
BRANCH   6  17
ATOM     17  C   UNL     1      -3.348 -10.690  13.407  0.00  0.00    +0.141 C 
BRANCH  17  19
ATOM     19  C   UNL     1      -3.860 -10.109  12.120  0.00  0.00    -0.030 A 
ATOM     22  C   UNL     1      -2.983  -9.888  11.058  0.00  0.00    +0.005 A 
ATOM     23  C   UNL     1      -5.210  -9.788  11.988  0.00  0.00    +0.005 A 
ATOM     26  C   UNL     1      -3.459  -9.349   9.861  0.00  0.00    +0.000 A 
ATOM     27  C   UNL     1      -5.686  -9.249  10.793  0.00  0.00    +0.000 A 
ATOM     28  C   UNL     1      -4.810  -9.029   9.730  0.00  0.00    +0.000 A 
ENDBRANCH  17  19
ENDBRANCH   6  17
ENDBRANCH   9   4
BRANCH  10  13
ATOM      1  O   UNL     1      -9.834 -10.589  19.354  0.00  0.00    -0.336 OA
ATOM      5  N   UNL     1      -8.976  -9.512  17.587  0.00  0.00    -0.190 NA
ATOM      7  N   UNL     1     -10.857  -9.766  18.863  0.00  0.00    -0.056 NA
ATOM     13  C   UNL     1      -8.762 -10.377  18.546  0.00  0.00    +0.245 A 
ATOM     16  C   UNL     1     -10.274  -9.164  17.823  0.00  0.00    +0.202 A 
BRANCH  16  18
ATOM      8  N   UNL     1     -12.297  -6.352  15.396  0.00  0.00    -0.263 NA
ATOM     18  C   UNL     1     -10.960  -8.211  17.000  0.00  0.00    +0.025 A 
ATOM     20  C   UNL     1     -10.256  -7.169  16.403  0.00  0.00    +0.031 A 
ATOM     21  C   UNL     1     -12.331  -8.323  16.795  0.00  0.00    +0.031 A 
ATOM     24  C   UNL     1     -10.965  -6.275  15.618  0.00  0.00    +0.111 A 
ATOM     25  C   UNL     1     -12.947  -7.377  15.992  0.00  0.00    +0.111 A 
ENDBRANCH  16  18
ENDBRANCH  10  13
TORSDOF 5
ENDMDL
MODEL 4
REMARK VINA RESULT:      -6.5      1.592      1.992
REMARK  Name = 25338452
REMARK  6 active torsions:
REMARK  status: ('A' for Active; 'I' for Inactive)
REMARK    1  A    between atoms: N_3  and  C_14
REMARK    2  A    between atoms: N_4  and  C_9
REMARK    3  A    between atoms: N_6  and  C_17
REMARK    4  A    between atoms: C_10  and  C_13
REMARK    5  A    between atoms: C_16  and  C_18
REMARK    6  A    between atoms: C_17  and  C_19
REMARK                            x       y       z     vdW  Elec       q    Type
REMARK                         _______ _______ _______ _____ _____    ______ ____
ROOT
ATOM      3  N   UNL     1      -5.985 -12.311  16.975  0.00  0.00    -0.293 NA
ATOM      9  C   UNL     1      -3.972 -11.141  16.856  0.00  0.00    +0.090 C 
ATOM     10  C   UNL     1      -6.160 -11.210  17.941  0.00  0.00    +0.147 C 
ATOM     11  C   UNL     1      -4.902 -10.338  17.766  0.00  0.00    +0.052 C 
ATOM     12  C   UNL     1      -4.540 -12.551  16.898  0.00  0.00    +0.107 C 
ATOM     14  C   UNL     1      -6.718 -13.517  17.340  0.00  0.00    +0.105 C 
ENDROOT
BRANCH   9   4
ATOM      2  O   UNL     1      -2.068 -11.736  14.772  0.00  0.00    -0.253 OA
ATOM      4  N   UNL     1      -3.963 -10.618  15.511  0.00  0.00    -0.295 N 
ATOM      6  N   UNL     1      -3.229 -10.314  13.354  0.00  0.00    -0.295 N 
ATOM     15  C   UNL     1      -3.000 -10.961  14.566  0.00  0.00    +0.300 C 
ATOM     29  H   UNL     1      -4.651  -9.912  15.263  0.00  0.00    +0.151 HD
ATOM     30  H   UNL     1      -4.013  -9.673  13.283  0.00  0.00    +0.151 HD
BRANCH   6  17
ATOM     17  C   UNL     1      -2.379 -10.491  12.200  0.00  0.00    +0.141 C 
BRANCH  17  19
ATOM     19  C   UNL     1      -3.158 -10.452  10.917  0.00  0.00    -0.030 A 
ATOM     22  C   UNL     1      -3.670 -11.631  10.376  0.00  0.00    +0.005 A 
ATOM     23  C   UNL     1      -3.368  -9.237  10.266  0.00  0.00    +0.005 A 
ATOM     26  C   UNL     1      -4.395 -11.595   9.184  0.00  0.00    +0.000 A 
ATOM     27  C   UNL     1      -4.092  -9.200   9.074  0.00  0.00    +0.000 A 
ATOM     28  C   UNL     1      -4.605 -10.379   8.533  0.00  0.00    +0.000 A 
ENDBRANCH  17  19
ENDBRANCH   6  17
ENDBRANCH   9   4
BRANCH  10  13
ATOM      1  O   UNL     1      -7.331  -9.244  17.083  0.00  0.00    -0.336 OA
ATOM      5  N   UNL     1      -8.662 -10.726  18.108  0.00  0.00    -0.190 NA
ATOM      7  N   UNL     1      -8.627  -8.715  17.020  0.00  0.00    -0.056 NA
ATOM     13  C   UNL     1      -7.442 -10.429  17.739  0.00  0.00    +0.245 A 
ATOM     16  C   UNL     1      -9.354  -9.645  17.645  0.00  0.00    +0.202 A 
BRANCH  16  18
ATOM      8  N   UNL     1     -13.536  -9.292  18.167  0.00  0.00    -0.263 NA
ATOM     18  C   UNL     1     -10.772  -9.525  17.822  0.00  0.00    +0.025 A 
ATOM     20  C   UNL     1     -11.561  -8.996  16.805  0.00  0.00    +0.031 A 
ATOM     21  C   UNL     1     -11.364  -9.938  19.010  0.00  0.00    +0.031 A 
ATOM     24  C   UNL     1     -12.925  -8.902  17.026  0.00  0.00    +0.111 A 
ATOM     25  C   UNL     1     -12.738  -9.801  19.132  0.00  0.00    +0.111 A 
ENDBRANCH  16  18
ENDBRANCH  10  13
TORSDOF 5
ENDMDL
MODEL 5
REMARK VINA RESULT:      -6.3     20.875     24.924
REMARK  Name = 25338452
REMARK  6 active torsions:
REMARK  status: ('A' for Active; 'I' for Inactive)
REMARK    1  A    between atoms: N_3  and  C_14
REMARK    2  A    between atoms: N_4  and  C_9
REMARK    3  A    between atoms: N_6  and  C_17
REMARK    4  A    between atoms: C_10  and  C_13
REMARK    5  A    between atoms: C_16  and  C_18
REMARK    6  A    between atoms: C_17  and  C_19
REMARK                            x       y       z     vdW  Elec       q    Type
REMARK                         _______ _______ _______ _____ _____    ______ ____
ROOT
ATOM      3  N   UNL     1     -13.934   6.487  33.873  0.00  0.00    -0.293 NA
ATOM      9  C   UNL     1     -14.151   8.739  33.309  0.00  0.00    +0.090 C 
ATOM     10  C   UNL     1     -15.221   6.548  33.154  0.00  0.00    +0.147 C 
ATOM     11  C   UNL     1     -15.309   7.999  32.640  0.00  0.00    +0.052 C 
ATOM     12  C   UNL     1     -13.732   7.821  34.447  0.00  0.00    +0.107 C 
ATOM     14  C   UNL     1     -13.894   5.445  34.890  0.00  0.00    +0.105 C 
ENDROOT
BRANCH   9   4
ATOM      2  O   UNL     1     -13.404  11.239  32.077  0.00  0.00    -0.253 OA
ATOM      4  N   UNL     1     -13.062   8.964  32.388  0.00  0.00    -0.295 N 
ATOM      6  N   UNL     1     -11.675  10.144  30.985  0.00  0.00    -0.295 N 
ATOM     15  C   UNL     1     -12.773  10.211  31.839  0.00  0.00    +0.300 C 
ATOM     29  H   UNL     1     -12.525   8.162  32.070  0.00  0.00    +0.151 HD
ATOM     30  H   UNL     1     -11.229   9.245  30.831  0.00  0.00    +0.151 HD
BRANCH   6  17
ATOM     17  C   UNL     1     -11.160  11.295  30.281  0.00  0.00    +0.141 C 
BRANCH  17  19
ATOM     19  C   UNL     1     -11.339  11.173  28.796  0.00  0.00    -0.030 A 
ATOM     22  C   UNL     1     -10.940  10.008  28.139  0.00  0.00    +0.005 A 
ATOM     23  C   UNL     1     -11.903  12.222  28.072  0.00  0.00    +0.005 A 
ATOM     26  C   UNL     1     -11.106   9.893  26.758  0.00  0.00    +0.000 A 
ATOM     27  C   UNL     1     -12.070  12.109  26.691  0.00  0.00    +0.000 A 
ATOM     28  C   UNL     1     -11.671  10.944  26.035  0.00  0.00    +0.000 A 
ENDBRANCH  17  19
ENDBRANCH   6  17
ENDBRANCH   9   4
BRANCH  10  13
ATOM      1  O   UNL     1     -15.888   5.966  30.876  0.00  0.00    -0.336 OA
ATOM      5  N   UNL     1     -14.988   4.268  32.027  0.00  0.00    -0.190 NA
ATOM      7  N   UNL     1     -15.891   4.863  30.012  0.00  0.00    -0.056 NA
ATOM     13  C   UNL     1     -15.339   5.529  32.040  0.00  0.00    +0.245 A 
ATOM     16  C   UNL     1     -15.346   3.902  30.763  0.00  0.00    +0.202 A 
BRANCH  16  18
ATOM      8  N   UNL     1     -14.752  -0.036  29.339  0.00  0.00    -0.263 NA
ATOM     18  C   UNL     1     -15.144   2.566  30.280  0.00  0.00    +0.025 A 
ATOM     20  C   UNL     1     -16.166   1.907  29.604  0.00  0.00    +0.031 A 
ATOM     21  C   UNL     1     -13.927   1.926  30.486  0.00  0.00    +0.031 A 
ATOM     24  C   UNL     1     -15.921   0.618  29.158  0.00  0.00    +0.111 A 
ATOM     25  C   UNL     1     -13.783   0.637  30.000  0.00  0.00    +0.111 A 
ENDBRANCH  16  18
ENDBRANCH  10  13
TORSDOF 5
ENDMDL
MODEL 6
REMARK VINA RESULT:      -6.3      5.345      9.739
REMARK  Name = 25338452
REMARK  6 active torsions:
REMARK  status: ('A' for Active; 'I' for Inactive)
REMARK    1  A    between atoms: N_3  and  C_14
REMARK    2  A    between atoms: N_4  and  C_9
REMARK    3  A    between atoms: N_6  and  C_17
REMARK    4  A    between atoms: C_10  and  C_13
REMARK    5  A    between atoms: C_16  and  C_18
REMARK    6  A    between atoms: C_17  and  C_19
REMARK                            x       y       z     vdW  Elec       q    Type
REMARK                         _______ _______ _______ _____ _____    ______ ____
ROOT
ATOM      3  N   UNL     1     -13.270  -5.960  12.057  0.00  0.00    -0.293 NA
ATOM      9  C   UNL     1     -12.693  -4.674  13.913  0.00  0.00    +0.090 C 
ATOM     10  C   UNL     1     -12.902  -4.653  11.479  0.00  0.00    +0.147 C 
ATOM     11  C   UNL     1     -12.372  -3.838  12.675  0.00  0.00    +0.052 C 
ATOM     12  C   UNL     1     -13.721  -5.682  13.423  0.00  0.00    +0.107 C 
ATOM     14  C   UNL     1     -14.282  -6.665  11.281  0.00  0.00    +0.105 C 
ENDROOT
BRANCH   9   4
ATOM      2  O   UNL     1     -12.544  -6.428  16.199  0.00  0.00    -0.253 OA
ATOM      4  N   UNL     1     -11.517  -5.332  14.430  0.00  0.00    -0.295 N 
ATOM      6  N   UNL     1     -10.267  -6.666  15.823  0.00  0.00    -0.295 N 
ATOM     15  C   UNL     1     -11.536  -6.166  15.545  0.00  0.00    +0.300 C 
ATOM     29  H   UNL     1     -10.619  -5.122  14.002  0.00  0.00    +0.151 HD
ATOM     30  H   UNL     1      -9.489  -6.377  15.240  0.00  0.00    +0.151 HD
BRANCH   6  17
ATOM     17  C   UNL     1     -10.003  -7.558  16.928  0.00  0.00    +0.141 C 
BRANCH  17  19
ATOM     19  C   UNL     1      -9.061  -8.663  16.546  0.00  0.00    -0.030 A 
ATOM     22  C   UNL     1      -9.163  -9.262  15.290  0.00  0.00    +0.005 A 
ATOM     23  C   UNL     1      -8.086  -9.091  17.445  0.00  0.00    +0.005 A 
ATOM     26  C   UNL     1      -8.287 -10.289  14.934  0.00  0.00    +0.000 A 
ATOM     27  C   UNL     1      -7.211 -10.118  17.091  0.00  0.00    +0.000 A 
ATOM     28  C   UNL     1      -7.312 -10.716  15.835  0.00  0.00    +0.000 A 
ENDBRANCH  17  19
ENDBRANCH   6  17
ENDBRANCH   9   4
BRANCH  10  13
ATOM      1  O   UNL     1     -11.295  -3.595   9.972  0.00  0.00    -0.336 OA
ATOM      5  N   UNL     1     -11.508  -5.805   9.675  0.00  0.00    -0.190 NA
ATOM      7  N   UNL     1     -10.421  -3.935   8.932  0.00  0.00    -0.056 NA
ATOM     13  C   UNL     1     -11.895  -4.753  10.352  0.00  0.00    +0.245 A 
ATOM     16  C   UNL     1     -10.604  -5.253   8.815  0.00  0.00    +0.202 A 
BRANCH  16  18
ATOM      8  N   UNL     1      -8.523  -7.596   5.974  0.00  0.00    -0.263 NA
ATOM     18  C   UNL     1      -9.898  -6.048   7.852  0.00  0.00    +0.025 A 
ATOM     20  C   UNL     1      -8.543  -6.311   8.022  0.00  0.00    +0.031 A 
ATOM     21  C   UNL     1     -10.567  -6.558   6.745  0.00  0.00    +0.031 A 
ATOM     24  C   UNL     1      -7.907  -7.083   7.063  0.00  0.00    +0.111 A 
ATOM     25  C   UNL     1      -9.841  -7.320   5.843  0.00  0.00    +0.111 A 
ENDBRANCH  16  18
ENDBRANCH  10  13
TORSDOF 5
ENDMDL
MODEL 7
REMARK VINA RESULT:      -6.3      2.218      7.340
REMARK  Name = 25338452
REMARK  6 active torsions:
REMARK  status: ('A' for Active; 'I' for Inactive)
REMARK    1  A    between atoms: N_3  and  C_14
REMARK    2  A    between atoms: N_4  and  C_9
REMARK    3  A    between atoms: N_6  and  C_17
REMARK    4  A    between atoms: C_10  and  C_13
REMARK    5  A    between atoms: C_16  and  C_18
REMARK    6  A    between atoms: C_17  and  C_19
REMARK                            x       y       z     vdW  Elec       q    Type
REMARK                         _______ _______ _______ _____ _____    ______ ____
ROOT
ATOM      3  N   UNL     1      -2.410 -10.542  15.789  0.00  0.00    -0.293 NA
ATOM      9  C   UNL     1      -4.164 -11.603  16.898  0.00  0.00    +0.090 C 
ATOM     10  C   UNL     1      -2.781 -11.648  14.885  0.00  0.00    +0.147 C 
ATOM     11  C   UNL     1      -4.037 -12.267  15.527  0.00  0.00    +0.052 C 
ATOM     12  C   UNL     1      -2.798 -10.977  17.134  0.00  0.00    +0.107 C 
ATOM     14  C   UNL     1      -0.997 -10.193  15.717  0.00  0.00    +0.105 C 
ENDROOT
BRANCH   9   4
ATOM      2  O   UNL     1      -6.862 -11.927  17.867  0.00  0.00    -0.253 OA
ATOM      4  N   UNL     1      -5.209 -10.607  16.912  0.00  0.00    -0.295 N 
ATOM      6  N   UNL     1      -7.295  -9.720  17.294  0.00  0.00    -0.295 N 
ATOM     15  C   UNL     1      -6.489 -10.852  17.401  0.00  0.00    +0.300 C 
ATOM     29  H   UNL     1      -5.022  -9.707  16.481  0.00  0.00    +0.151 HD
ATOM     30  H   UNL     1      -6.907  -8.882  16.875  0.00  0.00    +0.151 HD
BRANCH   6  17
ATOM     17  C   UNL     1      -8.672  -9.697  17.728  0.00  0.00    +0.141 C 
BRANCH  17  19
ATOM     19  C   UNL     1      -9.534  -8.872  16.817  0.00  0.00    -0.030 A 
ATOM     22  C   UNL     1      -9.736  -9.272  15.496  0.00  0.00    +0.005 A 
ATOM     23  C   UNL     1     -10.131  -7.704  17.291  0.00  0.00    +0.005 A 
ATOM     26  C   UNL     1     -10.537  -8.505  14.649  0.00  0.00    +0.000 A 
ATOM     27  C   UNL     1     -10.932  -6.936  16.445  0.00  0.00    +0.000 A 
ATOM     28  C   UNL     1     -11.135  -7.337  15.124  0.00  0.00    +0.000 A 
ENDBRANCH  17  19
ENDBRANCH   6  17
ENDBRANCH   9   4
BRANCH  10  13
ATOM      1  O   UNL     1      -1.994 -11.405  12.584  0.00  0.00    -0.336 OA
ATOM      5  N   UNL     1      -4.075 -10.648  12.923  0.00  0.00    -0.190 NA
ATOM      7  N   UNL     1      -2.441 -10.923  11.347  0.00  0.00    -0.056 NA
ATOM     13  C   UNL     1      -3.017 -11.205  13.456  0.00  0.00    +0.245 A 
ATOM     16  C   UNL     1      -3.674 -10.493  11.628  0.00  0.00    +0.202 A 
BRANCH  16  18
ATOM      8  N   UNL     1      -6.201  -8.763   8.711  0.00  0.00    -0.263 NA
ATOM     18  C   UNL     1      -4.531  -9.907  10.639  0.00  0.00    +0.025 A 
ATOM     20  C   UNL     1      -4.208 -10.004   9.289  0.00  0.00    +0.031 A 
ATOM     21  C   UNL     1      -5.688  -9.240  11.025  0.00  0.00    +0.031 A 
ATOM     24  C   UNL     1      -5.069  -9.420   8.374  0.00  0.00    +0.111 A 
ATOM     25  C   UNL     1      -6.483  -8.691  10.032  0.00  0.00    +0.111 A 
ENDBRANCH  16  18
ENDBRANCH  10  13
TORSDOF 5
ENDMDL
MODEL 8
REMARK VINA RESULT:      -6.2     16.393     19.862
REMARK  Name = 25338452
REMARK  6 active torsions:
REMARK  status: ('A' for Active; 'I' for Inactive)
REMARK    1  A    between atoms: N_3  and  C_14
REMARK    2  A    between atoms: N_4  and  C_9
REMARK    3  A    between atoms: N_6  and  C_17
REMARK    4  A    between atoms: C_10  and  C_13
REMARK    5  A    between atoms: C_16  and  C_18
REMARK    6  A    between atoms: C_17  and  C_19
REMARK                            x       y       z     vdW  Elec       q    Type
REMARK                         _______ _______ _______ _____ _____    ______ ____
ROOT
ATOM      3  N   UNL     1      -3.241 -15.266  -2.105  0.00  0.00    -0.293 NA
ATOM      9  C   UNL     1      -2.743 -14.486   0.034  0.00  0.00    +0.090 C 
ATOM     10  C   UNL     1      -3.061 -13.813  -2.293  0.00  0.00    +0.147 C 
ATOM     11  C   UNL     1      -2.582 -13.302  -0.920  0.00  0.00    +0.052 C 
ATOM     12  C   UNL     1      -3.661 -15.441  -0.711  0.00  0.00    +0.107 C 
ATOM     14  C   UNL     1      -4.195 -15.851  -3.039  0.00  0.00    +0.105 C 
ENDROOT
BRANCH   9   4
ATOM      2  O   UNL     1      -0.648 -13.430   1.714  0.00  0.00    -0.253 OA
ATOM      4  N   UNL     1      -1.473 -15.104   0.333  0.00  0.00    -0.295 N 
ATOM      6  N   UNL     1       0.612 -15.329   1.276  0.00  0.00    -0.295 N 
ATOM     15  C   UNL     1      -0.515 -14.519   1.159  0.00  0.00    +0.300 C 
ATOM     29  H   UNL     1      -1.237 -15.974  -0.136  0.00  0.00    +0.151 HD
ATOM     30  H   UNL     1       0.641 -16.203   0.762  0.00  0.00    +0.151 HD
BRANCH   6  17
ATOM     17  C   UNL     1       1.758 -14.962   2.074  0.00  0.00    +0.141 C 
BRANCH  17  19
ATOM     19  C   UNL     1       2.995 -14.798   1.238  0.00  0.00    -0.030 A 
ATOM     22  C   UNL     1       3.038 -13.825   0.240  0.00  0.00    +0.005 A 
ATOM     23  C   UNL     1       4.100 -15.619   1.460  0.00  0.00    +0.005 A 
ATOM     26  C   UNL     1       4.188 -13.672  -0.537  0.00  0.00    +0.000 A 
ATOM     27  C   UNL     1       5.249 -15.468   0.684  0.00  0.00    +0.000 A 
ATOM     28  C   UNL     1       5.293 -14.494  -0.315  0.00  0.00    +0.000 A 
ENDBRANCH  17  19
ENDBRANCH   6  17
ENDBRANCH   9   4
BRANCH  10  13
ATOM      1  O   UNL     1      -2.649 -12.921  -4.530  0.00  0.00    -0.336 OA
ATOM      5  N   UNL     1      -0.802 -13.608  -3.465  0.00  0.00    -0.190 NA
ATOM      7  N   UNL     1      -1.582 -12.687  -5.408  0.00  0.00    -0.056 NA
ATOM     13  C   UNL     1      -2.102 -13.464  -3.411  0.00  0.00    +0.245 A 
ATOM     16  C   UNL     1      -0.529 -13.118  -4.709  0.00  0.00    +0.202 A 
BRANCH  16  18
ATOM      8  N   UNL     1       3.417 -12.983  -6.226  0.00  0.00    -0.263 NA
ATOM     18  C   UNL     1       0.810 -13.072  -5.223  0.00  0.00    +0.025 A 
ATOM     20  C   UNL     1       1.202 -12.030  -6.057  0.00  0.00    +0.031 A 
ATOM     21  C   UNL     1       1.720 -14.069  -4.891  0.00  0.00    +0.031 A 
ATOM     24  C   UNL     1       2.505 -12.032  -6.527  0.00  0.00    +0.111 A 
ATOM     25  C   UNL     1       3.000 -13.980  -5.413  0.00  0.00    +0.111 A 
ENDBRANCH  16  18
ENDBRANCH  10  13
TORSDOF 5
ENDMDL
MODEL 9
REMARK VINA RESULT:      -6.1      2.325      3.684
REMARK  Name = 25338452
REMARK  6 active torsions:
REMARK  status: ('A' for Active; 'I' for Inactive)
REMARK    1  A    between atoms: N_3  and  C_14
REMARK    2  A    between atoms: N_4  and  C_9
REMARK    3  A    between atoms: N_6  and  C_17
REMARK    4  A    between atoms: C_10  and  C_13
REMARK    5  A    between atoms: C_16  and  C_18
REMARK    6  A    between atoms: C_17  and  C_19
REMARK                            x       y       z     vdW  Elec       q    Type
REMARK                         _______ _______ _______ _____ _____    ______ ____
ROOT
ATOM      3  N   UNL     1      -4.382 -12.709  15.489  0.00  0.00    -0.293 NA
ATOM      9  C   UNL     1      -2.774 -11.285  14.582  0.00  0.00    +0.090 C 
ATOM     10  C   UNL     1      -4.019 -11.825  16.613  0.00  0.00    +0.147 C 
ATOM     11  C   UNL     1      -3.071 -10.780  15.993  0.00  0.00    +0.052 C 
ATOM     12  C   UNL     1      -3.208 -12.742  14.611  0.00  0.00    +0.107 C 
ATOM     14  C   UNL     1      -4.781 -14.044  15.915  0.00  0.00    +0.105 C 
ENDROOT
BRANCH   9   4
ATOM      2  O   UNL     1      -2.032 -10.876  11.823  0.00  0.00    -0.253 OA
ATOM      4  N   UNL     1      -3.505 -10.539  13.585  0.00  0.00    -0.295 N 
ATOM      6  N   UNL     1      -3.964  -9.626  11.526  0.00  0.00    -0.295 N 
ATOM     15  C   UNL     1      -3.070 -10.392  12.271  0.00  0.00    +0.300 C 
ATOM     29  H   UNL     1      -4.341 -10.039  13.874  0.00  0.00    +0.151 HD
ATOM     30  H   UNL     1      -4.786  -9.249  11.986  0.00  0.00    +0.151 HD
BRANCH   6  17
ATOM     17  C   UNL     1      -3.757  -9.319  10.130  0.00  0.00    +0.141 C 
BRANCH  17  19
ATOM     19  C   UNL     1      -5.011  -9.494   9.324  0.00  0.00    -0.030 A 
ATOM     22  C   UNL     1      -6.256  -9.448   9.952  0.00  0.00    +0.005 A 
ATOM     23  C   UNL     1      -4.933  -9.704   7.948  0.00  0.00    +0.005 A 
ATOM     26  C   UNL     1      -7.422  -9.609   9.203  0.00  0.00    +0.000 A 
ATOM     27  C   UNL     1      -6.098  -9.867   7.198  0.00  0.00    +0.000 A 
ATOM     28  C   UNL     1      -7.342  -9.819   7.826  0.00  0.00    +0.000 A 
ENDBRANCH  17  19
ENDBRANCH   6  17
ENDBRANCH   9   4
BRANCH  10  13
ATOM      1  O   UNL     1      -5.122 -11.015  18.638  0.00  0.00    -0.336 OA
ATOM      5  N   UNL     1      -6.346 -10.786  16.776  0.00  0.00    -0.190 NA
ATOM      7  N   UNL     1      -6.330 -10.425  19.034  0.00  0.00    -0.056 NA
ATOM     13  C   UNL     1      -5.215 -11.193  17.294  0.00  0.00    +0.245 A 
ATOM     16  C   UNL     1      -6.998 -10.323  17.882  0.00  0.00    +0.202 A 
BRANCH  16  18
ATOM      8  N   UNL     1     -10.884  -8.672  17.642  0.00  0.00    -0.263 NA
ATOM     18  C   UNL     1      -8.316  -9.763  17.801  0.00  0.00    +0.025 A 
ATOM     20  C   UNL     1      -9.376 -10.373  18.464  0.00  0.00    +0.031 A 
ATOM     21  C   UNL     1      -8.538  -8.608  17.059  0.00  0.00    +0.031 A 
ATOM     24  C   UNL     1     -10.629  -9.793  18.353  0.00  0.00    +0.111 A 
ATOM     25  C   UNL     1      -9.829  -8.107  17.011  0.00  0.00    +0.111 A 
ENDBRANCH  16  18
ENDBRANCH  10  13
TORSDOF 5
ENDMDL
MODEL 10
REMARK VINA RESULT:      -6.0      3.211      5.140
REMARK  Name = 25338452
REMARK  6 active torsions:
REMARK  status: ('A' for Active; 'I' for Inactive)
REMARK    1  A    between atoms: N_3  and  C_14
REMARK    2  A    between atoms: N_4  and  C_9
REMARK    3  A    between atoms: N_6  and  C_17
REMARK    4  A    between atoms: C_10  and  C_13
REMARK    5  A    between atoms: C_16  and  C_18
REMARK    6  A    between atoms: C_17  and  C_19
REMARK                            x       y       z     vdW  Elec       q    Type
REMARK                         _______ _______ _______ _____ _____    ______ ____
ROOT
ATOM      3  N   UNL     1     -11.255 -11.846  18.502  0.00  0.00    -0.293 NA
ATOM      9  C   UNL     1      -9.692 -10.990  20.005  0.00  0.00    +0.090 C 
ATOM     10  C   UNL     1     -11.931 -10.669  19.082  0.00  0.00    +0.147 C 
ATOM     11  C   UNL     1     -10.858 -10.002  19.964  0.00  0.00    +0.052 C 
ATOM     12  C   UNL     1     -10.296 -12.297  19.516  0.00  0.00    +0.107 C 
ATOM     14  C   UNL     1     -12.178 -12.905  18.116  0.00  0.00    +0.105 C 
ENDROOT
BRANCH   9   4
ATOM      2  O   UNL     1      -6.914 -11.731  20.237  0.00  0.00    -0.253 OA
ATOM      4  N   UNL     1      -8.605 -10.563  19.158  0.00  0.00    -0.295 N 
ATOM      6  N   UNL     1      -6.444 -10.413  18.387  0.00  0.00    -0.295 N 
ATOM     15  C   UNL     1      -7.286 -10.973  19.344  0.00  0.00    +0.300 C 
ATOM     29  H   UNL     1      -8.797  -9.877  18.434  0.00  0.00    +0.151 HD
ATOM     30  H   UNL     1      -6.838  -9.779  17.699  0.00  0.00    +0.151 HD
BRANCH   6  17
ATOM     17  C   UNL     1      -5.024 -10.672  18.348  0.00  0.00    +0.141 C 
BRANCH  17  19
ATOM     19  C   UNL     1      -4.491 -10.671  16.944  0.00  0.00    -0.030 A 
ATOM     22  C   UNL     1      -5.357 -10.469  15.869  0.00  0.00    +0.005 A 
ATOM     23  C   UNL     1      -3.131 -10.875  16.714  0.00  0.00    +0.005 A 
ATOM     26  C   UNL     1      -4.863 -10.468  14.565  0.00  0.00    +0.000 A 
ATOM     27  C   UNL     1      -2.636 -10.875  15.410  0.00  0.00    +0.000 A 
ATOM     28  C   UNL     1      -3.502 -10.672  14.335  0.00  0.00    +0.000 A 
ENDBRANCH  17  19
ENDBRANCH   6  17
ENDBRANCH   9   4
BRANCH  10  13
ATOM      1  O   UNL     1     -13.833  -9.482  18.109  0.00  0.00    -0.336 OA
ATOM      5  N   UNL     1     -11.886  -9.098  17.069  0.00  0.00    -0.190 NA
ATOM      7  N   UNL     1     -14.117  -8.596  17.061  0.00  0.00    -0.056 NA
ATOM     13  C   UNL     1     -12.497  -9.726  18.042  0.00  0.00    +0.245 A 
ATOM     16  C   UNL     1     -12.921  -8.418  16.495  0.00  0.00    +0.202 A 
BRANCH  16  18
ATOM      8  N   UNL     1     -12.340  -5.910  13.140  0.00  0.00    -0.263 NA
ATOM     18  C   UNL     1     -12.724  -7.567  15.357  0.00  0.00    +0.025 A 
ATOM     20  C   UNL     1     -12.717  -8.107  14.075  0.00  0.00    +0.031 A 
ATOM     21  C   UNL     1     -12.540  -6.200  15.532  0.00  0.00    +0.031 A 
ATOM     24  C   UNL     1     -12.522  -7.243  13.010  0.00  0.00    +0.111 A 
ATOM     25  C   UNL     1     -12.353  -5.422  14.401  0.00  0.00    +0.111 A 
ENDBRANCH  16  18
ENDBRANCH  10  13
TORSDOF 5
ENDMDL
