MODEL 1
REMARK VINA RESULT:      -6.5      0.000      0.000
REMARK  Name = 11866301
REMARK  15 active torsions:
REMARK  status: ('A' for Active; 'I' for Inactive)
REMARK    1  A    between atoms: O_2  and  C_12
REMARK    2  A    between atoms: O_3  and  C_13
REMARK    3  A    between atoms: N_7  and  C_11
REMARK    4  A    between atoms: N_8  and  C_17
REMARK    5  A    between atoms: N_8  and  C_26
REMARK    6  A    between atoms: N_9  and  C_24
REMARK    7  A    between atoms: C_15  and  C_21
REMARK    8  A    between atoms: C_17  and  C_18
REMARK    9  A    between atoms: C_17  and  C_19
REMARK   10  A    between atoms: C_18  and  C_20
REMARK   11  A    between atoms: C_20  and  C_22
REMARK   12  A    between atoms: C_20  and  C_23
REMARK   13  A    between atoms: C_24  and  C_25
REMARK   14  A    between atoms: C_24  and  C_27
REMARK   15  A    between atoms: C_25  and  C_28
REMARK                            x       y       z     vdW  Elec       q    Type
REMARK                         _______ _______ _______ _____ _____    ______ ____
ROOT
ATOM     11  C   UNL     1      20.352   6.323  21.930  0.00  0.00    +0.127 C 
ATOM     12  C   UNL     1      20.960   7.737  21.865  0.00  0.00    +0.167 C 
ATOM     13  C   UNL     1      19.925   8.812  22.216  0.00  0.00    +0.149 C 
ATOM     14  C   UNL     1      18.676   8.727  21.320  0.00  0.00    +0.074 C 
ATOM     15  C   UNL     1      18.255   7.318  21.016  0.00  0.00    +0.015 C 
ATOM     16  C   UNL     1      18.992   6.230  21.292  0.00  0.00    +0.006 C 
ENDROOT
BRANCH  11   7
ATOM      4  O   UNL     1      21.857   4.266  23.281  0.00  0.00    -0.274 OA
ATOM      7  N   UNL     1      21.219   5.342  21.325  0.00  0.00    -0.305 N 
ATOM     19  C   UNL     1      21.906   4.386  22.058  0.00  0.00    +0.231 C 
ATOM     32  H   UNL     1      21.355   5.382  20.318  0.00  0.00    +0.149 HD
BRANCH  19  17
ATOM     17  C   UNL     1      22.778   3.492  21.182  0.00  0.00    +0.140 C 
BRANCH  17   8
ATOM      8  N   UNL     1      23.213   4.336  20.067  0.00  0.00    -0.309 NA
ATOM     26  C   UNL     1      24.590   4.041  19.706  0.00  0.00    +0.101 C 
ATOM     35  H   UNL     1      22.594   4.230  19.264  0.00  0.00    +0.122 HD
ENDBRANCH  17   8
BRANCH  17  18
ATOM     18  C   UNL     1      23.999   2.946  21.939  0.00  0.00    +0.031 C 
BRANCH  18  20
ATOM     20  C   UNL     1      23.950   1.429  22.225  0.00  0.00    -0.015 C 
ATOM     22  C   UNL     1      23.798   1.193  23.731  0.00  0.00    +0.007 C 
ATOM     23  C   UNL     1      25.188   0.695  21.711  0.00  0.00    +0.007 C 
ENDBRANCH  18  20
ENDBRANCH  17  18
ENDBRANCH  19  17
ENDBRANCH  11   7
BRANCH  15  21
ATOM      5  O   UNL     1      16.668   6.042  19.845  0.00  0.00    -0.271 OA
ATOM      9  N   UNL     1      16.110   8.206  20.506  0.00  0.00    -0.300 N 
ATOM     21  C   UNL     1      16.944   7.107  20.396  0.00  0.00    +0.241 C 
ATOM     36  H   UNL     1      16.456   9.050  20.955  0.00  0.00    +0.150 HD
BRANCH   9  24
ATOM     24  C   UNL     1      14.770   8.237  19.970  0.00  0.00    +0.164 C 
BRANCH  24  27
ATOM      6  O   UNL     1      13.436   8.127  21.998  0.00  0.00    -0.274 OA
ATOM     10  N   UNL     1      13.531   6.274  20.643  0.00  0.00    -0.328 N 
ATOM     27  C   UNL     1      13.863   7.566  20.992  0.00  0.00    +0.231 C 
ATOM     37  H   UNL     1      13.888   5.824  19.807  0.00  0.00    +0.145 HD
ATOM     38  H   UNL     1      12.918   5.718  21.231  0.00  0.00    +0.145 HD
ENDBRANCH  24  27
BRANCH  24  25
ATOM     25  C   UNL     1      14.667   7.525  18.615  0.00  0.00    +0.074 C 
BRANCH  25  28
ATOM      1  S   UNL     1      12.111   8.167  17.711  0.00  0.00    -0.102 S 
ATOM     28  C   UNL     1      13.817   8.290  17.628  0.00  0.00    -0.008 A 
ATOM     29  C   UNL     1      14.226   9.122  16.609  0.00  0.00    +0.011 A 
ATOM     30  C   UNL     1      13.124   9.665  15.886  0.00  0.00    +0.008 A 
ATOM     31  C   UNL     1      11.915   9.228  16.382  0.00  0.00    +0.045 A 
ENDBRANCH  25  28
ENDBRANCH  24  25
ENDBRANCH   9  24
ENDBRANCH  15  21
BRANCH  12   2
ATOM      2  O   UNL     1      21.453   7.986  20.546  0.00  0.00    -0.387 OA
ATOM     33  H   UNL     1      22.070   8.735  20.601  0.00  0.00    +0.210 HD
ENDBRANCH  12   2
BRANCH  13   3
ATOM      3  O   UNL     1      19.551   8.704  23.587  0.00  0.00    -0.389 OA
ATOM     34  H   UNL     1      20.120   8.028  23.994  0.00  0.00    +0.210 HD
ENDBRANCH  13   3
TORSDOF 12
ENDMDL
MODEL 2
REMARK VINA RESULT:      -6.4     28.521     30.444
REMARK  Name = 11866301
REMARK  15 active torsions:
REMARK  status: ('A' for Active; 'I' for Inactive)
REMARK    1  A    between atoms: O_2  and  C_12
REMARK    2  A    between atoms: O_3  and  C_13
REMARK    3  A    between atoms: N_7  and  C_11
REMARK    4  A    between atoms: N_8  and  C_17
REMARK    5  A    between atoms: N_8  and  C_26
REMARK    6  A    between atoms: N_9  and  C_24
REMARK    7  A    between atoms: C_15  and  C_21
REMARK    8  A    between atoms: C_17  and  C_18
REMARK    9  A    between atoms: C_17  and  C_19
REMARK   10  A    between atoms: C_18  and  C_20
REMARK   11  A    between atoms: C_20  and  C_22
REMARK   12  A    between atoms: C_20  and  C_23
REMARK   13  A    between atoms: C_24  and  C_25
REMARK   14  A    between atoms: C_24  and  C_27
REMARK   15  A    between atoms: C_25  and  C_28
REMARK                            x       y       z     vdW  Elec       q    Type
REMARK                         _______ _______ _______ _____ _____    ______ ____
ROOT
ATOM     11  C   UNL     1      -2.462 -12.893  14.215  0.00  0.00    +0.127 C 
ATOM     12  C   UNL     1      -2.371 -14.419  14.409  0.00  0.00    +0.167 C 
ATOM     13  C   UNL     1      -1.803 -15.112  13.166  0.00  0.00    +0.149 C 
ATOM     14  C   UNL     1      -2.612 -14.783  11.898  0.00  0.00    +0.074 C 
ATOM     15  C   UNL     1      -3.080 -13.357  11.844  0.00  0.00    +0.015 C 
ATOM     16  C   UNL     1      -3.011 -12.496  12.872  0.00  0.00    +0.006 C 
ENDROOT
BRANCH  11   7
ATOM      4  O   UNL     1      -1.795 -10.537  15.740  0.00  0.00    -0.274 OA
ATOM      7  N   UNL     1      -3.257 -12.272  15.246  0.00  0.00    -0.305 N 
ATOM     19  C   UNL     1      -2.854 -11.134  15.928  0.00  0.00    +0.231 C 
ATOM     32  H   UNL     1      -4.136 -12.714  15.502  0.00  0.00    +0.149 HD
BRANCH  19  17
ATOM     17  C   UNL     1      -3.860 -10.701  16.989  0.00  0.00    +0.140 C 
BRANCH  17   8
ATOM      8  N   UNL     1      -4.564  -9.550  16.419  0.00  0.00    -0.309 NA
ATOM     26  C   UNL     1      -5.992  -9.813  16.334  0.00  0.00    +0.101 C 
ATOM     35  H   UNL     1      -4.380  -8.704  16.956  0.00  0.00    +0.122 HD
ENDBRANCH  17   8
BRANCH  17  18
ATOM     18  C   UNL     1      -4.861 -11.815  17.335  0.00  0.00    +0.031 C 
BRANCH  18  20
ATOM     20  C   UNL     1      -4.846 -12.253  18.815  0.00  0.00    -0.015 C 
ATOM     22  C   UNL     1      -5.789 -11.362  19.628  0.00  0.00    +0.007 C 
ATOM     23  C   UNL     1      -3.443 -12.210  19.424  0.00  0.00    +0.007 C 
ENDBRANCH  18  20
ENDBRANCH  17  18
ENDBRANCH  19  17
ENDBRANCH  11   7
BRANCH  15  21
ATOM      5  O   UNL     1      -3.879 -13.626   9.652  0.00  0.00    -0.271 OA
ATOM      9  N   UNL     1      -3.818 -11.487  10.575  0.00  0.00    -0.300 N 
ATOM     21  C   UNL     1      -3.631 -12.858  10.580  0.00  0.00    +0.241 C 
ATOM     36  H   UNL     1      -3.546 -10.944  11.391  0.00  0.00    +0.150 HD
BRANCH   9  24
ATOM     24  C   UNL     1      -4.347 -10.767   9.441  0.00  0.00    +0.164 C 
BRANCH  24  27
ATOM      6  O   UNL     1      -2.831  -9.033  10.215  0.00  0.00    -0.274 OA
ATOM     10  N   UNL     1      -4.402  -8.491   8.628  0.00  0.00    -0.328 N 
ATOM     27  C   UNL     1      -3.777  -9.357   9.500  0.00  0.00    +0.231 C 
ATOM     37  H   UNL     1      -5.180  -8.773   8.041  0.00  0.00    +0.145 HD
ATOM     38  H   UNL     1      -4.106  -7.522   8.556  0.00  0.00    +0.145 HD
ENDBRANCH  24  27
BRANCH  24  25
ATOM     25  C   UNL     1      -5.881 -10.723   9.441  0.00  0.00    +0.074 C 
BRANCH  25  28
ATOM      1  S   UNL     1      -7.108 -11.791  11.702  0.00  0.00    -0.102 S 
ATOM     28  C   UNL     1      -6.447 -10.480  10.820  0.00  0.00    -0.008 A 
ATOM     29  C   UNL     1      -6.520  -9.297  11.522  0.00  0.00    +0.011 A 
ATOM     30  C   UNL     1      -7.126  -9.468  12.800  0.00  0.00    +0.008 A 
ATOM     31  C   UNL     1      -7.493 -10.777  13.027  0.00  0.00    +0.045 A 
ENDBRANCH  25  28
ENDBRANCH  24  25
ENDBRANCH   9  24
ENDBRANCH  15  21
BRANCH  12   2
ATOM      2  O   UNL     1      -3.673 -14.947  14.674  0.00  0.00    -0.387 OA
ATOM     33  H   UNL     1      -4.102 -15.112  13.817  0.00  0.00    +0.210 HD
ENDBRANCH  12   2
BRANCH  13   3
ATOM      3  O   UNL     1      -0.437 -14.746  12.982  0.00  0.00    -0.389 OA
ATOM     34  H   UNL     1      -0.347 -14.388  12.082  0.00  0.00    +0.210 HD
ENDBRANCH  13   3
TORSDOF 12
ENDMDL
MODEL 3
REMARK VINA RESULT:      -6.3      5.366     12.216
REMARK  Name = 11866301
REMARK  15 active torsions:
REMARK  status: ('A' for Active; 'I' for Inactive)
REMARK    1  A    between atoms: O_2  and  C_12
REMARK    2  A    between atoms: O_3  and  C_13
REMARK    3  A    between atoms: N_7  and  C_11
REMARK    4  A    between atoms: N_8  and  C_17
REMARK    5  A    between atoms: N_8  and  C_26
REMARK    6  A    between atoms: N_9  and  C_24
REMARK    7  A    between atoms: C_15  and  C_21
REMARK    8  A    between atoms: C_17  and  C_18
REMARK    9  A    between atoms: C_17  and  C_19
REMARK   10  A    between atoms: C_18  and  C_20
REMARK   11  A    between atoms: C_20  and  C_22
REMARK   12  A    between atoms: C_20  and  C_23
REMARK   13  A    between atoms: C_24  and  C_25
REMARK   14  A    between atoms: C_24  and  C_27
REMARK   15  A    between atoms: C_25  and  C_28
REMARK                            x       y       z     vdW  Elec       q    Type
REMARK                         _______ _______ _______ _____ _____    ______ ____
ROOT
ATOM     11  C   UNL     1      13.833  12.181  14.576  0.00  0.00    +0.127 C 
ATOM     12  C   UNL     1      14.394  13.240  15.544  0.00  0.00    +0.167 C 
ATOM     13  C   UNL     1      15.598  12.704  16.329  0.00  0.00    +0.149 C 
ATOM     14  C   UNL     1      15.262  11.409  17.090  0.00  0.00    +0.074 C 
ATOM     15  C   UNL     1      14.363  10.482  16.323  0.00  0.00    +0.015 C 
ATOM     16  C   UNL     1      13.723  10.812  15.190  0.00  0.00    +0.006 C 
ENDROOT
BRANCH  11   7
ATOM      4  O   UNL     1      12.913  11.942  11.852  0.00  0.00    -0.274 OA
ATOM      7  N   UNL     1      12.542  12.565  14.058  0.00  0.00    -0.305 N 
ATOM     19  C   UNL     1      12.186  12.411  12.727  0.00  0.00    +0.231 C 
ATOM     32  H   UNL     1      11.882  12.999  14.698  0.00  0.00    +0.149 HD
BRANCH  19  17
ATOM     17  C   UNL     1      10.781  12.925  12.434  0.00  0.00    +0.140 C 
BRANCH  17   8
ATOM      8  N   UNL     1      10.493  13.908  13.481  0.00  0.00    -0.309 NA
ATOM     26  C   UNL     1       9.752  15.034  12.938  0.00  0.00    +0.101 C 
ATOM     35  H   UNL     1       9.992  13.481  14.258  0.00  0.00    +0.122 HD
ENDBRANCH  17   8
BRANCH  17  18
ATOM     18  C   UNL     1      10.676  13.583  11.049  0.00  0.00    +0.031 C 
BRANCH  18  20
ATOM     20  C   UNL     1       9.821  12.799  10.030  0.00  0.00    -0.015 C 
ATOM     22  C   UNL     1       8.728  13.710   9.464  0.00  0.00    +0.007 C 
ATOM     23  C   UNL     1       9.185  11.548  10.639  0.00  0.00    +0.007 C 
ENDBRANCH  18  20
ENDBRANCH  17  18
ENDBRANCH  19  17
ENDBRANCH  11   7
BRANCH  15  21
ATOM      5  O   UNL     1      13.918   8.190  16.064  0.00  0.00    -0.271 OA
ATOM      9  N   UNL     1      14.346   9.023  18.199  0.00  0.00    -0.300 N 
ATOM     21  C   UNL     1      14.185   9.117  16.828  0.00  0.00    +0.241 C 
ATOM     36  H   UNL     1      14.534   9.864  18.737  0.00  0.00    +0.150 HD
BRANCH   9  24
ATOM     24  C   UNL     1      14.216   7.781  18.925  0.00  0.00    +0.164 C 
BRANCH  24  27
ATOM      6  O   UNL     1      12.195   8.075  20.242  0.00  0.00    -0.274 OA
ATOM     10  N   UNL     1      12.062   6.898  18.274  0.00  0.00    -0.328 N 
ATOM     27  C   UNL     1      12.739   7.604  19.247  0.00  0.00    +0.231 C 
ATOM     37  H   UNL     1      12.523   6.517  17.454  0.00  0.00    +0.145 HD
ATOM     38  H   UNL     1      11.066   6.723  18.357  0.00  0.00    +0.145 HD
ENDBRANCH  24  27
BRANCH  24  25
ATOM     25  C   UNL     1      15.048   7.770  20.214  0.00  0.00    +0.074 C 
BRANCH  25  28
ATOM      1  S   UNL     1      17.664   7.394  21.094  0.00  0.00    -0.102 S 
ATOM     28  C   UNL     1      16.359   7.039  20.044  0.00  0.00    -0.008 A 
ATOM     29  C   UNL     1      16.689   6.072  19.119  0.00  0.00    +0.011 A 
ATOM     30  C   UNL     1      18.030   5.618  19.275  0.00  0.00    +0.008 A 
ATOM     31  C   UNL     1      18.675   6.254  20.313  0.00  0.00    +0.045 A 
ENDBRANCH  25  28
ENDBRANCH  24  25
ENDBRANCH   9  24
ENDBRANCH  15  21
BRANCH  12   2
ATOM      2  O   UNL     1      13.378  13.628  16.472  0.00  0.00    -0.387 OA
ATOM     33  H   UNL     1      12.882  12.828  16.714  0.00  0.00    +0.210 HD
ENDBRANCH  12   2
BRANCH  13   3
ATOM      3  O   UNL     1      16.698  12.482  15.448  0.00  0.00    -0.389 OA
ATOM     34  H   UNL     1      16.463  12.862  14.584  0.00  0.00    +0.210 HD
ENDBRANCH  13   3
TORSDOF 12
ENDMDL
MODEL 4
REMARK VINA RESULT:      -6.3     31.440     34.990
REMARK  Name = 11866301
REMARK  15 active torsions:
REMARK  status: ('A' for Active; 'I' for Inactive)
REMARK    1  A    between atoms: O_2  and  C_12
REMARK    2  A    between atoms: O_3  and  C_13
REMARK    3  A    between atoms: N_7  and  C_11
REMARK    4  A    between atoms: N_8  and  C_17
REMARK    5  A    between atoms: N_8  and  C_26
REMARK    6  A    between atoms: N_9  and  C_24
REMARK    7  A    between atoms: C_15  and  C_21
REMARK    8  A    between atoms: C_17  and  C_18
REMARK    9  A    between atoms: C_17  and  C_19
REMARK   10  A    between atoms: C_18  and  C_20
REMARK   11  A    between atoms: C_20  and  C_22
REMARK   12  A    between atoms: C_20  and  C_23
REMARK   13  A    between atoms: C_24  and  C_25
REMARK   14  A    between atoms: C_24  and  C_27
REMARK   15  A    between atoms: C_25  and  C_28
REMARK                            x       y       z     vdW  Elec       q    Type
REMARK                         _______ _______ _______ _____ _____    ______ ____
ROOT
ATOM     11  C   UNL     1     -16.848   2.527  26.398  0.00  0.00    +0.127 C 
ATOM     12  C   UNL     1     -18.238   3.182  26.515  0.00  0.00    +0.167 C 
ATOM     13  C   UNL     1     -18.726   3.712  25.161  0.00  0.00    +0.149 C 
ATOM     14  C   UNL     1     -17.725   4.695  24.529  0.00  0.00    +0.074 C 
ATOM     15  C   UNL     1     -16.290   4.299  24.733  0.00  0.00    +0.015 C 
ATOM     16  C   UNL     1     -15.884   3.324  25.561  0.00  0.00    +0.006 C 
ENDROOT
BRANCH  11   7
ATOM      4  O   UNL     1     -17.420   0.349  28.201  0.00  0.00    -0.274 OA
ATOM      7  N   UNL     1     -16.259   2.295  27.695  0.00  0.00    -0.305 N 
ATOM     19  C   UNL     1     -16.597   1.215  28.495  0.00  0.00    +0.231 C 
ATOM     32  H   UNL     1     -15.592   2.978  28.045  0.00  0.00    +0.149 HD
BRANCH  19  17
ATOM     17  C   UNL     1     -15.856   1.219  29.828  0.00  0.00    +0.140 C 
BRANCH  17   8
ATOM      8  N   UNL     1     -15.475  -0.174  30.073  0.00  0.00    -0.309 NA
ATOM     26  C   UNL     1     -14.074  -0.387  29.752  0.00  0.00    +0.101 C 
ATOM     35  H   UNL     1     -15.676  -0.445  31.035  0.00  0.00    +0.122 HD
ENDBRANCH  17   8
BRANCH  17  18
ATOM     18  C   UNL     1     -14.604   2.111  29.797  0.00  0.00    +0.031 C 
BRANCH  18  20
ATOM     20  C   UNL     1     -14.551   3.178  30.912  0.00  0.00    -0.015 C 
ATOM     22  C   UNL     1     -13.524   2.767  31.971  0.00  0.00    +0.007 C 
ATOM     23  C   UNL     1     -15.911   3.403  31.573  0.00  0.00    +0.007 C 
ENDBRANCH  18  20
ENDBRANCH  17  18
ENDBRANCH  19  17
ENDBRANCH  11   7
BRANCH  15  21
ATOM      5  O   UNL     1     -14.169   4.487  23.742  0.00  0.00    -0.271 OA
ATOM      9  N   UNL     1     -15.665   6.264  23.551  0.00  0.00    -0.300 N 
ATOM     21  C   UNL     1     -15.262   5.006  23.965  0.00  0.00    +0.241 C 
ATOM     36  H   UNL     1     -16.584   6.606  23.821  0.00  0.00    +0.150 HD
BRANCH   9  24
ATOM     24  C   UNL     1     -14.823   7.150  22.782  0.00  0.00    +0.164 C 
BRANCH  24  27
ATOM      6  O   UNL     1     -16.049   9.201  22.344  0.00  0.00    -0.274 OA
ATOM     10  N   UNL     1     -14.797   9.059  24.264  0.00  0.00    -0.328 N 
ATOM     27  C   UNL     1     -15.286   8.570  23.071  0.00  0.00    +0.231 C 
ATOM     37  H   UNL     1     -14.169   8.525  24.857  0.00  0.00    +0.145 HD
ATOM     38  H   UNL     1     -15.042   9.989  24.585  0.00  0.00    +0.145 HD
ENDBRANCH  24  27
BRANCH  24  25
ATOM     25  C   UNL     1     -14.894   6.861  21.277  0.00  0.00    +0.074 C 
BRANCH  25  28
ATOM      1  S   UNL     1     -13.664   8.159  19.142  0.00  0.00    -0.102 S 
ATOM     28  C   UNL     1     -13.609   7.208  20.565  0.00  0.00    -0.008 A 
ATOM     29  C   UNL     1     -12.319   6.857  20.901  0.00  0.00    +0.011 A 
ATOM     30  C   UNL     1     -11.365   7.375  19.979  0.00  0.00    +0.008 A 
ATOM     31  C   UNL     1     -11.961   8.104  18.973  0.00  0.00    +0.045 A 
ENDBRANCH  25  28
ENDBRANCH  24  25
ENDBRANCH   9  24
ENDBRANCH  15  21
BRANCH  12   2
ATOM      2  O   UNL     1     -18.179   4.271  27.440  0.00  0.00    -0.387 OA
ATOM     33  H   UNL     1     -18.443   3.929  28.311  0.00  0.00    +0.210 HD
ENDBRANCH  12   2
BRANCH  13   3
ATOM      3  O   UNL     1     -18.974   2.626  24.270  0.00  0.00    -0.389 OA
ATOM     34  H   UNL     1     -19.650   2.059  24.679  0.00  0.00    +0.210 HD
ENDBRANCH  13   3
TORSDOF 12
ENDMDL
MODEL 5
REMARK VINA RESULT:      -6.3     28.222     31.938
REMARK  Name = 11866301
REMARK  15 active torsions:
REMARK  status: ('A' for Active; 'I' for Inactive)
REMARK    1  A    between atoms: O_2  and  C_12
REMARK    2  A    between atoms: O_3  and  C_13
REMARK    3  A    between atoms: N_7  and  C_11
REMARK    4  A    between atoms: N_8  and  C_17
REMARK    5  A    between atoms: N_8  and  C_26
REMARK    6  A    between atoms: N_9  and  C_24
REMARK    7  A    between atoms: C_15  and  C_21
REMARK    8  A    between atoms: C_17  and  C_18
REMARK    9  A    between atoms: C_17  and  C_19
REMARK   10  A    between atoms: C_18  and  C_20
REMARK   11  A    between atoms: C_20  and  C_22
REMARK   12  A    between atoms: C_20  and  C_23
REMARK   13  A    between atoms: C_24  and  C_25
REMARK   14  A    between atoms: C_24  and  C_27
REMARK   15  A    between atoms: C_25  and  C_28
REMARK                            x       y       z     vdW  Elec       q    Type
REMARK                         _______ _______ _______ _____ _____    ______ ____
ROOT
ATOM     11  C   UNL     1      -6.144  -9.704   9.605  0.00  0.00    +0.127 C 
ATOM     12  C   UNL     1      -4.809  -9.906   8.862  0.00  0.00    +0.167 C 
ATOM     13  C   UNL     1      -3.988 -11.043   9.480  0.00  0.00    +0.149 C 
ATOM     14  C   UNL     1      -3.734 -10.825  10.983  0.00  0.00    +0.074 C 
ATOM     15  C   UNL     1      -4.913 -10.240  11.706  0.00  0.00    +0.015 C 
ATOM     16  C   UNL     1      -6.003  -9.742  11.102  0.00  0.00    +0.006 C 
ENDROOT
BRANCH  11   7
ATOM      4  O   UNL     1      -8.955  -9.277   9.113  0.00  0.00    -0.274 OA
ATOM      7  N   UNL     1      -6.781  -8.466   9.227  0.00  0.00    -0.305 N 
ATOM     19  C   UNL     1      -8.147  -8.355   9.011  0.00  0.00    +0.231 C 
ATOM     32  H   UNL     1      -6.191  -7.652   9.080  0.00  0.00    +0.149 HD
BRANCH  19  17
ATOM     17  C   UNL     1      -8.559  -6.948   8.590  0.00  0.00    +0.140 C 
BRANCH  17   8
ATOM      8  N   UNL     1      -7.802  -6.663   7.369  0.00  0.00    -0.309 NA
ATOM     26  C   UNL     1      -8.451  -7.257   6.212  0.00  0.00    +0.101 C 
ATOM     35  H   UNL     1      -7.675  -5.660   7.242  0.00  0.00    +0.122 HD
ENDBRANCH  17   8
BRANCH  17  18
ATOM     18  C   UNL     1     -10.067  -6.840   8.314  0.00  0.00    +0.031 C 
BRANCH  18  20
ATOM     20  C   UNL     1     -10.781  -5.712   9.091  0.00  0.00    -0.015 C 
ATOM     22  C   UNL     1     -12.249  -5.637   8.659  0.00  0.00    +0.007 C 
ATOM     23  C   UNL     1     -10.115  -4.350   8.890  0.00  0.00    +0.007 C 
ENDBRANCH  18  20
ENDBRANCH  17  18
ENDBRANCH  19  17
ENDBRANCH  11   7
BRANCH  15  21
ATOM      5  O   UNL     1      -5.778  -9.676  13.816  0.00  0.00    -0.271 OA
ATOM      9  N   UNL     1      -3.786 -10.880  13.699  0.00  0.00    -0.300 N 
ATOM     21  C   UNL     1      -4.887 -10.227  13.172  0.00  0.00    +0.241 C 
ATOM     36  H   UNL     1      -3.091 -11.273  13.069  0.00  0.00    +0.150 HD
BRANCH   9  24
ATOM     24  C   UNL     1      -3.541 -10.997  15.117  0.00  0.00    +0.164 C 
BRANCH  24  27
ATOM      6  O   UNL     1      -1.413 -11.944  14.425  0.00  0.00    -0.274 OA
ATOM     10  N   UNL     1      -1.560 -10.974  16.502  0.00  0.00    -0.328 N 
ATOM     27  C   UNL     1      -2.078 -11.377  15.289  0.00  0.00    +0.231 C 
ATOM     37  H   UNL     1      -2.120 -10.504  17.207  0.00  0.00    +0.145 HD
ATOM     38  H   UNL     1      -0.589 -11.151  16.738  0.00  0.00    +0.145 HD
ENDBRANCH  24  27
BRANCH  24  25
ATOM     25  C   UNL     1      -4.447 -12.042  15.781  0.00  0.00    +0.074 C 
BRANCH  25  28
ATOM      1  S   UNL     1      -6.869 -11.148  16.825  0.00  0.00    -0.102 S 
ATOM     28  C   UNL     1      -5.196 -11.482  16.967  0.00  0.00    -0.008 A 
ATOM     29  C   UNL     1      -4.714 -11.181  18.222  0.00  0.00    +0.011 A 
ATOM     30  C   UNL     1      -5.731 -10.667  19.077  0.00  0.00    +0.008 A 
ATOM     31  C   UNL     1      -6.953 -10.598  18.445  0.00  0.00    +0.045 A 
ENDBRANCH  25  28
ENDBRANCH  24  25
ENDBRANCH   9  24
ENDBRANCH  15  21
BRANCH  12   2
ATOM      2  O   UNL     1      -4.042  -8.701   8.920  0.00  0.00    -0.387 OA
ATOM     33  H   UNL     1      -4.219  -8.202   8.105  0.00  0.00    +0.210 HD
ENDBRANCH  12   2
BRANCH  13   3
ATOM      3  O   UNL     1      -4.644 -12.292   9.272  0.00  0.00    -0.389 OA
ATOM     34  H   UNL     1      -3.964 -12.947   9.039  0.00  0.00    +0.210 HD
ENDBRANCH  13   3
TORSDOF 12
ENDMDL
MODEL 6
REMARK VINA RESULT:      -6.2     16.406     20.570
REMARK  Name = 11866301
REMARK  15 active torsions:
REMARK  status: ('A' for Active; 'I' for Inactive)
REMARK    1  A    between atoms: O_2  and  C_12
REMARK    2  A    between atoms: O_3  and  C_13
REMARK    3  A    between atoms: N_7  and  C_11
REMARK    4  A    between atoms: N_8  and  C_17
REMARK    5  A    between atoms: N_8  and  C_26
REMARK    6  A    between atoms: N_9  and  C_24
REMARK    7  A    between atoms: C_15  and  C_21
REMARK    8  A    between atoms: C_17  and  C_18
REMARK    9  A    between atoms: C_17  and  C_19
REMARK   10  A    between atoms: C_18  and  C_20
REMARK   11  A    between atoms: C_20  and  C_22
REMARK   12  A    between atoms: C_20  and  C_23
REMARK   13  A    between atoms: C_24  and  C_25
REMARK   14  A    between atoms: C_24  and  C_27
REMARK   15  A    between atoms: C_25  and  C_28
REMARK                            x       y       z     vdW  Elec       q    Type
REMARK                         _______ _______ _______ _____ _____    ______ ____
ROOT
ATOM     11  C   UNL     1       9.990   7.060   3.826  0.00  0.00    +0.127 C 
ATOM     12  C   UNL     1      10.448   8.376   3.167  0.00  0.00    +0.167 C 
ATOM     13  C   UNL     1      10.590   8.225   1.648  0.00  0.00    +0.149 C 
ATOM     14  C   UNL     1      11.542   7.077   1.266  0.00  0.00    +0.074 C 
ATOM     15  C   UNL     1      11.410   5.873   2.154  0.00  0.00    +0.015 C 
ATOM     16  C   UNL     1      10.711   5.849   3.300  0.00  0.00    +0.006 C 
ENDROOT
BRANCH  11   7
ATOM      4  O   UNL     1       8.174   8.257   5.722  0.00  0.00    -0.274 OA
ATOM      7  N   UNL     1      10.137   7.104   5.260  0.00  0.00    -0.305 N 
ATOM     19  C   UNL     1       9.207   7.704   6.097  0.00  0.00    +0.231 C 
ATOM     32  H   UNL     1      10.979   6.706   5.666  0.00  0.00    +0.149 HD
BRANCH  19  17
ATOM     17  C   UNL     1       9.615   7.641   7.565  0.00  0.00    +0.140 C 
BRANCH  17   8
ATOM      8  N   UNL     1       9.311   8.964   8.116  0.00  0.00    -0.309 NA
ATOM     26  C   UNL     1      10.503   9.795   8.145  0.00  0.00    +0.101 C 
ATOM     35  H   UNL     1       8.563   9.416   7.592  0.00  0.00    +0.122 HD
ENDBRANCH  17   8
BRANCH  17  18
ATOM     18  C   UNL     1       8.849   6.557   8.339  0.00  0.00    +0.031 C 
BRANCH  18  20
ATOM     20  C   UNL     1       9.722   5.381   8.827  0.00  0.00    -0.015 C 
ATOM     22  C   UNL     1       9.891   4.360   7.699  0.00  0.00    +0.007 C 
ATOM     23  C   UNL     1       9.139   4.692  10.062  0.00  0.00    +0.007 C 
ENDBRANCH  18  20
ENDBRANCH  17  18
ENDBRANCH  19  17
ENDBRANCH  11   7
BRANCH  15  21
ATOM      5  O   UNL     1      11.747   3.550   2.226  0.00  0.00    -0.271 OA
ATOM      9  N   UNL     1      13.047   4.835   0.780  0.00  0.00    -0.300 N 
ATOM     21  C   UNL     1      12.070   4.632   1.738  0.00  0.00    +0.241 C 
ATOM     36  H   UNL     1      13.254   5.781   0.471  0.00  0.00    +0.150 HD
BRANCH   9  24
ATOM     24  C   UNL     1      13.835   3.763   0.217  0.00  0.00    +0.164 C 
BRANCH  24  27
ATOM      6  O   UNL     1      15.235   3.151   2.107  0.00  0.00    -0.274 OA
ATOM     10  N   UNL     1      16.195   4.271   0.346  0.00  0.00    -0.328 N 
ATOM     27  C   UNL     1      15.132   3.696   1.011  0.00  0.00    +0.231 C 
ATOM     37  H   UNL     1      16.097   4.715  -0.562  0.00  0.00    +0.145 HD
ATOM     38  H   UNL     1      17.123   4.279   0.757  0.00  0.00    +0.145 HD
ENDBRANCH  24  27
BRANCH  24  25
ATOM     25  C   UNL     1      14.131   3.977  -1.273  0.00  0.00    +0.074 C 
BRANCH  25  28
ATOM      1  S   UNL     1      12.677   4.396  -3.611  0.00  0.00    -0.102 S 
ATOM     28  C   UNL     1      12.981   3.550  -2.154  0.00  0.00    -0.008 A 
ATOM     29  C   UNL     1      12.083   2.524  -1.955  0.00  0.00    +0.011 A 
ATOM     30  C   UNL     1      11.133   2.432  -3.013  0.00  0.00    +0.008 A 
ATOM     31  C   UNL     1      11.342   3.391  -3.981  0.00  0.00    +0.045 A 
ENDBRANCH  25  28
ENDBRANCH  24  25
ENDBRANCH   9  24
ENDBRANCH  15  21
BRANCH  12   2
ATOM      2  O   UNL     1      11.712   8.768   3.709  0.00  0.00    -0.387 OA
ATOM     33  H   UNL     1      12.388   8.183   3.329  0.00  0.00    +0.210 HD
ENDBRANCH  12   2
BRANCH  13   3
ATOM      3  O   UNL     1       9.311   8.017   1.054  0.00  0.00    -0.389 OA
ATOM     34  H   UNL     1       9.453   7.592   0.191  0.00  0.00    +0.210 HD
ENDBRANCH  13   3
TORSDOF 12
ENDMDL
MODEL 7
REMARK VINA RESULT:      -6.2     27.697     31.178
REMARK  Name = 11866301
REMARK  15 active torsions:
REMARK  status: ('A' for Active; 'I' for Inactive)
REMARK    1  A    between atoms: O_2  and  C_12
REMARK    2  A    between atoms: O_3  and  C_13
REMARK    3  A    between atoms: N_7  and  C_11
REMARK    4  A    between atoms: N_8  and  C_17
REMARK    5  A    between atoms: N_8  and  C_26
REMARK    6  A    between atoms: N_9  and  C_24
REMARK    7  A    between atoms: C_15  and  C_21
REMARK    8  A    between atoms: C_17  and  C_18
REMARK    9  A    between atoms: C_17  and  C_19
REMARK   10  A    between atoms: C_18  and  C_20
REMARK   11  A    between atoms: C_20  and  C_22
REMARK   12  A    between atoms: C_20  and  C_23
REMARK   13  A    between atoms: C_24  and  C_25
REMARK   14  A    between atoms: C_24  and  C_27
REMARK   15  A    between atoms: C_25  and  C_28
REMARK                            x       y       z     vdW  Elec       q    Type
REMARK                         _______ _______ _______ _____ _____    ______ ____
ROOT
ATOM     11  C   UNL     1      -5.481 -11.991  16.457  0.00  0.00    +0.127 C 
ATOM     12  C   UNL     1      -5.060 -12.539  17.834  0.00  0.00    +0.167 C 
ATOM     13  C   UNL     1      -6.278 -12.849  18.713  0.00  0.00    +0.149 C 
ATOM     14  C   UNL     1      -7.196 -11.625  18.883  0.00  0.00    +0.074 C 
ATOM     15  C   UNL     1      -7.332 -10.804  17.632  0.00  0.00    +0.015 C 
ATOM     16  C   UNL     1      -6.576 -10.963  16.535  0.00  0.00    +0.006 C 
ENDROOT
BRANCH  11   7
ATOM      4  O   UNL     1      -3.837 -13.306  14.484  0.00  0.00    -0.274 OA
ATOM      7  N   UNL     1      -4.360 -11.427  15.744  0.00  0.00    -0.305 N 
ATOM     19  C   UNL     1      -3.625 -12.138  14.808  0.00  0.00    +0.231 C 
ATOM     32  H   UNL     1      -4.082 -10.476  15.970  0.00  0.00    +0.149 HD
BRANCH  19  17
ATOM     17  C   UNL     1      -2.476 -11.323  14.226  0.00  0.00    +0.140 C 
BRANCH  17   8
ATOM      8  N   UNL     1      -1.371 -11.461  15.178  0.00  0.00    -0.309 NA
ATOM     26  C   UNL     1      -0.956 -10.159  15.674  0.00  0.00    +0.101 C 
ATOM     35  H   UNL     1      -1.625 -12.081  15.946  0.00  0.00    +0.122 HD
ENDBRANCH  17   8
BRANCH  17  18
ATOM     18  C   UNL     1      -2.044 -11.829  12.840  0.00  0.00    +0.031 C 
BRANCH  18  20
ATOM     20  C   UNL     1      -2.346 -10.855  11.680  0.00  0.00    -0.015 C 
ATOM     22  C   UNL     1      -1.339  -9.702  11.698  0.00  0.00    +0.007 C 
ATOM     23  C   UNL     1      -3.769 -10.298  11.739  0.00  0.00    +0.007 C 
ENDBRANCH  18  20
ENDBRANCH  17  18
ENDBRANCH  19  17
ENDBRANCH  11   7
BRANCH  15  21
ATOM      5  O   UNL     1      -8.183  -8.704  17.011  0.00  0.00    -0.271 OA
ATOM      9  N   UNL     1      -9.525 -10.140  18.265  0.00  0.00    -0.300 N 
ATOM     21  C   UNL     1      -8.372  -9.771  17.594  0.00  0.00    +0.241 C 
ATOM     36  H   UNL     1      -9.559 -11.038  18.741  0.00  0.00    +0.150 HD
BRANCH   9  24
ATOM     24  C   UNL     1     -10.686  -9.287  18.366  0.00  0.00    +0.164 C 
BRANCH  24  27
ATOM      6  O   UNL     1     -12.658  -9.685  19.730  0.00  0.00    -0.274 OA
ATOM     10  N   UNL     1     -10.592 -10.132  20.629  0.00  0.00    -0.328 N 
ATOM     27  C   UNL     1     -11.434  -9.697  19.627  0.00  0.00    +0.231 C 
ATOM     37  H   UNL     1      -9.582 -10.139  20.530  0.00  0.00    +0.145 HD
ATOM     38  H   UNL     1     -10.963 -10.450  21.519  0.00  0.00    +0.145 HD
ENDBRANCH  24  27
BRANCH  24  25
ATOM     25  C   UNL     1     -11.602  -9.401  17.141  0.00  0.00    +0.074 C 
BRANCH  25  28
ATOM      1  S   UNL     1     -13.425  -7.701  15.898  0.00  0.00    -0.102 S 
ATOM     28  C   UNL     1     -11.859  -8.063  16.490  0.00  0.00    -0.008 A 
ATOM     29  C   UNL     1     -10.977  -7.024  16.286  0.00  0.00    +0.011 A 
ATOM     30  C   UNL     1     -11.594  -5.918  15.635  0.00  0.00    +0.008 A 
ATOM     31  C   UNL     1     -12.926  -6.152  15.367  0.00  0.00    +0.045 A 
ENDBRANCH  25  28
ENDBRANCH  24  25
ENDBRANCH   9  24
ENDBRANCH  15  21
BRANCH  12   2
ATOM      2  O   UNL     1      -4.244 -11.576  18.505  0.00  0.00    -0.387 OA
ATOM     33  H   UNL     1      -4.833 -10.885  18.853  0.00  0.00    +0.210 HD
ENDBRANCH  12   2
BRANCH  13   3
ATOM      3  O   UNL     1      -7.015 -13.939  18.163  0.00  0.00    -0.389 OA
ATOM     34  H   UNL     1      -7.046 -14.641  18.835  0.00  0.00    +0.210 HD
ENDBRANCH  13   3
TORSDOF 12
ENDMDL
MODEL 8
REMARK VINA RESULT:      -6.2     27.450     31.991
REMARK  Name = 11866301
REMARK  15 active torsions:
REMARK  status: ('A' for Active; 'I' for Inactive)
REMARK    1  A    between atoms: O_2  and  C_12
REMARK    2  A    between atoms: O_3  and  C_13
REMARK    3  A    between atoms: N_7  and  C_11
REMARK    4  A    between atoms: N_8  and  C_17
REMARK    5  A    between atoms: N_8  and  C_26
REMARK    6  A    between atoms: N_9  and  C_24
REMARK    7  A    between atoms: C_15  and  C_21
REMARK    8  A    between atoms: C_17  and  C_18
REMARK    9  A    between atoms: C_17  and  C_19
REMARK   10  A    between atoms: C_18  and  C_20
REMARK   11  A    between atoms: C_20  and  C_22
REMARK   12  A    between atoms: C_20  and  C_23
REMARK   13  A    between atoms: C_24  and  C_25
REMARK   14  A    between atoms: C_24  and  C_27
REMARK   15  A    between atoms: C_25  and  C_28
REMARK                            x       y       z     vdW  Elec       q    Type
REMARK                         _______ _______ _______ _____ _____    ______ ____
ROOT
ATOM     11  C   UNL     1      -7.777  -9.642  17.363  0.00  0.00    +0.127 C 
ATOM     12  C   UNL     1      -8.305 -10.505  18.525  0.00  0.00    +0.167 C 
ATOM     13  C   UNL     1      -7.158 -11.087  19.360  0.00  0.00    +0.149 C 
ATOM     14  C   UNL     1      -6.168 -11.895  18.501  0.00  0.00    +0.074 C 
ATOM     15  C   UNL     1      -5.911 -11.283  17.154  0.00  0.00    +0.015 C 
ATOM     16  C   UNL     1      -6.619 -10.268  16.635  0.00  0.00    +0.006 C 
ENDROOT
BRANCH  11   7
ATOM      4  O   UNL     1      -9.758  -7.554  17.563  0.00  0.00    -0.274 OA
ATOM      7  N   UNL     1      -8.817  -9.337  16.411  0.00  0.00    -0.305 N 
ATOM     19  C   UNL     1      -9.729  -8.309  16.592  0.00  0.00    +0.231 C 
ATOM     32  H   UNL     1      -8.901  -9.931  15.590  0.00  0.00    +0.149 HD
BRANCH  19  17
ATOM     17  C   UNL     1     -10.744  -8.220  15.457  0.00  0.00    +0.140 C 
BRANCH  17   8
ATOM      8  N   UNL     1     -10.678  -9.510  14.766  0.00  0.00    -0.309 NA
ATOM     26  C   UNL     1     -10.813  -9.331  13.330  0.00  0.00    +0.101 C 
ATOM     35  H   UNL     1      -9.816 -10.004  14.994  0.00  0.00    +0.122 HD
ENDBRANCH  17   8
BRANCH  17  18
ATOM     18  C   UNL     1     -12.172  -7.967  15.968  0.00  0.00    +0.031 C 
BRANCH  18  20
ATOM     20  C   UNL     1     -12.700  -6.539  15.712  0.00  0.00    -0.015 C 
ATOM     22  C   UNL     1     -14.085  -6.610  15.063  0.00  0.00    +0.007 C 
ATOM     23  C   UNL     1     -11.760  -5.716  14.830  0.00  0.00    +0.007 C 
ENDBRANCH  18  20
ENDBRANCH  17  18
ENDBRANCH  19  17
ENDBRANCH  11   7
BRANCH  15  21
ATOM      5  O   UNL     1      -4.588 -13.023  16.293  0.00  0.00    -0.271 OA
ATOM      9  N   UNL     1      -4.071 -10.823  15.721  0.00  0.00    -0.300 N 
ATOM     21  C   UNL     1      -4.802 -11.813  16.355  0.00  0.00    +0.241 C 
ATOM     36  H   UNL     1      -4.319  -9.848  15.870  0.00  0.00    +0.150 HD
BRANCH   9  24
ATOM     24  C   UNL     1      -2.930 -11.100  14.881  0.00  0.00    +0.164 C 
BRANCH  24  27
ATOM      6  O   UNL     1      -1.051  -9.571  15.063  0.00  0.00    -0.274 OA
ATOM     10  N   UNL     1      -1.470 -11.008  16.805  0.00  0.00    -0.328 N 
ATOM     27  C   UNL     1      -1.716 -10.478  15.555  0.00  0.00    +0.231 C 
ATOM     37  H   UNL     1      -2.030 -11.755  17.202  0.00  0.00    +0.145 HD
ATOM     38  H   UNL     1      -0.698 -10.669  17.370  0.00  0.00    +0.145 HD
ENDBRANCH  24  27
BRANCH  24  25
ATOM     25  C   UNL     1      -3.100 -10.539  13.463  0.00  0.00    +0.074 C 
BRANCH  25  28
ATOM      1  S   UNL     1      -5.507  -9.904  12.214  0.00  0.00    -0.102 S 
ATOM     28  C   UNL     1      -4.360 -11.035  12.796  0.00  0.00    -0.008 A 
ATOM     29  C   UNL     1      -4.756 -12.335  12.569  0.00  0.00    +0.011 A 
ATOM     30  C   UNL     1      -6.017 -12.403  11.909  0.00  0.00    +0.008 A 
ATOM     31  C   UNL     1      -6.537 -11.152  11.656  0.00  0.00    +0.045 A 
ENDBRANCH  25  28
ENDBRANCH  24  25
ENDBRANCH   9  24
ENDBRANCH  15  21
BRANCH  12   2
ATOM      2  O   UNL     1      -9.086 -11.584  18.004  0.00  0.00    -0.387 OA
ATOM     33  H   UNL     1      -8.714 -11.823  17.138  0.00  0.00    +0.210 HD
ENDBRANCH  12   2
BRANCH  13   3
ATOM      3  O   UNL     1      -6.471 -10.041  20.045  0.00  0.00    -0.389 OA
ATOM     34  H   UNL     1      -6.722 -10.090  20.983  0.00  0.00    +0.210 HD
ENDBRANCH  13   3
TORSDOF 12
ENDMDL
MODEL 9
REMARK VINA RESULT:      -6.1     14.303     16.437
REMARK  Name = 11866301
REMARK  15 active torsions:
REMARK  status: ('A' for Active; 'I' for Inactive)
REMARK    1  A    between atoms: O_2  and  C_12
REMARK    2  A    between atoms: O_3  and  C_13
REMARK    3  A    between atoms: N_7  and  C_11
REMARK    4  A    between atoms: N_8  and  C_17
REMARK    5  A    between atoms: N_8  and  C_26
REMARK    6  A    between atoms: N_9  and  C_24
REMARK    7  A    between atoms: C_15  and  C_21
REMARK    8  A    between atoms: C_17  and  C_18
REMARK    9  A    between atoms: C_17  and  C_19
REMARK   10  A    between atoms: C_18  and  C_20
REMARK   11  A    between atoms: C_20  and  C_22
REMARK   12  A    between atoms: C_20  and  C_23
REMARK   13  A    between atoms: C_24  and  C_25
REMARK   14  A    between atoms: C_24  and  C_27
REMARK   15  A    between atoms: C_25  and  C_28
REMARK                            x       y       z     vdW  Elec       q    Type
REMARK                         _______ _______ _______ _____ _____    ______ ____
ROOT
ATOM     11  C   UNL     1      15.352   8.606   4.862  0.00  0.00    +0.127 C 
ATOM     12  C   UNL     1      14.955   8.182   3.435  0.00  0.00    +0.167 C 
ATOM     13  C   UNL     1      13.433   8.178   3.251  0.00  0.00    +0.149 C 
ATOM     14  C   UNL     1      12.727   7.287   4.289  0.00  0.00    +0.074 C 
ATOM     15  C   UNL     1      13.342   7.363   5.657  0.00  0.00    +0.015 C 
ATOM     16  C   UNL     1      14.513   7.959   5.930  0.00  0.00    +0.006 C 
ENDROOT
BRANCH  11   7
ATOM      4  O   UNL     1      17.565  10.439   4.605  0.00  0.00    -0.274 OA
ATOM      7  N   UNL     1      16.743   8.332   5.131  0.00  0.00    -0.305 N 
ATOM     19  C   UNL     1      17.743   9.281   4.979  0.00  0.00    +0.231 C 
ATOM     32  H   UNL     1      16.997   7.388   5.410  0.00  0.00    +0.149 HD
BRANCH  19  17
ATOM     17  C   UNL     1      19.128   8.727   5.296  0.00  0.00    +0.140 C 
BRANCH  17   8
ATOM      8  N   UNL     1      19.099   8.381   6.719  0.00  0.00    -0.309 NA
ATOM     26  C   UNL     1      20.348   8.752   7.363  0.00  0.00    +0.101 C 
ATOM     35  H   UNL     1      18.304   8.815   7.186  0.00  0.00    +0.122 HD
ENDBRANCH  17   8
BRANCH  17  18
ATOM     18  C   UNL     1      19.466   7.484   4.457  0.00  0.00    +0.031 C 
BRANCH  18  20
ATOM     20  C   UNL     1      20.852   7.527   3.779  0.00  0.00    -0.015 C 
ATOM     22  C   UNL     1      21.815   6.588   4.512  0.00  0.00    +0.007 C 
ATOM     23  C   UNL     1      21.441   8.938   3.737  0.00  0.00    +0.007 C 
ENDBRANCH  18  20
ENDBRANCH  17  18
ENDBRANCH  19  17
ENDBRANCH  11   7
BRANCH  15  21
ATOM      5  O   UNL     1      13.205   6.284   7.739  0.00  0.00    -0.271 OA
ATOM      9  N   UNL     1      11.235   6.821   6.615  0.00  0.00    -0.300 N 
ATOM     21  C   UNL     1      12.608   6.768   6.779  0.00  0.00    +0.241 C 
ATOM     36  H   UNL     1      10.850   7.217   5.762  0.00  0.00    +0.150 HD
BRANCH   9  24
ATOM     24  C   UNL     1      10.304   6.295   7.586  0.00  0.00    +0.164 C 
BRANCH  24  27
ATOM      6  O   UNL     1       9.821   4.424   6.114  0.00  0.00    -0.274 OA
ATOM     10  N   UNL     1      10.247   3.996   8.330  0.00  0.00    -0.328 N 
ATOM     27  C   UNL     1      10.080   4.830   7.244  0.00  0.00    +0.231 C 
ATOM     37  H   UNL     1      10.464   4.344   9.258  0.00  0.00    +0.145 HD
ATOM     38  H   UNL     1      10.142   2.991   8.235  0.00  0.00    +0.145 HD
ENDBRANCH  24  27
BRANCH  24  25
ATOM     25  C   UNL     1       8.971   7.054   7.586  0.00  0.00    +0.074 C 
BRANCH  25  28
ATOM      1  S   UNL     1       9.004   9.401   6.085  0.00  0.00    -0.102 S 
ATOM     28  C   UNL     1       8.693   7.726   6.262  0.00  0.00    -0.008 A 
ATOM     29  C   UNL     1       8.199   7.167   5.103  0.00  0.00    +0.011 A 
ATOM     30  C   UNL     1       8.073   8.127   4.058  0.00  0.00    +0.008 A 
ATOM     31  C   UNL     1       8.478   9.383   4.456  0.00  0.00    +0.045 A 
ENDBRANCH  25  28
ENDBRANCH  24  25
ENDBRANCH   9  24
ENDBRANCH  15  21
BRANCH  12   2
ATOM      2  O   UNL     1      15.452   6.868   3.169  0.00  0.00    -0.387 OA
ATOM     33  H   UNL     1      14.994   6.536   2.380  0.00  0.00    +0.210 HD
ENDBRANCH  12   2
BRANCH  13   3
ATOM      3  O   UNL     1      12.927   9.509   3.326  0.00  0.00    -0.389 OA
ATOM     34  H   UNL     1      13.372  10.032   2.637  0.00  0.00    +0.210 HD
ENDBRANCH  13   3
TORSDOF 12
ENDMDL
MODEL 10
REMARK VINA RESULT:      -6.1     24.410     25.936
REMARK  Name = 11866301
REMARK  15 active torsions:
REMARK  status: ('A' for Active; 'I' for Inactive)
REMARK    1  A    between atoms: O_2  and  C_12
REMARK    2  A    between atoms: O_3  and  C_13
REMARK    3  A    between atoms: N_7  and  C_11
REMARK    4  A    between atoms: N_8  and  C_17
REMARK    5  A    between atoms: N_8  and  C_26
REMARK    6  A    between atoms: N_9  and  C_24
REMARK    7  A    between atoms: C_15  and  C_21
REMARK    8  A    between atoms: C_17  and  C_18
REMARK    9  A    between atoms: C_17  and  C_19
REMARK   10  A    between atoms: C_18  and  C_20
REMARK   11  A    between atoms: C_20  and  C_22
REMARK   12  A    between atoms: C_20  and  C_23
REMARK   13  A    between atoms: C_24  and  C_25
REMARK   14  A    between atoms: C_24  and  C_27
REMARK   15  A    between atoms: C_25  and  C_28
REMARK                            x       y       z     vdW  Elec       q    Type
REMARK                         _______ _______ _______ _____ _____    ______ ____
ROOT
ATOM     11  C   UNL     1      19.041  -4.519  -1.005  0.00  0.00    +0.127 C 
ATOM     12  C   UNL     1      19.881  -3.345  -1.541  0.00  0.00    +0.167 C 
ATOM     13  C   UNL     1      19.050  -2.421  -2.439  0.00  0.00    +0.149 C 
ATOM     14  C   UNL     1      18.395  -3.183  -3.605  0.00  0.00    +0.074 C 
ATOM     15  C   UNL     1      17.892  -4.545  -3.219  0.00  0.00    +0.015 C 
ATOM     16  C   UNL     1      18.167  -5.152  -2.054  0.00  0.00    +0.006 C 
ENDROOT
BRANCH  11   7
ATOM      4  O   UNL     1      19.968  -4.632   1.724  0.00  0.00    -0.274 OA
ATOM      7  N   UNL     1      19.870  -5.540  -0.411  0.00  0.00    -0.305 N 
ATOM     19  C   UNL     1      20.268  -5.511   0.917  0.00  0.00    +0.231 C 
ATOM     32  H   UNL     1      20.202  -6.292  -1.009  0.00  0.00    +0.149 HD
BRANCH  19  17
ATOM     17  C   UNL     1      21.165  -6.687   1.284  0.00  0.00    +0.140 C 
BRANCH  17   8
ATOM      8  N   UNL     1      22.148  -6.788   0.202  0.00  0.00    -0.309 NA
ATOM     26  C   UNL     1      23.301  -5.946   0.476  0.00  0.00    +0.101 C 
ATOM     35  H   UNL     1      22.429  -7.755   0.050  0.00  0.00    +0.122 HD
ENDBRANCH  17   8
BRANCH  17  18
ATOM     18  C   UNL     1      21.880  -6.480   2.629  0.00  0.00    +0.031 C 
BRANCH  18  20
ATOM     20  C   UNL     1      22.026  -7.759   3.481  0.00  0.00    -0.015 C 
ATOM     22  C   UNL     1      20.861  -8.709   3.189  0.00  0.00    +0.007 C 
ATOM     23  C   UNL     1      22.084  -7.460   4.980  0.00  0.00    +0.007 C 
ENDBRANCH  18  20
ENDBRANCH  17  18
ENDBRANCH  19  17
ENDBRANCH  11   7
BRANCH  15  21
ATOM      5  O   UNL     1      17.278  -5.264  -5.369  0.00  0.00    -0.271 OA
ATOM      9  N   UNL     1      15.950  -5.874  -3.553  0.00  0.00    -0.300 N 
ATOM     21  C   UNL     1      17.026  -5.255  -4.165  0.00  0.00    +0.241 C 
ATOM     36  H   UNL     1      15.822  -5.773  -2.550  0.00  0.00    +0.150 HD
BRANCH   9  24
ATOM     24  C   UNL     1      14.958  -6.633  -4.279  0.00  0.00    +0.164 C 
BRANCH  24  27
ATOM      6  O   UNL     1      13.124  -5.219  -5.015  0.00  0.00    -0.274 OA
ATOM     10  N   UNL     1      13.040  -6.115  -2.902  0.00  0.00    -0.328 N 
ATOM     27  C   UNL     1      13.634  -5.898  -4.127  0.00  0.00    +0.231 C 
ATOM     37  H   UNL     1      13.471  -6.682  -2.178  0.00  0.00    +0.145 HD
ATOM     38  H   UNL     1      12.144  -5.697  -2.676  0.00  0.00    +0.145 HD
ENDBRANCH  24  27
BRANCH  24  25
ATOM     25  C   UNL     1      14.833  -8.072  -3.764  0.00  0.00    +0.074 C 
BRANCH  25  28
ATOM      1  S   UNL     1      16.729  -9.308  -5.387  0.00  0.00    -0.102 S 
ATOM     28  C   UNL     1      16.136  -8.829  -3.854  0.00  0.00    -0.008 A 
ATOM     29  C   UNL     1      16.975  -9.219  -2.832  0.00  0.00    +0.011 A 
ATOM     30  C   UNL     1      18.117  -9.920  -3.314  0.00  0.00    +0.008 A 
ATOM     31  C   UNL     1      18.110 -10.039  -4.687  0.00  0.00    +0.045 A 
ENDBRANCH  25  28
ENDBRANCH  24  25
ENDBRANCH   9  24
ENDBRANCH  15  21
BRANCH  12   2
ATOM      2  O   UNL     1      20.984  -3.850  -2.298  0.00  0.00    -0.387 OA
ATOM     33  H   UNL     1      21.788  -3.414  -1.970  0.00  0.00    +0.210 HD
ENDBRANCH  12   2
BRANCH  13   3
ATOM      3  O   UNL     1      18.052  -1.755  -1.669  0.00  0.00    -0.389 OA
ATOM     34  H   UNL     1      17.189  -1.961  -2.066  0.00  0.00    +0.210 HD
ENDBRANCH  13   3
TORSDOF 12
ENDMDL
