MODEL 1
REMARK VINA RESULT:      -6.9      0.000      0.000
REMARK  Name = 45783711
REMARK  6 active torsions:
REMARK  status: ('A' for Active; 'I' for Inactive)
REMARK    1  A    between atoms: O_2  and  C_23
REMARK    2  A    between atoms: O_2  and  C_24
REMARK    3  A    between atoms: N_3  and  C_13
REMARK    4  A    between atoms: C_9  and  C_14
REMARK    5  A    between atoms: C_13  and  C_15
REMARK    6  A    between atoms: C_16  and  C_19
REMARK                            x       y       z     vdW  Elec       q    Type
REMARK                         _______ _______ _______ _____ _____    ______ ____
ROOT
ATOM      1  O   UNL     1      11.237   7.934  21.633  0.00  0.00    -0.336 OA
ATOM      4  N   UNL     1      12.717   9.490  22.270  0.00  0.00    -0.190 NA
ATOM      7  N   UNL     1      10.492   8.961  22.227  0.00  0.00    -0.056 NA
ATOM     14  C   UNL     1      12.537   8.325  21.701  0.00  0.00    +0.245 A 
ATOM     16  C   UNL     1      11.436   9.841  22.576  0.00  0.00    +0.204 A 
ENDROOT
BRANCH  16  19
ATOM      8  N   UNL     1      10.700  12.275  25.291  0.00  0.00    -0.221 NA
ATOM     19  C   UNL     1      11.130  11.079  23.234  0.00  0.00    +0.041 A 
ATOM     20  C   UNL     1      10.965  12.254  22.508  0.00  0.00    +0.018 A 
ATOM     21  C   UNL     1      10.988  11.142  24.611  0.00  0.00    +0.126 A 
ATOM     22  C   UNL     1      10.669  13.439  23.172  0.00  0.00    +0.068 A 
ATOM     23  C   UNL     1      10.547  13.396  24.553  0.00  0.00    +0.214 A 
BRANCH  23   2
ATOM      2  O   UNL     1      10.255  14.551  25.230  0.00  0.00    -0.480 OA
ATOM     24  C   UNL     1      11.056  14.845  26.369  0.00  0.00    +0.279 C 
ENDBRANCH  23   2
ENDBRANCH  16  19
BRANCH  14   9
ATOM      3  N   UNL     1      13.808   7.619  19.681  0.00  0.00    -0.284 NA
ATOM      9  C   UNL     1      13.558   7.373  21.116  0.00  0.00    +0.146 C 
ATOM     10  C   UNL     1      14.941   7.503  21.781  0.00  0.00    +0.030 C 
ATOM     11  C   UNL     1      15.910   7.761  20.637  0.00  0.00    +0.017 C 
ATOM     12  C   UNL     1      15.188   7.207  19.425  0.00  0.00    +0.085 C 
BRANCH   3  13
ATOM     13  C   UNL     1      12.861   6.936  18.809  0.00  0.00    +0.159 C 
BRANCH  13  15
ATOM      5  N   UNL     1      13.126   8.782  17.135  0.00  0.00    -0.347 N 
ATOM      6  N   UNL     1      11.104   7.873  17.259  0.00  0.00    -0.239 NA
ATOM     15  C   UNL     1      12.329   7.848  17.736  0.00  0.00    +0.121 A 
ATOM     17  C   UNL     1      12.362   9.445  16.217  0.00  0.00    +0.104 A 
ATOM     18  C   UNL     1      11.117   8.866  16.312  0.00  0.00    +0.130 A 
ATOM     25  H   UNL     1      14.103   8.954  17.335  0.00  0.00    +0.167 HD
ENDBRANCH  13  15
ENDBRANCH   3  13
ENDBRANCH  14   9
TORSDOF 5
ENDMDL
MODEL 2
REMARK VINA RESULT:      -6.9      4.694      8.562
REMARK  Name = 45783711
REMARK  6 active torsions:
REMARK  status: ('A' for Active; 'I' for Inactive)
REMARK    1  A    between atoms: O_2  and  C_23
REMARK    2  A    between atoms: O_2  and  C_24
REMARK    3  A    between atoms: N_3  and  C_13
REMARK    4  A    between atoms: C_9  and  C_14
REMARK    5  A    between atoms: C_13  and  C_15
REMARK    6  A    between atoms: C_16  and  C_19
REMARK                            x       y       z     vdW  Elec       q    Type
REMARK                         _______ _______ _______ _____ _____    ______ ____
ROOT
ATOM      1  O   UNL     1      16.340   5.891  18.423  0.00  0.00    -0.336 OA
ATOM      4  N   UNL     1      16.923   6.906  20.332  0.00  0.00    -0.190 NA
ATOM      7  N   UNL     1      17.637   5.452  18.717  0.00  0.00    -0.056 NA
ATOM     14  C   UNL     1      15.996   6.744  19.423  0.00  0.00    +0.245 A 
ATOM     16  C   UNL     1      17.910   6.095  19.857  0.00  0.00    +0.204 A 
ENDROOT
BRANCH  16  19
ATOM      8  N   UNL     1      20.694   6.741  22.238  0.00  0.00    -0.221 NA
ATOM     19  C   UNL     1      19.162   5.948  20.544  0.00  0.00    +0.041 A 
ATOM     20  C   UNL     1      20.043   4.924  20.216  0.00  0.00    +0.018 A 
ATOM     21  C   UNL     1      19.530   6.823  21.554  0.00  0.00    +0.126 A 
ATOM     22  C   UNL     1      21.249   4.807  20.897  0.00  0.00    +0.068 A 
ATOM     23  C   UNL     1      21.525   5.733  21.891  0.00  0.00    +0.214 A 
BRANCH  23   2
ATOM      2  O   UNL     1      22.707   5.639  22.578  0.00  0.00    -0.480 OA
ATOM     24  C   UNL     1      22.693   4.868  23.774  0.00  0.00    +0.279 C 
ENDBRANCH  23   2
ENDBRANCH  16  19
BRANCH  14   9
ATOM      3  N   UNL     1      14.469   8.544  20.212  0.00  0.00    -0.284 NA
ATOM      9  C   UNL     1      14.617   7.363  19.336  0.00  0.00    +0.146 C 
ATOM     10  C   UNL     1      14.285   7.880  17.924  0.00  0.00    +0.030 C 
ATOM     11  C   UNL     1      13.905   9.341  18.114  0.00  0.00    +0.017 C 
ATOM     12  C   UNL     1      13.485   9.415  19.568  0.00  0.00    +0.085 C 
BRANCH   3  13
ATOM     13  C   UNL     1      14.089   8.203  21.576  0.00  0.00    +0.159 C 
BRANCH  13  15
ATOM      5  N   UNL     1      12.562   6.225  21.385  0.00  0.00    -0.347 N 
ATOM      6  N   UNL     1      11.589   8.148  21.916  0.00  0.00    -0.239 NA
ATOM     15  C   UNL     1      12.730   7.558  21.636  0.00  0.00    +0.121 A 
ATOM     17  C   UNL     1      11.231   5.947  21.515  0.00  0.00    +0.104 A 
ATOM     18  C   UNL     1      10.651   7.150  21.843  0.00  0.00    +0.130 A 
ATOM     25  H   UNL     1      13.290   5.564  21.146  0.00  0.00    +0.167 HD
ENDBRANCH  13  15
ENDBRANCH   3  13
ENDBRANCH  14   9
TORSDOF 5
ENDMDL
MODEL 3
REMARK VINA RESULT:      -6.6      4.229      7.631
REMARK  Name = 45783711
REMARK  6 active torsions:
REMARK  status: ('A' for Active; 'I' for Inactive)
REMARK    1  A    between atoms: O_2  and  C_23
REMARK    2  A    between atoms: O_2  and  C_24
REMARK    3  A    between atoms: N_3  and  C_13
REMARK    4  A    between atoms: C_9  and  C_14
REMARK    5  A    between atoms: C_13  and  C_15
REMARK    6  A    between atoms: C_16  and  C_19
REMARK                            x       y       z     vdW  Elec       q    Type
REMARK                         _______ _______ _______ _____ _____    ______ ____
ROOT
ATOM      1  O   UNL     1      14.436   6.769  19.550  0.00  0.00    -0.336 OA
ATOM      4  N   UNL     1      15.692   7.673  21.170  0.00  0.00    -0.190 NA
ATOM      7  N   UNL     1      15.724   6.243  19.385  0.00  0.00    -0.056 NA
ATOM     14  C   UNL     1      14.506   7.602  20.622  0.00  0.00    +0.245 A 
ATOM     16  C   UNL     1      16.406   6.823  20.378  0.00  0.00    +0.204 A 
ENDROOT
BRANCH  16  19
ATOM      8  N   UNL     1      19.839   7.149  21.771  0.00  0.00    -0.221 NA
ATOM     19  C   UNL     1      17.801   6.576  20.602  0.00  0.00    +0.041 A 
ATOM     20  C   UNL     1      18.471   5.574  19.910  0.00  0.00    +0.018 A 
ATOM     21  C   UNL     1      18.524   7.330  21.514  0.00  0.00    +0.126 A 
ATOM     22  C   UNL     1      19.824   5.357  20.148  0.00  0.00    +0.068 A 
ATOM     23  C   UNL     1      20.456   6.166  21.080  0.00  0.00    +0.214 A 
BRANCH  23   2
ATOM      2  O   UNL     1      21.789   5.972  21.331  0.00  0.00    -0.480 OA
ATOM     24  C   UNL     1      22.295   4.657  21.127  0.00  0.00    +0.279 C 
ENDBRANCH  23   2
ENDBRANCH  16  19
BRANCH  14   9
ATOM      3  N   UNL     1      12.406   8.687  19.842  0.00  0.00    -0.284 NA
ATOM      9  C   UNL     1      13.223   8.305  21.013  0.00  0.00    +0.146 C 
ATOM     10  C   UNL     1      12.295   7.420  21.866  0.00  0.00    +0.030 C 
ATOM     11  C   UNL     1      10.964   7.412  21.127  0.00  0.00    +0.017 C 
ATOM     12  C   UNL     1      11.013   8.674  20.289  0.00  0.00    +0.085 C 
BRANCH   3  13
ATOM     13  C   UNL     1      12.787   9.972  19.272  0.00  0.00    +0.159 C 
BRANCH  13  15
ATOM      5  N   UNL     1      12.273   9.692  16.835  0.00  0.00    -0.347 N 
ATOM      6  N   UNL     1      14.425   9.860  17.355  0.00  0.00    -0.239 NA
ATOM     15  C   UNL     1      13.199   9.845  17.829  0.00  0.00    +0.121 A 
ATOM     17  C   UNL     1      12.952   9.604  15.652  0.00  0.00    +0.104 A 
ATOM     18  C   UNL     1      14.279   9.710  15.999  0.00  0.00    +0.130 A 
ATOM     25  H   UNL     1      11.269   9.649  16.952  0.00  0.00    +0.167 HD
ENDBRANCH  13  15
ENDBRANCH   3  13
ENDBRANCH  14   9
TORSDOF 5
ENDMDL
MODEL 4
REMARK VINA RESULT:      -6.5      3.391      6.790
REMARK  Name = 45783711
REMARK  6 active torsions:
REMARK  status: ('A' for Active; 'I' for Inactive)
REMARK    1  A    between atoms: O_2  and  C_23
REMARK    2  A    between atoms: O_2  and  C_24
REMARK    3  A    between atoms: N_3  and  C_13
REMARK    4  A    between atoms: C_9  and  C_14
REMARK    5  A    between atoms: C_13  and  C_15
REMARK    6  A    between atoms: C_16  and  C_19
REMARK                            x       y       z     vdW  Elec       q    Type
REMARK                         _______ _______ _______ _____ _____    ______ ____
ROOT
ATOM      1  O   UNL     1      13.885   6.546  19.819  0.00  0.00    -0.336 OA
ATOM      4  N   UNL     1      15.485   7.959  19.139  0.00  0.00    -0.190 NA
ATOM      7  N   UNL     1      14.909   6.465  20.773  0.00  0.00    -0.056 NA
ATOM     14  C   UNL     1      14.306   7.447  18.893  0.00  0.00    +0.245 A 
ATOM     16  C   UNL     1      15.815   7.327  20.302  0.00  0.00    +0.204 A 
ENDROOT
BRANCH  16  19
ATOM      8  N   UNL     1      18.551   9.151  22.040  0.00  0.00    -0.221 NA
ATOM     19  C   UNL     1      17.061   7.578  20.968  0.00  0.00    +0.041 A 
ATOM     20  C   UNL     1      17.971   6.551  21.192  0.00  0.00    +0.018 A 
ATOM     21  C   UNL     1      17.395   8.849  21.408  0.00  0.00    +0.126 A 
ATOM     22  C   UNL     1      19.171   6.823  21.840  0.00  0.00    +0.068 A 
ATOM     23  C   UNL     1      19.411   8.128  22.240  0.00  0.00    +0.214 A 
BRANCH  23   2
ATOM      2  O   UNL     1      20.587   8.421  22.881  0.00  0.00    -0.480 OA
ATOM     24  C   UNL     1      20.585   9.562  23.731  0.00  0.00    +0.279 C 
ENDBRANCH  23   2
ENDBRANCH  16  19
BRANCH  14   9
ATOM      3  N   UNL     1      12.417   8.816  18.024  0.00  0.00    -0.284 NA
ATOM      9  C   UNL     1      13.364   7.718  17.739  0.00  0.00    +0.146 C 
ATOM     10  C   UNL     1      14.099   8.158  16.460  0.00  0.00    +0.030 C 
ATOM     11  C   UNL     1      13.459   9.482  16.069  0.00  0.00    +0.017 C 
ATOM     12  C   UNL     1      12.099   9.432  16.737  0.00  0.00    +0.085 C 
BRANCH   3  13
ATOM     13  C   UNL     1      11.222   8.374  18.731  0.00  0.00    +0.159 C 
BRANCH  13  15
ATOM      5  N   UNL     1      10.477   8.190  21.116  0.00  0.00    -0.347 N 
ATOM      6  N   UNL     1      11.865   9.863  20.664  0.00  0.00    -0.239 NA
ATOM     15  C   UNL     1      11.213   8.837  20.163  0.00  0.00    +0.121 A 
ATOM     17  C   UNL     1      10.673   8.843  22.300  0.00  0.00    +0.104 A 
ATOM     18  C   UNL     1      11.534   9.873  21.996  0.00  0.00    +0.130 A 
ATOM     25  H   UNL     1       9.893   7.377  20.973  0.00  0.00    +0.167 HD
ENDBRANCH  13  15
ENDBRANCH   3  13
ENDBRANCH  14   9
TORSDOF 5
ENDMDL
MODEL 5
REMARK VINA RESULT:      -6.4      3.838      8.218
REMARK  Name = 45783711
REMARK  6 active torsions:
REMARK  status: ('A' for Active; 'I' for Inactive)
REMARK    1  A    between atoms: O_2  and  C_23
REMARK    2  A    between atoms: O_2  and  C_24
REMARK    3  A    between atoms: N_3  and  C_13
REMARK    4  A    between atoms: C_9  and  C_14
REMARK    5  A    between atoms: C_13  and  C_15
REMARK    6  A    between atoms: C_16  and  C_19
REMARK                            x       y       z     vdW  Elec       q    Type
REMARK                         _______ _______ _______ _____ _____    ______ ____
ROOT
ATOM      1  O   UNL     1      15.256   8.404  20.305  0.00  0.00    -0.336 OA
ATOM      4  N   UNL     1      16.109   6.532  19.420  0.00  0.00    -0.190 NA
ATOM      7  N   UNL     1      16.517   8.235  20.892  0.00  0.00    -0.056 NA
ATOM     14  C   UNL     1      15.095   7.358  19.452  0.00  0.00    +0.245 A 
ATOM     16  C   UNL     1      16.957   7.110  20.318  0.00  0.00    +0.204 A 
ENDROOT
BRANCH  16  19
ATOM      8  N   UNL     1      19.931   4.885  20.131  0.00  0.00    -0.221 NA
ATOM     19  C   UNL     1      18.237   6.539  20.622  0.00  0.00    +0.041 A 
ATOM     20  C   UNL     1      19.016   7.039  21.660  0.00  0.00    +0.018 A 
ATOM     21  C   UNL     1      18.735   5.470  19.894  0.00  0.00    +0.126 A 
ATOM     22  C   UNL     1      20.252   6.465  21.933  0.00  0.00    +0.068 A 
ATOM     23  C   UNL     1      20.660   5.399  21.147  0.00  0.00    +0.214 A 
BRANCH  23   2
ATOM      2  O   UNL     1      21.875   4.815  21.396  0.00  0.00    -0.480 OA
ATOM     24  C   UNL     1      22.130   4.419  22.739  0.00  0.00    +0.279 C 
ENDBRANCH  23   2
ENDBRANCH  16  19
BRANCH  14   9
ATOM      3  N   UNL     1      12.785   8.253  19.214  0.00  0.00    -0.284 NA
ATOM      9  C   UNL     1      13.792   7.311  18.684  0.00  0.00    +0.146 C 
ATOM     10  C   UNL     1      13.958   7.708  17.205  0.00  0.00    +0.030 C 
ATOM     11  C   UNL     1      12.964   8.839  16.983  0.00  0.00    +0.017 C 
ATOM     12  C   UNL     1      11.941   8.636  18.083  0.00  0.00    +0.085 C 
BRANCH   3  13
ATOM     13  C   UNL     1      12.008   7.701  20.316  0.00  0.00    +0.159 C 
BRANCH  13  15
ATOM      5  N   UNL     1      12.651   9.707  21.674  0.00  0.00    -0.347 N 
ATOM      6  N   UNL     1      10.669   8.820  22.139  0.00  0.00    -0.239 NA
ATOM     15  C   UNL     1      11.741   8.728  21.384  0.00  0.00    +0.121 A 
ATOM     17  C   UNL     1      12.125  10.472  22.677  0.00  0.00    +0.104 A 
ATOM     18  C   UNL     1      10.901   9.905  22.947  0.00  0.00    +0.130 A 
ATOM     25  H   UNL     1      13.550   9.840  21.230  0.00  0.00    +0.167 HD
ENDBRANCH  13  15
ENDBRANCH   3  13
ENDBRANCH  14   9
TORSDOF 5
ENDMDL
MODEL 6
REMARK VINA RESULT:      -6.3     15.144     19.836
REMARK  Name = 45783711
REMARK  6 active torsions:
REMARK  status: ('A' for Active; 'I' for Inactive)
REMARK    1  A    between atoms: O_2  and  C_23
REMARK    2  A    between atoms: O_2  and  C_24
REMARK    3  A    between atoms: N_3  and  C_13
REMARK    4  A    between atoms: C_9  and  C_14
REMARK    5  A    between atoms: C_13  and  C_15
REMARK    6  A    between atoms: C_16  and  C_19
REMARK                            x       y       z     vdW  Elec       q    Type
REMARK                         _______ _______ _______ _____ _____    ______ ____
ROOT
ATOM      1  O   UNL     1      11.617   6.581   4.196  0.00  0.00    -0.336 OA
ATOM      4  N   UNL     1      10.577   4.722   3.505  0.00  0.00    -0.190 NA
ATOM      7  N   UNL     1      12.155   6.278   2.938  0.00  0.00    -0.056 NA
ATOM     14  C   UNL     1      10.697   5.615   4.454  0.00  0.00    +0.245 A 
ATOM     16  C   UNL     1      11.490   5.170   2.597  0.00  0.00    +0.204 A 
ENDROOT
BRANCH  16  19
ATOM      8  N   UNL     1      10.893   3.819  -0.817  0.00  0.00    -0.221 NA
ATOM     19  C   UNL     1      11.717   4.486   1.356  0.00  0.00    +0.041 A 
ATOM     20  C   UNL     1      12.923   3.841   1.105  0.00  0.00    +0.018 A 
ATOM     21  C   UNL     1      10.742   4.446   0.371  0.00  0.00    +0.126 A 
ATOM     22  C   UNL     1      13.115   3.186  -0.106  0.00  0.00    +0.068 A 
ATOM     23  C   UNL     1      12.078   3.203  -1.025  0.00  0.00    +0.214 A 
BRANCH  23   2
ATOM      2  O   UNL     1      12.243   2.564  -2.226  0.00  0.00    -0.480 OA
ATOM     24  C   UNL     1      11.125   2.558  -3.107  0.00  0.00    +0.279 C 
ENDBRANCH  23   2
ENDBRANCH  16  19
BRANCH  14   9
ATOM      3  N   UNL     1      10.465   6.822   6.618  0.00  0.00    -0.284 NA
ATOM      9  C   UNL     1       9.963   5.718   5.774  0.00  0.00    +0.146 C 
ATOM     10  C   UNL     1       8.461   6.012   5.600  0.00  0.00    +0.030 C 
ATOM     11  C   UNL     1       8.202   7.262   6.427  0.00  0.00    +0.017 C 
ATOM     12  C   UNL     1       9.335   7.266   7.433  0.00  0.00    +0.085 C 
BRANCH   3  13
ATOM     13  C   UNL     1      11.614   6.446   7.431  0.00  0.00    +0.159 C 
BRANCH  13  15
ATOM      5  N   UNL     1      13.937   6.477   6.492  0.00  0.00    -0.347 N 
ATOM      6  N   UNL     1      13.093   8.454   7.045  0.00  0.00    -0.239 NA
ATOM     15  C   UNL     1      12.867   7.160   6.998  0.00  0.00    +0.121 A 
ATOM     17  C   UNL     1      14.907   7.393   6.197  0.00  0.00    +0.104 A 
ATOM     18  C   UNL     1      14.362   8.607   6.547  0.00  0.00    +0.130 A 
ATOM     25  H   UNL     1      14.002   5.475   6.361  0.00  0.00    +0.167 HD
ENDBRANCH  13  15
ENDBRANCH   3  13
ENDBRANCH  14   9
TORSDOF 5
ENDMDL
MODEL 7
REMARK VINA RESULT:      -6.2      3.631      7.218
REMARK  Name = 45783711
REMARK  6 active torsions:
REMARK  status: ('A' for Active; 'I' for Inactive)
REMARK    1  A    between atoms: O_2  and  C_23
REMARK    2  A    between atoms: O_2  and  C_24
REMARK    3  A    between atoms: N_3  and  C_13
REMARK    4  A    between atoms: C_9  and  C_14
REMARK    5  A    between atoms: C_13  and  C_15
REMARK    6  A    between atoms: C_16  and  C_19
REMARK                            x       y       z     vdW  Elec       q    Type
REMARK                         _______ _______ _______ _____ _____    ______ ____
ROOT
ATOM      1  O   UNL     1      15.231  10.364  20.080  0.00  0.00    -0.336 OA
ATOM      4  N   UNL     1      15.241   8.138  20.329  0.00  0.00    -0.190 NA
ATOM      7  N   UNL     1      16.554  10.010  20.374  0.00  0.00    -0.056 NA
ATOM     14  C   UNL     1      14.525   9.202  20.074  0.00  0.00    +0.245 A 
ATOM     16  C   UNL     1      16.479   8.682  20.506  0.00  0.00    +0.204 A 
ENDROOT
BRANCH  16  19
ATOM      8  N   UNL     1      18.947   5.904  20.355  0.00  0.00    -0.221 NA
ATOM     19  C   UNL     1      17.622   7.872  20.818  0.00  0.00    +0.041 A 
ATOM     20  C   UNL     1      18.494   8.228  21.840  0.00  0.00    +0.018 A 
ATOM     21  C   UNL     1      17.890   6.711  20.111  0.00  0.00    +0.126 A 
ATOM     22  C   UNL     1      19.593   7.424  22.120  0.00  0.00    +0.068 A 
ATOM     23  C   UNL     1      19.773   6.282  21.355  0.00  0.00    +0.214 A 
BRANCH  23   2
ATOM      2  O   UNL     1      20.848   5.473  21.612  0.00  0.00    -0.480 OA
ATOM     24  C   UNL     1      21.071   4.398  20.706  0.00  0.00    +0.279 C 
ENDBRANCH  23   2
ENDBRANCH  16  19
BRANCH  14   9
ATOM      3  N   UNL     1      12.347   8.016  19.865  0.00  0.00    -0.284 NA
ATOM      9  C   UNL     1      13.044   9.315  19.776  0.00  0.00    +0.146 C 
ATOM     10  C   UNL     1      12.304  10.226  20.773  0.00  0.00    +0.030 C 
ATOM     11  C   UNL     1      11.174   9.372  21.328  0.00  0.00    +0.017 C 
ATOM     12  C   UNL     1      10.971   8.313  20.263  0.00  0.00    +0.085 C 
BRANCH   3  13
ATOM     13  C   UNL     1      12.406   7.247  18.630  0.00  0.00    +0.159 C 
BRANCH  13  15
ATOM      5  N   UNL     1      12.895   8.793  16.719  0.00  0.00    -0.347 N 
ATOM      6  N   UNL     1      10.771   8.190  16.955  0.00  0.00    -0.239 NA
ATOM     15  C   UNL     1      11.987   8.066  17.438  0.00  0.00    +0.121 A 
ATOM     17  C   UNL     1      12.214   9.420  15.714  0.00  0.00    +0.104 A 
ATOM     18  C   UNL     1      10.905   9.033  15.880  0.00  0.00    +0.130 A 
ATOM     25  H   UNL     1      13.888   8.858  16.898  0.00  0.00    +0.167 HD
ENDBRANCH  13  15
ENDBRANCH   3  13
ENDBRANCH  14   9
TORSDOF 5
ENDMDL
MODEL 8
REMARK VINA RESULT:      -6.2     25.851     27.475
REMARK  Name = 45783711
REMARK  6 active torsions:
REMARK  status: ('A' for Active; 'I' for Inactive)
REMARK    1  A    between atoms: O_2  and  C_23
REMARK    2  A    between atoms: O_2  and  C_24
REMARK    3  A    between atoms: N_3  and  C_13
REMARK    4  A    between atoms: C_9  and  C_14
REMARK    5  A    between atoms: C_13  and  C_15
REMARK    6  A    between atoms: C_16  and  C_19
REMARK                            x       y       z     vdW  Elec       q    Type
REMARK                         _______ _______ _______ _____ _____    ______ ____
ROOT
ATOM      1  O   UNL     1      -1.728 -10.502  14.617  0.00  0.00    -0.336 OA
ATOM      4  N   UNL     1      -3.940 -10.811  14.454  0.00  0.00    -0.190 NA
ATOM      7  N   UNL     1      -2.222 -10.486  15.928  0.00  0.00    -0.056 NA
ATOM     14  C   UNL     1      -2.805 -10.698  13.812  0.00  0.00    +0.245 A 
ATOM     16  C   UNL     1      -3.533 -10.675  15.748  0.00  0.00    +0.204 A 
ENDROOT
BRANCH  16  19
ATOM      8  N   UNL     1      -6.611 -10.110  17.758  0.00  0.00    -0.221 NA
ATOM     19  C   UNL     1      -4.462 -10.730  16.840  0.00  0.00    +0.041 A 
ATOM     20  C   UNL     1      -4.153 -11.417  18.008  0.00  0.00    +0.018 A 
ATOM     21  C   UNL     1      -5.693 -10.098  16.765  0.00  0.00    +0.126 A 
ATOM     22  C   UNL     1      -5.072 -11.453  19.051  0.00  0.00    +0.068 A 
ATOM     23  C   UNL     1      -6.276 -10.788  18.877  0.00  0.00    +0.214 A 
BRANCH  23   2
ATOM      2  O   UNL     1      -7.198 -10.809  19.891  0.00  0.00    -0.480 OA
ATOM     24  C   UNL     1      -8.346 -11.627  19.696  0.00  0.00    +0.279 C 
ENDBRANCH  23   2
ENDBRANCH  16  19
BRANCH  14   9
ATOM      3  N   UNL     1      -3.624 -10.164  11.523  0.00  0.00    -0.284 NA
ATOM      9  C   UNL     1      -2.533 -10.756  12.324  0.00  0.00    +0.146 C 
ATOM     10  C   UNL     1      -1.276  -9.964  11.918  0.00  0.00    +0.030 C 
ATOM     11  C   UNL     1      -1.748  -8.993  10.845  0.00  0.00    +0.017 C 
ATOM     12  C   UNL     1      -3.006  -9.642  10.305  0.00  0.00    +0.085 C 
BRANCH   3  13
ATOM     13  C   UNL     1      -4.698 -11.104  11.234  0.00  0.00    +0.159 C 
BRANCH  13  15
ATOM      5  N   UNL     1      -6.255  -9.873  12.764  0.00  0.00    -0.347 N 
ATOM      6  N   UNL     1      -7.146 -10.610  10.868  0.00  0.00    -0.239 NA
ATOM     15  C   UNL     1      -6.048 -10.541  11.589  0.00  0.00    +0.121 A 
ATOM     17  C   UNL     1      -7.566  -9.491  12.794  0.00  0.00    +0.104 A 
ATOM     18  C   UNL     1      -8.096  -9.957  11.613  0.00  0.00    +0.130 A 
ATOM     25  H   UNL     1      -5.564  -9.695  13.482  0.00  0.00    +0.167 HD
ENDBRANCH  13  15
ENDBRANCH   3  13
ENDBRANCH  14   9
TORSDOF 5
ENDMDL
MODEL 9
REMARK VINA RESULT:      -6.2     26.654     28.342
REMARK  Name = 45783711
REMARK  6 active torsions:
REMARK  status: ('A' for Active; 'I' for Inactive)
REMARK    1  A    between atoms: O_2  and  C_23
REMARK    2  A    between atoms: O_2  and  C_24
REMARK    3  A    between atoms: N_3  and  C_13
REMARK    4  A    between atoms: C_9  and  C_14
REMARK    5  A    between atoms: C_13  and  C_15
REMARK    6  A    between atoms: C_16  and  C_19
REMARK                            x       y       z     vdW  Elec       q    Type
REMARK                         _______ _______ _______ _____ _____    ______ ____
ROOT
ATOM      1  O   UNL     1      -3.773 -11.141  17.442  0.00  0.00    -0.336 OA
ATOM      4  N   UNL     1      -5.225 -10.338  15.937  0.00  0.00    -0.190 NA
ATOM      7  N   UNL     1      -3.112 -11.172  16.207  0.00  0.00    -0.056 NA
ATOM     14  C   UNL     1      -5.010 -10.637  17.193  0.00  0.00    +0.245 A 
ATOM     16  C   UNL     1      -4.033 -10.682  15.371  0.00  0.00    +0.204 A 
ENDROOT
BRANCH  16  19
ATOM      8  N   UNL     1      -4.676 -10.112  11.753  0.00  0.00    -0.221 NA
ATOM     19  C   UNL     1      -3.794 -10.527  13.965  0.00  0.00    +0.041 A 
ATOM     20  C   UNL     1      -2.511 -10.636  13.441  0.00  0.00    +0.018 A 
ATOM     21  C   UNL     1      -4.834 -10.267  13.086  0.00  0.00    +0.126 A 
ATOM     22  C   UNL     1      -2.309 -10.482  12.074  0.00  0.00    +0.068 A 
ATOM     23  C   UNL     1      -3.415 -10.224  11.279  0.00  0.00    +0.214 A 
BRANCH  23   2
ATOM      2  O   UNL     1      -3.242 -10.069   9.929  0.00  0.00    -0.480 OA
ATOM     24  C   UNL     1      -4.031  -9.069   9.294  0.00  0.00    +0.279 C 
ENDBRANCH  23   2
ENDBRANCH  16  19
BRANCH  14   9
ATOM      3  N   UNL     1      -7.361 -10.568  18.008  0.00  0.00    -0.284 NA
ATOM      9  C   UNL     1      -5.934 -10.501  18.385  0.00  0.00    +0.146 C 
ATOM     10  C   UNL     1      -5.748 -11.631  19.415  0.00  0.00    +0.030 C 
ATOM     11  C   UNL     1      -7.133 -12.236  19.595  0.00  0.00    +0.017 C 
ATOM     12  C   UNL     1      -8.067 -11.124  19.162  0.00  0.00    +0.085 C 
BRANCH   3  13
ATOM     13  C   UNL     1      -7.907  -9.281  17.598  0.00  0.00    +0.159 C 
BRANCH  13  15
ATOM      5  N   UNL     1      -7.955  -9.420  15.097  0.00  0.00    -0.347 N 
ATOM      6  N   UNL     1      -9.935  -9.415  16.102  0.00  0.00    -0.239 NA
ATOM     15  C   UNL     1      -8.634  -9.373  16.283  0.00  0.00    +0.121 A 
ATOM     17  C   UNL     1      -8.883  -9.497  14.096  0.00  0.00    +0.104 A 
ATOM     18  C   UNL     1     -10.098  -9.493  14.741  0.00  0.00    +0.130 A 
ATOM     25  H   UNL     1      -6.951  -9.399  14.979  0.00  0.00    +0.167 HD
ENDBRANCH  13  15
ENDBRANCH   3  13
ENDBRANCH  14   9
TORSDOF 5
ENDMDL
MODEL 10
REMARK VINA RESULT:      -6.1     25.568     27.635
REMARK  Name = 45783711
REMARK  6 active torsions:
REMARK  status: ('A' for Active; 'I' for Inactive)
REMARK    1  A    between atoms: O_2  and  C_23
REMARK    2  A    between atoms: O_2  and  C_24
REMARK    3  A    between atoms: N_3  and  C_13
REMARK    4  A    between atoms: C_9  and  C_14
REMARK    5  A    between atoms: C_13  and  C_15
REMARK    6  A    between atoms: C_16  and  C_19
REMARK                            x       y       z     vdW  Elec       q    Type
REMARK                         _______ _______ _______ _____ _____    ______ ____
ROOT
ATOM      1  O   UNL     1      -4.098 -11.186  17.909  0.00  0.00    -0.336 OA
ATOM      4  N   UNL     1      -5.489 -10.584  16.260  0.00  0.00    -0.190 NA
ATOM      7  N   UNL     1      -5.319 -10.878  18.522  0.00  0.00    -0.056 NA
ATOM     14  C   UNL     1      -4.285 -10.986  16.577  0.00  0.00    +0.245 A 
ATOM     16  C   UNL     1      -6.087 -10.532  17.484  0.00  0.00    +0.204 A 
ENDROOT
BRANCH  16  19
ATOM      8  N   UNL     1      -9.274  -8.689  16.955  0.00  0.00    -0.221 NA
ATOM     19  C   UNL     1      -7.456 -10.128  17.637  0.00  0.00    +0.041 A 
ATOM     20  C   UNL     1      -8.281 -10.739  18.575  0.00  0.00    +0.018 A 
ATOM     21  C   UNL     1      -7.995  -9.117  16.859  0.00  0.00    +0.126 A 
ATOM     22  C   UNL     1      -9.603 -10.327  18.702  0.00  0.00    +0.068 A 
ATOM     23  C   UNL     1     -10.047  -9.306  17.876  0.00  0.00    +0.214 A 
BRANCH  23   2
ATOM      2  O   UNL     1     -11.345  -8.882  17.983  0.00  0.00    -0.480 OA
ATOM     24  C   UNL     1     -11.969  -8.422  16.789  0.00  0.00    +0.279 C 
ENDBRANCH  23   2
ENDBRANCH  16  19
BRANCH  14   9
ATOM      3  N   UNL     1      -3.161 -10.508  14.409  0.00  0.00    -0.284 NA
ATOM      9  C   UNL     1      -3.094 -11.255  15.682  0.00  0.00    +0.146 C 
ATOM     10  C   UNL     1      -1.760 -10.822  16.319  0.00  0.00    +0.030 C 
ATOM     11  C   UNL     1      -1.123  -9.881  15.307  0.00  0.00    +0.017 C 
ATOM     12  C   UNL     1      -1.778 -10.270  13.997  0.00  0.00    +0.085 C 
BRANCH   3  13
ATOM     13  C   UNL     1      -3.928 -11.197  13.380  0.00  0.00    +0.159 C 
BRANCH  13  15
ATOM      5  N   UNL     1      -6.133 -10.027  13.149  0.00  0.00    -0.347 N 
ATOM      6  N   UNL     1      -4.642  -9.601  11.560  0.00  0.00    -0.239 NA
ATOM     15  C   UNL     1      -4.875 -10.267  12.669  0.00  0.00    +0.121 A 
ATOM     17  C   UNL     1      -6.740  -9.153  12.293  0.00  0.00    +0.104 A 
ATOM     18  C   UNL     1      -5.800  -8.905  11.319  0.00  0.00    +0.130 A 
ATOM     25  H   UNL     1      -6.541 -10.424  13.985  0.00  0.00    +0.167 HD
ENDBRANCH  13  15
ENDBRANCH   3  13
ENDBRANCH  14   9
TORSDOF 5
ENDMDL
