MODEL 1
REMARK VINA RESULT:      -7.5      0.000      0.000
REMARK  Name = 71693898
REMARK  8 active torsions:
REMARK  status: ('A' for Active; 'I' for Inactive)
REMARK    1  A    between atoms: O_1  and  C_9
REMARK    2  A    between atoms: O_2  and  C_11
REMARK    3  A    between atoms: O_4  and  C_18
REMARK    4  A    between atoms: O_4  and  C_25
REMARK    5  A    between atoms: N_5  and  C_8
REMARK    6  A    between atoms: C_7  and  C_12
REMARK    7  A    between atoms: C_15  and  C_19
REMARK    8  A    between atoms: C_22  and  C_26
REMARK                            x       y       z     vdW  Elec       q    Type
REMARK                         _______ _______ _______ _____ _____    ______ ____
ROOT
ATOM      7  C   UNL     1      13.083   9.183  20.097  0.00  0.00    +0.044 C 
ATOM      8  C   UNL     1      13.279   7.667  20.326  0.00  0.00    +0.112 C 
ATOM      9  C   UNL     1      12.422   7.379  21.558  0.00  0.00    +0.164 C 
ATOM     10  C   UNL     1      11.738   9.543  20.779  0.00  0.00    +0.044 C 
ATOM     11  C   UNL     1      11.179   8.229  21.320  0.00  0.00    +0.145 C 
ENDROOT
BRANCH   7  12
ATOM     12  C   UNL     1      13.169   9.578  18.638  0.00  0.00    -0.042 A 
ATOM     13  C   UNL     1      12.340   8.963  17.699  0.00  0.00    +0.007 A 
ATOM     14  C   UNL     1      14.077  10.556  18.233  0.00  0.00    +0.007 A 
ATOM     16  C   UNL     1      12.419   9.328  16.355  0.00  0.00    +0.046 A 
ATOM     17  C   UNL     1      14.156  10.921  16.889  0.00  0.00    +0.046 A 
ATOM     18  C   UNL     1      13.327  10.307  15.950  0.00  0.00    +0.120 A 
BRANCH  18   4
ATOM      4  O   UNL     1      13.403  10.662  14.638  0.00  0.00    -0.495 OA
ATOM     25  C   UNL     1      13.969  11.938  14.343  0.00  0.00    +0.277 C 
ENDBRANCH  18   4
ENDBRANCH   7  12
BRANCH   8   5
ATOM      3  O   UNL     1      15.194   6.917  18.321  0.00  0.00    -0.270 OA
ATOM      5  N   UNL     1      14.662   7.327  20.541  0.00  0.00    -0.305 N 
ATOM     15  C   UNL     1      15.517   6.975  19.504  0.00  0.00    +0.244 C 
ATOM     27  H   UNL     1      15.026   7.446  21.482  0.00  0.00    +0.149 HD
BRANCH  15  19
ATOM     19  C   UNL     1      16.906   6.627  19.896  0.00  0.00    +0.038 A 
ATOM     20  C   UNL     1      17.534   7.320  20.933  0.00  0.00    +0.032 A 
ATOM     21  C   UNL     1      17.585   5.608  19.227  0.00  0.00    +0.013 A 
ATOM     22  C   UNL     1      18.839   6.993  21.300  0.00  0.00    +0.052 A 
ATOM     23  C   UNL     1      18.891   5.282  19.595  0.00  0.00    +0.002 A 
ATOM     24  C   UNL     1      19.518   5.975  20.632  0.00  0.00    +0.019 A 
BRANCH  22  26
ATOM      6  N   UNL     1      20.002   8.275  23.225  0.00  0.00    -0.191 NA
ATOM     26  C   UNL     1      19.481   7.701  22.362  0.00  0.00    +0.099 C 
ENDBRANCH  22  26
ENDBRANCH  15  19
ENDBRANCH   8   5
BRANCH   9   1
ATOM      1  O   UNL     1      12.090   6.009  21.672  0.00  0.00    -0.387 OA
ATOM     28  H   UNL     1      12.341   5.577  20.837  0.00  0.00    +0.210 HD
ENDBRANCH   9   1
BRANCH  11   2
ATOM      2  O   UNL     1      10.345   7.644  20.324  0.00  0.00    -0.389 OA
ATOM     29  H   UNL     1       9.649   8.290  20.112  0.00  0.00    +0.210 HD
ENDBRANCH  11   2
TORSDOF 7
ENDMDL
MODEL 2
REMARK VINA RESULT:      -7.2      2.732      3.129
REMARK  Name = 71693898
REMARK  8 active torsions:
REMARK  status: ('A' for Active; 'I' for Inactive)
REMARK    1  A    between atoms: O_1  and  C_9
REMARK    2  A    between atoms: O_2  and  C_11
REMARK    3  A    between atoms: O_4  and  C_18
REMARK    4  A    between atoms: O_4  and  C_25
REMARK    5  A    between atoms: N_5  and  C_8
REMARK    6  A    between atoms: C_7  and  C_12
REMARK    7  A    between atoms: C_15  and  C_19
REMARK    8  A    between atoms: C_22  and  C_26
REMARK                            x       y       z     vdW  Elec       q    Type
REMARK                         _______ _______ _______ _____ _____    ______ ____
ROOT
ATOM      7  C   UNL     1      12.613   8.793  22.092  0.00  0.00    +0.044 C 
ATOM      8  C   UNL     1      13.009   7.908  20.889  0.00  0.00    +0.112 C 
ATOM      9  C   UNL     1      12.081   6.701  21.014  0.00  0.00    +0.164 C 
ATOM     10  C   UNL     1      11.164   8.381  22.462  0.00  0.00    +0.044 C 
ATOM     11  C   UNL     1      10.756   7.327  21.434  0.00  0.00    +0.145 C 
ENDROOT
BRANCH   7  12
ATOM     12  C   UNL     1      12.791  10.273  21.824  0.00  0.00    -0.042 A 
ATOM     13  C   UNL     1      11.691  11.056  21.474  0.00  0.00    +0.007 A 
ATOM     14  C   UNL     1      14.057  10.851  21.924  0.00  0.00    +0.007 A 
ATOM     16  C   UNL     1      11.856  12.419  21.227  0.00  0.00    +0.046 A 
ATOM     17  C   UNL     1      14.221  12.214  21.677  0.00  0.00    +0.046 A 
ATOM     18  C   UNL     1      13.121  12.998  21.329  0.00  0.00    +0.120 A 
BRANCH  18   4
ATOM      4  O   UNL     1      13.282  14.328  21.088  0.00  0.00    -0.495 OA
ATOM     25  C   UNL     1      14.456  14.722  20.379  0.00  0.00    +0.277 C 
ENDBRANCH  18   4
ENDBRANCH   7  12
BRANCH   8   5
ATOM      3  O   UNL     1      14.674   7.224  18.652  0.00  0.00    -0.270 OA
ATOM      5  N   UNL     1      14.398   7.525  20.934  0.00  0.00    -0.305 N 
ATOM     15  C   UNL     1      15.125   7.210  19.794  0.00  0.00    +0.244 C 
ATOM     27  H   UNL     1      14.864   7.585  21.835  0.00  0.00    +0.149 HD
BRANCH  15  19
ATOM     19  C   UNL     1      16.538   6.810  20.013  0.00  0.00    +0.038 A 
ATOM     20  C   UNL     1      17.276   7.390  21.046  0.00  0.00    +0.032 A 
ATOM     21  C   UNL     1      17.129   5.854  19.186  0.00  0.00    +0.013 A 
ATOM     22  C   UNL     1      18.603   7.014  21.251  0.00  0.00    +0.052 A 
ATOM     23  C   UNL     1      18.457   5.479  19.391  0.00  0.00    +0.002 A 
ATOM     24  C   UNL     1      19.194   6.059  20.424  0.00  0.00    +0.019 A 
BRANCH  22  26
ATOM      6  N   UNL     1      19.970   8.087  23.170  0.00  0.00    -0.191 NA
ATOM     26  C   UNL     1      19.358   7.606  22.310  0.00  0.00    +0.099 C 
ENDBRANCH  22  26
ENDBRANCH  15  19
ENDBRANCH   8   5
BRANCH   9   1
ATOM      1  O   UNL     1      11.948   5.997  19.793  0.00  0.00    -0.387 OA
ATOM     28  H   UNL     1      12.669   5.345  19.753  0.00  0.00    +0.210 HD
ENDBRANCH   9   1
BRANCH  11   2
ATOM      2  O   UNL     1      10.129   7.981  20.335  0.00  0.00    -0.389 OA
ATOM     29  H   UNL     1      10.731   8.681  20.030  0.00  0.00    +0.210 HD
ENDBRANCH  11   2
TORSDOF 7
ENDMDL
MODEL 3
REMARK VINA RESULT:      -6.9      3.147      6.599
REMARK  Name = 71693898
REMARK  8 active torsions:
REMARK  status: ('A' for Active; 'I' for Inactive)
REMARK    1  A    between atoms: O_1  and  C_9
REMARK    2  A    between atoms: O_2  and  C_11
REMARK    3  A    between atoms: O_4  and  C_18
REMARK    4  A    between atoms: O_4  and  C_25
REMARK    5  A    between atoms: N_5  and  C_8
REMARK    6  A    between atoms: C_7  and  C_12
REMARK    7  A    between atoms: C_15  and  C_19
REMARK    8  A    between atoms: C_22  and  C_26
REMARK                            x       y       z     vdW  Elec       q    Type
REMARK                         _______ _______ _______ _____ _____    ______ ____
ROOT
ATOM      7  C   UNL     1      14.086   9.044  19.003  0.00  0.00    +0.044 C 
ATOM      8  C   UNL     1      12.843   8.831  19.896  0.00  0.00    +0.112 C 
ATOM      9  C   UNL     1      11.674   8.997  18.925  0.00  0.00    +0.164 C 
ATOM     10  C   UNL     1      13.627   8.729  17.556  0.00  0.00    +0.044 C 
ATOM     11  C   UNL     1      12.168   8.291  17.667  0.00  0.00    +0.145 C 
ENDROOT
BRANCH   7  12
ATOM     12  C   UNL     1      15.289   8.248  19.464  0.00  0.00    -0.042 A 
ATOM     13  C   UNL     1      16.190   8.808  20.370  0.00  0.00    +0.007 A 
ATOM     14  C   UNL     1      15.497   6.956  18.980  0.00  0.00    +0.007 A 
ATOM     16  C   UNL     1      17.299   8.074  20.794  0.00  0.00    +0.046 A 
ATOM     17  C   UNL     1      16.605   6.223  19.404  0.00  0.00    +0.046 A 
ATOM     18  C   UNL     1      17.505   6.781  20.311  0.00  0.00    +0.120 A 
BRANCH  18   4
ATOM      4  O   UNL     1      18.588   6.066  20.725  0.00  0.00    -0.495 OA
ATOM     25  C   UNL     1      19.387   6.637  21.759  0.00  0.00    +0.277 C 
ENDBRANCH  18   4
ENDBRANCH   7  12
BRANCH   8   5
ATOM      3  O   UNL     1      11.433   8.522  22.379  0.00  0.00    -0.270 OA
ATOM      5  N   UNL     1      12.784   9.782  20.976  0.00  0.00    -0.305 N 
ATOM     15  C   UNL     1      12.073   9.544  22.145  0.00  0.00    +0.244 C 
ATOM     27  H   UNL     1      13.367  10.610  20.895  0.00  0.00    +0.149 HD
BRANCH  15  19
ATOM     19  C   UNL     1      12.090  10.636  23.152  0.00  0.00    +0.038 A 
ATOM     20  C   UNL     1      13.203  11.473  23.255  0.00  0.00    +0.032 A 
ATOM     21  C   UNL     1      10.995  10.825  23.995  0.00  0.00    +0.013 A 
ATOM     22  C   UNL     1      13.219  12.497  24.200  0.00  0.00    +0.052 A 
ATOM     23  C   UNL     1      11.012  11.851  24.941  0.00  0.00    +0.002 A 
ATOM     24  C   UNL     1      12.124  12.687  25.043  0.00  0.00    +0.019 A 
BRANCH  22  26
ATOM      6  N   UNL     1      15.281  14.052  24.390  0.00  0.00    -0.191 NA
ATOM     26  C   UNL     1      14.357  13.355  24.305  0.00  0.00    +0.099 C 
ENDBRANCH  22  26
ENDBRANCH  15  19
ENDBRANCH   8   5
BRANCH   9   1
ATOM      1  O   UNL     1      10.485   8.404  19.410  0.00  0.00    -0.387 OA
ATOM     28  H   UNL     1      10.258   8.848  20.246  0.00  0.00    +0.210 HD
ENDBRANCH   9   1
BRANCH  11   2
ATOM      2  O   UNL     1      12.127   6.876  17.828  0.00  0.00    -0.389 OA
ATOM     29  H   UNL     1      12.524   6.481  17.032  0.00  0.00    +0.210 HD
ENDBRANCH  11   2
TORSDOF 7
ENDMDL
MODEL 4
REMARK VINA RESULT:      -6.8      1.418      2.118
REMARK  Name = 71693898
REMARK  8 active torsions:
REMARK  status: ('A' for Active; 'I' for Inactive)
REMARK    1  A    between atoms: O_1  and  C_9
REMARK    2  A    between atoms: O_2  and  C_11
REMARK    3  A    between atoms: O_4  and  C_18
REMARK    4  A    between atoms: O_4  and  C_25
REMARK    5  A    between atoms: N_5  and  C_8
REMARK    6  A    between atoms: C_7  and  C_12
REMARK    7  A    between atoms: C_15  and  C_19
REMARK    8  A    between atoms: C_22  and  C_26
REMARK                            x       y       z     vdW  Elec       q    Type
REMARK                         _______ _______ _______ _____ _____    ______ ____
ROOT
ATOM      7  C   UNL     1      13.542   9.636  19.683  0.00  0.00    +0.044 C 
ATOM      8  C   UNL     1      14.059   8.209  19.973  0.00  0.00    +0.112 C 
ATOM      9  C   UNL     1      13.149   7.723  21.100  0.00  0.00    +0.164 C 
ATOM     10  C   UNL     1      12.077   9.666  20.188  0.00  0.00    +0.044 C 
ATOM     11  C   UNL     1      11.780   8.255  20.691  0.00  0.00    +0.145 C 
ENDROOT
BRANCH   7  12
ATOM     12  C   UNL     1      13.712  10.045  18.235  0.00  0.00    -0.042 A 
ATOM     13  C   UNL     1      14.572  11.091  17.901  0.00  0.00    +0.007 A 
ATOM     14  C   UNL     1      13.006   9.375  17.235  0.00  0.00    +0.007 A 
ATOM     16  C   UNL     1      14.728  11.467  16.567  0.00  0.00    +0.046 A 
ATOM     17  C   UNL     1      13.162   9.751  15.900  0.00  0.00    +0.046 A 
ATOM     18  C   UNL     1      14.023  10.796  15.567  0.00  0.00    +0.120 A 
BRANCH  18   4
ATOM      4  O   UNL     1      14.176  11.164  14.265  0.00  0.00    -0.495 OA
ATOM     25  C   UNL     1      15.500  11.457  13.823  0.00  0.00    +0.277 C 
ENDBRANCH  18   4
ENDBRANCH   7  12
BRANCH   8   5
ATOM      3  O   UNL     1      15.896   6.012  19.759  0.00  0.00    -0.270 OA
ATOM      5  N   UNL     1      15.446   8.205  20.363  0.00  0.00    -0.305 N 
ATOM     15  C   UNL     1      16.261   7.090  20.221  0.00  0.00    +0.244 C 
ATOM     27  H   UNL     1      15.844   9.091  20.663  0.00  0.00    +0.149 HD
BRANCH  15  19
ATOM     19  C   UNL     1      17.660   7.241  20.695  0.00  0.00    +0.038 A 
ATOM     20  C   UNL     1      18.581   6.212  20.493  0.00  0.00    +0.032 A 
ATOM     21  C   UNL     1      18.055   8.412  21.344  0.00  0.00    +0.013 A 
ATOM     22  C   UNL     1      19.894   6.353  20.939  0.00  0.00    +0.052 A 
ATOM     23  C   UNL     1      19.369   8.553  21.790  0.00  0.00    +0.002 A 
ATOM     24  C   UNL     1      20.289   7.523  21.587  0.00  0.00    +0.019 A 
BRANCH  22  26
ATOM      6  N   UNL     1      21.603   4.445  20.560  0.00  0.00    -0.191 NA
ATOM     26  C   UNL     1      20.838   5.301  20.730  0.00  0.00    +0.099 C 
ENDBRANCH  22  26
ENDBRANCH  15  19
ENDBRANCH   8   5
BRANCH   9   1
ATOM      1  O   UNL     1      13.137   6.312  21.209  0.00  0.00    -0.387 OA
ATOM     28  H   UNL     1      14.056   6.022  21.342  0.00  0.00    +0.210 HD
ENDBRANCH   9   1
BRANCH  11   2
ATOM      2  O   UNL     1      11.236   7.492  19.618  0.00  0.00    -0.389 OA
ATOM     29  H   UNL     1      11.703   6.639  19.601  0.00  0.00    +0.210 HD
ENDBRANCH  11   2
TORSDOF 7
ENDMDL
MODEL 5
REMARK VINA RESULT:      -6.5      3.674      7.412
REMARK  Name = 71693898
REMARK  8 active torsions:
REMARK  status: ('A' for Active; 'I' for Inactive)
REMARK    1  A    between atoms: O_1  and  C_9
REMARK    2  A    between atoms: O_2  and  C_11
REMARK    3  A    between atoms: O_4  and  C_18
REMARK    4  A    between atoms: O_4  and  C_25
REMARK    5  A    between atoms: N_5  and  C_8
REMARK    6  A    between atoms: C_7  and  C_12
REMARK    7  A    between atoms: C_15  and  C_19
REMARK    8  A    between atoms: C_22  and  C_26
REMARK                            x       y       z     vdW  Elec       q    Type
REMARK                         _______ _______ _______ _____ _____    ______ ____
ROOT
ATOM      7  C   UNL     1      13.782   9.105  19.217  0.00  0.00    +0.044 C 
ATOM      8  C   UNL     1      12.551   9.095  20.151  0.00  0.00    +0.112 C 
ATOM      9  C   UNL     1      11.423   8.599  19.248  0.00  0.00    +0.164 C 
ATOM     10  C   UNL     1      13.460   8.099  18.082  0.00  0.00    +0.044 C 
ATOM     11  C   UNL     1      12.095   7.505  18.426  0.00  0.00    +0.145 C 
ENDROOT
BRANCH   7  12
ATOM     12  C   UNL     1      15.081   8.828  19.946  0.00  0.00    -0.042 A 
ATOM     13  C   UNL     1      15.661   9.819  20.737  0.00  0.00    +0.007 A 
ATOM     14  C   UNL     1      15.696   7.581  19.824  0.00  0.00    +0.007 A 
ATOM     16  C   UNL     1      16.857   9.563  21.409  0.00  0.00    +0.046 A 
ATOM     17  C   UNL     1      16.892   7.326  20.495  0.00  0.00    +0.046 A 
ATOM     18  C   UNL     1      17.472   8.316  21.288  0.00  0.00    +0.120 A 
BRANCH  18   4
ATOM      4  O   UNL     1      18.639   8.067  21.943  0.00  0.00    -0.495 OA
ATOM     25  C   UNL     1      19.183   6.753  21.824  0.00  0.00    +0.277 C 
ENDBRANCH  18   4
ENDBRANCH   7  12
BRANCH   8   5
ATOM      3  O   UNL     1      10.995   9.689  22.490  0.00  0.00    -0.270 OA
ATOM      5  N   UNL     1      12.272  10.402  20.690  0.00  0.00    -0.305 N 
ATOM     15  C   UNL     1      11.505  10.592  21.832  0.00  0.00    +0.244 C 
ATOM     27  H   UNL     1      12.741  11.191  20.255  0.00  0.00    +0.149 HD
BRANCH  15  19
ATOM     19  C   UNL     1      11.289  12.003  22.243  0.00  0.00    +0.038 A 
ATOM     20  C   UNL     1      11.074  12.313  23.587  0.00  0.00    +0.032 A 
ATOM     21  C   UNL     1      11.298  13.018  21.286  0.00  0.00    +0.013 A 
ATOM     22  C   UNL     1      10.870  13.637  23.973  0.00  0.00    +0.052 A 
ATOM     23  C   UNL     1      11.094  14.343  21.673  0.00  0.00    +0.002 A 
ATOM     24  C   UNL     1      10.880  14.652  23.016  0.00  0.00    +0.019 A 
BRANCH  22  26
ATOM      6  N   UNL     1      10.476  14.214  26.466  0.00  0.00    -0.191 NA
ATOM     26  C   UNL     1      10.652  13.956  25.348  0.00  0.00    +0.099 C 
ENDBRANCH  22  26
ENDBRANCH  15  19
ENDBRANCH   8   5
BRANCH   9   1
ATOM      1  O   UNL     1      10.331   8.084  19.986  0.00  0.00    -0.387 OA
ATOM     28  H   UNL     1      10.385   8.455  20.884  0.00  0.00    +0.210 HD
ENDBRANCH   9   1
BRANCH  11   2
ATOM      2  O   UNL     1      12.293   6.329  19.206  0.00  0.00    -0.389 OA
ATOM     29  H   UNL     1      11.705   6.390  19.978  0.00  0.00    +0.210 HD
ENDBRANCH  11   2
TORSDOF 7
ENDMDL
MODEL 6
REMARK VINA RESULT:      -6.4     31.080     33.233
REMARK  Name = 71693898
REMARK  8 active torsions:
REMARK  status: ('A' for Active; 'I' for Inactive)
REMARK    1  A    between atoms: O_1  and  C_9
REMARK    2  A    between atoms: O_2  and  C_11
REMARK    3  A    between atoms: O_4  and  C_18
REMARK    4  A    between atoms: O_4  and  C_25
REMARK    5  A    between atoms: N_5  and  C_8
REMARK    6  A    between atoms: C_7  and  C_12
REMARK    7  A    between atoms: C_15  and  C_19
REMARK    8  A    between atoms: C_22  and  C_26
REMARK                            x       y       z     vdW  Elec       q    Type
REMARK                         _______ _______ _______ _____ _____    ______ ____
ROOT
ATOM      7  C   UNL     1     -16.663   4.836  32.504  0.00  0.00    +0.044 C 
ATOM      8  C   UNL     1     -16.344   5.041  34.002  0.00  0.00    +0.112 C 
ATOM      9  C   UNL     1     -17.687   5.459  34.598  0.00  0.00    +0.164 C 
ATOM     10  C   UNL     1     -18.187   4.562  32.430  0.00  0.00    +0.044 C 
ATOM     11  C   UNL     1     -18.681   4.557  33.875  0.00  0.00    +0.145 C 
ENDROOT
BRANCH   7  12
ATOM     12  C   UNL     1     -15.805   3.770  31.855  0.00  0.00    -0.042 A 
ATOM     13  C   UNL     1     -15.500   3.850  30.497  0.00  0.00    +0.007 A 
ATOM     14  C   UNL     1     -15.321   2.707  32.618  0.00  0.00    +0.007 A 
ATOM     16  C   UNL     1     -14.709   2.868  29.900  0.00  0.00    +0.046 A 
ATOM     17  C   UNL     1     -14.530   1.724  32.021  0.00  0.00    +0.046 A 
ATOM     18  C   UNL     1     -14.223   1.806  30.663  0.00  0.00    +0.120 A 
BRANCH  18   4
ATOM      4  O   UNL     1     -13.452   0.847  30.080  0.00  0.00    -0.495 OA
ATOM     25  C   UNL     1     -14.077  -0.403  29.792  0.00  0.00    +0.277 C 
ENDBRANCH  18   4
ENDBRANCH   7  12
BRANCH   8   5
ATOM      3  O   UNL     1     -14.003   4.803  35.648  0.00  0.00    -0.270 OA
ATOM      5  N   UNL     1     -15.329   6.044  34.206  0.00  0.00    -0.305 N 
ATOM     15  C   UNL     1     -14.227   5.837  35.025  0.00  0.00    +0.244 C 
ATOM     27  H   UNL     1     -15.397   6.889  33.647  0.00  0.00    +0.149 HD
BRANCH  15  19
ATOM     19  C   UNL     1     -13.287   6.980  35.150  0.00  0.00    +0.038 A 
ATOM     20  C   UNL     1     -12.604   7.194  36.349  0.00  0.00    +0.032 A 
ATOM     21  C   UNL     1     -13.086   7.840  34.071  0.00  0.00    +0.013 A 
ATOM     22  C   UNL     1     -11.723   8.267  36.467  0.00  0.00    +0.052 A 
ATOM     23  C   UNL     1     -12.203   8.914  34.190  0.00  0.00    +0.002 A 
ATOM     24  C   UNL     1     -11.521   9.127  35.388  0.00  0.00    +0.019 A 
BRANCH  22  26
ATOM      6  N   UNL     1     -10.455   8.662  38.690  0.00  0.00    -0.191 NA
ATOM     26  C   UNL     1     -11.023   8.485  37.694  0.00  0.00    +0.099 C 
ENDBRANCH  22  26
ENDBRANCH  15  19
ENDBRANCH   8   5
BRANCH   9   1
ATOM      1  O   UNL     1     -17.739   5.257  35.998  0.00  0.00    -0.387 OA
ATOM     28  H   UNL     1     -17.991   4.330  36.149  0.00  0.00    +0.210 HD
ENDBRANCH   9   1
BRANCH  11   2
ATOM      2  O   UNL     1     -18.618   3.225  34.374  0.00  0.00    -0.389 OA
ATOM     29  H   UNL     1     -19.038   3.223  35.252  0.00  0.00    +0.210 HD
ENDBRANCH  11   2
TORSDOF 7
ENDMDL
MODEL 7
REMARK VINA RESULT:      -6.3      2.500      3.136
REMARK  Name = 71693898
REMARK  8 active torsions:
REMARK  status: ('A' for Active; 'I' for Inactive)
REMARK    1  A    between atoms: O_1  and  C_9
REMARK    2  A    between atoms: O_2  and  C_11
REMARK    3  A    between atoms: O_4  and  C_18
REMARK    4  A    between atoms: O_4  and  C_25
REMARK    5  A    between atoms: N_5  and  C_8
REMARK    6  A    between atoms: C_7  and  C_12
REMARK    7  A    between atoms: C_15  and  C_19
REMARK    8  A    between atoms: C_22  and  C_26
REMARK                            x       y       z     vdW  Elec       q    Type
REMARK                         _______ _______ _______ _____ _____    ______ ____
ROOT
ATOM      7  C   UNL     1      14.173  10.924  20.779  0.00  0.00    +0.044 C 
ATOM      8  C   UNL     1      14.647  10.080  21.984  0.00  0.00    +0.112 C 
ATOM      9  C   UNL     1      14.746  11.099  23.117  0.00  0.00    +0.164 C 
ATOM     10  C   UNL     1      13.478  12.171  21.384  0.00  0.00    +0.044 C 
ATOM     11  C   UNL     1      13.518  11.977  22.899  0.00  0.00    +0.145 C 
ENDROOT
BRANCH   7  12
ATOM     12  C   UNL     1      13.316  10.142  19.807  0.00  0.00    -0.042 A 
ATOM     13  C   UNL     1      13.575  10.209  18.438  0.00  0.00    +0.007 A 
ATOM     14  C   UNL     1      12.267   9.354  20.282  0.00  0.00    +0.007 A 
ATOM     16  C   UNL     1      12.785   9.487  17.543  0.00  0.00    +0.046 A 
ATOM     17  C   UNL     1      11.477   8.633  19.386  0.00  0.00    +0.046 A 
ATOM     18  C   UNL     1      11.736   8.699  18.017  0.00  0.00    +0.120 A 
BRANCH  18   4
ATOM      4  O   UNL     1      10.965   7.995  17.143  0.00  0.00    -0.495 OA
ATOM     25  C   UNL     1      10.517   8.681  15.975  0.00  0.00    +0.277 C 
ENDBRANCH  18   4
ENDBRANCH   7  12
BRANCH   8   5
ATOM      3  O   UNL     1      15.054   7.339  21.229  0.00  0.00    -0.270 OA
ATOM      5  N   UNL     1      15.910   9.435  21.728  0.00  0.00    -0.305 N 
ATOM     15  C   UNL     1      16.009   8.098  21.367  0.00  0.00    +0.244 C 
ATOM     27  H   UNL     1      16.737  10.024  21.729  0.00  0.00    +0.149 HD
BRANCH  15  19
ATOM     19  C   UNL     1      17.385   7.578  21.165  0.00  0.00    +0.038 A 
ATOM     20  C   UNL     1      18.472   8.236  21.745  0.00  0.00    +0.032 A 
ATOM     21  C   UNL     1      17.593   6.434  20.395  0.00  0.00    +0.013 A 
ATOM     22  C   UNL     1      19.764   7.748  21.555  0.00  0.00    +0.052 A 
ATOM     23  C   UNL     1      18.887   5.946  20.205  0.00  0.00    +0.002 A 
ATOM     24  C   UNL     1      19.972   6.604  20.785  0.00  0.00    +0.019 A 
BRANCH  22  26
ATOM      6  N   UNL     1      21.779   8.965  22.634  0.00  0.00    -0.191 NA
ATOM     26  C   UNL     1      20.876   8.419  22.150  0.00  0.00    +0.099 C 
ENDBRANCH  22  26
ENDBRANCH  15  19
ENDBRANCH   8   5
BRANCH   9   1
ATOM      1  O   UNL     1      14.716  10.488  24.393  0.00  0.00    -0.387 OA
ATOM     28  H   UNL     1      15.563  10.683  24.829  0.00  0.00    +0.210 HD
ENDBRANCH   9   1
BRANCH  11   2
ATOM      2  O   UNL     1      12.331  11.304  23.305  0.00  0.00    -0.389 OA
ATOM     29  H   UNL     1      11.941  11.815  24.035  0.00  0.00    +0.210 HD
ENDBRANCH  11   2
TORSDOF 7
ENDMDL
MODEL 8
REMARK VINA RESULT:      -6.3     13.744     17.595
REMARK  Name = 71693898
REMARK  8 active torsions:
REMARK  status: ('A' for Active; 'I' for Inactive)
REMARK    1  A    between atoms: O_1  and  C_9
REMARK    2  A    between atoms: O_2  and  C_11
REMARK    3  A    between atoms: O_4  and  C_18
REMARK    4  A    between atoms: O_4  and  C_25
REMARK    5  A    between atoms: N_5  and  C_8
REMARK    6  A    between atoms: C_7  and  C_12
REMARK    7  A    between atoms: C_15  and  C_19
REMARK    8  A    between atoms: C_22  and  C_26
REMARK                            x       y       z     vdW  Elec       q    Type
REMARK                         _______ _______ _______ _____ _____    ______ ____
ROOT
ATOM      7  C   UNL     1       8.804   7.011   4.337  0.00  0.00    +0.044 C 
ATOM      8  C   UNL     1      10.065   7.508   3.596  0.00  0.00    +0.112 C 
ATOM      9  C   UNL     1       9.583   8.765   2.874  0.00  0.00    +0.164 C 
ATOM     10  C   UNL     1       7.890   8.254   4.496  0.00  0.00    +0.044 C 
ATOM     11  C   UNL     1       8.670   9.424   3.902  0.00  0.00    +0.145 C 
ENDROOT
BRANCH   7  12
ATOM     12  C   UNL     1       9.121   6.300   5.636  0.00  0.00    -0.042 A 
ATOM     13  C   UNL     1       9.590   4.986   5.616  0.00  0.00    +0.007 A 
ATOM     14  C   UNL     1       8.943   6.959   6.853  0.00  0.00    +0.007 A 
ATOM     16  C   UNL     1       9.882   4.331   6.812  0.00  0.00    +0.046 A 
ATOM     17  C   UNL     1       9.235   6.304   8.049  0.00  0.00    +0.046 A 
ATOM     18  C   UNL     1       9.705   4.991   8.029  0.00  0.00    +0.120 A 
BRANCH  18   4
ATOM      4  O   UNL     1       9.990   4.352   9.197  0.00  0.00    -0.495 OA
ATOM     25  C   UNL     1       9.103   4.573  10.292  0.00  0.00    +0.277 C 
ENDBRANCH  18   4
ENDBRANCH   7  12
BRANCH   8   5
ATOM      3  O   UNL     1      12.793   6.646   3.344  0.00  0.00    -0.270 OA
ATOM      5  N   UNL     1      10.575   6.522   2.677  0.00  0.00    -0.305 N 
ATOM     15  C   UNL     1      11.917   6.169   2.628  0.00  0.00    +0.244 C 
ATOM     27  H   UNL     1       9.895   6.015   2.120  0.00  0.00    +0.149 HD
BRANCH  15  19
ATOM     19  C   UNL     1      12.286   5.156   1.606  0.00  0.00    +0.038 A 
ATOM     20  C   UNL     1      11.455   4.939   0.506  0.00  0.00    +0.032 A 
ATOM     21  C   UNL     1      13.463   4.419   1.747  0.00  0.00    +0.013 A 
ATOM     22  C   UNL     1      11.801   3.988  -0.452  0.00  0.00    +0.052 A 
ATOM     23  C   UNL     1      13.808   3.467   0.787  0.00  0.00    +0.002 A 
ATOM     24  C   UNL     1      12.977   3.251  -0.313  0.00  0.00    +0.019 A 
BRANCH  22  26
ATOM      6  N   UNL     1      10.261   3.588  -2.495  0.00  0.00    -0.191 NA
ATOM     26  C   UNL     1      10.951   3.767  -1.580  0.00  0.00    +0.099 C 
ENDBRANCH  22  26
ENDBRANCH  15  19
ENDBRANCH   8   5
BRANCH   9   1
ATOM      1  O   UNL     1      10.650   9.621   2.515  0.00  0.00    -0.387 OA
ATOM     28  H   UNL     1      11.083   9.908   3.337  0.00  0.00    +0.210 HD
ENDBRANCH   9   1
BRANCH  11   2
ATOM      2  O   UNL     1       9.430  10.038   4.939  0.00  0.00    -0.389 OA
ATOM     29  H   UNL     1      10.363   9.800   4.796  0.00  0.00    +0.210 HD
ENDBRANCH  11   2
TORSDOF 7
ENDMDL
MODEL 9
REMARK VINA RESULT:      -6.2      2.016      4.367
REMARK  Name = 71693898
REMARK  8 active torsions:
REMARK  status: ('A' for Active; 'I' for Inactive)
REMARK    1  A    between atoms: O_1  and  C_9
REMARK    2  A    between atoms: O_2  and  C_11
REMARK    3  A    between atoms: O_4  and  C_18
REMARK    4  A    between atoms: O_4  and  C_25
REMARK    5  A    between atoms: N_5  and  C_8
REMARK    6  A    between atoms: C_7  and  C_12
REMARK    7  A    between atoms: C_15  and  C_19
REMARK    8  A    between atoms: C_22  and  C_26
REMARK                            x       y       z     vdW  Elec       q    Type
REMARK                         _______ _______ _______ _____ _____    ______ ____
ROOT
ATOM      7  C   UNL     1      12.746   8.468  19.479  0.00  0.00    +0.044 C 
ATOM      8  C   UNL     1      13.900   9.039  18.625  0.00  0.00    +0.112 C 
ATOM      9  C   UNL     1      13.698   8.375  17.264  0.00  0.00    +0.164 C 
ATOM     10  C   UNL     1      11.656   8.020  18.473  0.00  0.00    +0.044 C 
ATOM     11  C   UNL     1      12.184   8.398  17.090  0.00  0.00    +0.145 C 
ENDROOT
BRANCH   7  12
ATOM     12  C   UNL     1      12.259   9.435  20.538  0.00  0.00    -0.042 A 
ATOM     13  C   UNL     1      12.563  10.792  20.437  0.00  0.00    +0.007 A 
ATOM     14  C   UNL     1      11.506   8.966  21.615  0.00  0.00    +0.007 A 
ATOM     16  C   UNL     1      12.114  11.682  21.413  0.00  0.00    +0.046 A 
ATOM     17  C   UNL     1      11.056   9.856  22.591  0.00  0.00    +0.046 A 
ATOM     18  C   UNL     1      11.359  11.214  22.489  0.00  0.00    +0.120 A 
BRANCH  18   4
ATOM      4  O   UNL     1      10.921  12.083  23.441  0.00  0.00    -0.495 OA
ATOM     25  C   UNL     1      11.016  11.659  24.800  0.00  0.00    +0.277 C 
ENDBRANCH  18   4
ENDBRANCH   7  12
BRANCH   8   5
ATOM      3  O   UNL     1      14.886   6.440  19.346  0.00  0.00    -0.270 OA
ATOM      5  N   UNL     1      15.191   8.734  19.186  0.00  0.00    -0.305 N 
ATOM     15  C   UNL     1      15.582   7.440  19.505  0.00  0.00    +0.244 C 
ATOM     27  H   UNL     1      15.857   9.497  19.256  0.00  0.00    +0.149 HD
BRANCH  15  19
ATOM     19  C   UNL     1      16.935   7.296  20.100  0.00  0.00    +0.038 A 
ATOM     20  C   UNL     1      17.440   8.295  20.934  0.00  0.00    +0.032 A 
ATOM     21  C   UNL     1      17.701   6.163  19.826  0.00  0.00    +0.013 A 
ATOM     22  C   UNL     1      18.710   8.160  21.492  0.00  0.00    +0.052 A 
ATOM     23  C   UNL     1      18.973   6.029  20.385  0.00  0.00    +0.002 A 
ATOM     24  C   UNL     1      19.477   7.028  21.218  0.00  0.00    +0.019 A 
BRANCH  22  26
ATOM      6  N   UNL     1      19.647  10.011  23.042  0.00  0.00    -0.191 NA
ATOM     26  C   UNL     1      19.227   9.182  22.348  0.00  0.00    +0.099 C 
ENDBRANCH  22  26
ENDBRANCH  15  19
ENDBRANCH   8   5
BRANCH   9   1
ATOM      1  O   UNL     1      14.343   9.081  16.221  0.00  0.00    -0.387 OA
ATOM     28  H   UNL     1      14.404   8.481  15.457  0.00  0.00    +0.210 HD
ENDBRANCH   9   1
BRANCH  11   2
ATOM      2  O   UNL     1      11.727   9.709  16.770  0.00  0.00    -0.389 OA
ATOM     29  H   UNL     1      10.755   9.691  16.786  0.00  0.00    +0.210 HD
ENDBRANCH  11   2
TORSDOF 7
ENDMDL
MODEL 10
REMARK VINA RESULT:      -6.0     13.036     15.119
REMARK  Name = 71693898
REMARK  8 active torsions:
REMARK  status: ('A' for Active; 'I' for Inactive)
REMARK    1  A    between atoms: O_1  and  C_9
REMARK    2  A    between atoms: O_2  and  C_11
REMARK    3  A    between atoms: O_4  and  C_18
REMARK    4  A    between atoms: O_4  and  C_25
REMARK    5  A    between atoms: N_5  and  C_8
REMARK    6  A    between atoms: C_7  and  C_12
REMARK    7  A    between atoms: C_15  and  C_19
REMARK    8  A    between atoms: C_22  and  C_26
REMARK                            x       y       z     vdW  Elec       q    Type
REMARK                         _______ _______ _______ _____ _____    ______ ____
ROOT
ATOM      7  C   UNL     1      10.133   6.368   5.147  0.00  0.00    +0.044 C 
ATOM      8  C   UNL     1      11.337   6.176   6.096  0.00  0.00    +0.112 C 
ATOM      9  C   UNL     1      10.690   6.076   7.477  0.00  0.00    +0.164 C 
ATOM     10  C   UNL     1       8.906   5.790   5.897  0.00  0.00    +0.044 C 
ATOM     11  C   UNL     1       9.446   5.235   7.214  0.00  0.00    +0.145 C 
ENDROOT
BRANCH   7  12
ATOM     12  C   UNL     1      10.362   5.774   3.773  0.00  0.00    -0.042 A 
ATOM     13  C   UNL     1      10.016   6.500   2.632  0.00  0.00    +0.007 A 
ATOM     14  C   UNL     1      10.918   4.501   3.648  0.00  0.00    +0.007 A 
ATOM     16  C   UNL     1      10.227   5.952   1.367  0.00  0.00    +0.046 A 
ATOM     17  C   UNL     1      11.129   3.953   2.383  0.00  0.00    +0.046 A 
ATOM     18  C   UNL     1      10.784   4.679   1.242  0.00  0.00    +0.120 A 
BRANCH  18   4
ATOM      4  O   UNL     1      10.990   4.144   0.007  0.00  0.00    -0.495 OA
ATOM     25  C   UNL     1      12.298   3.651  -0.278  0.00  0.00    +0.277 C 
ENDBRANCH  18   4
ENDBRANCH   7  12
BRANCH   8   5
ATOM      3  O   UNL     1      13.950   6.298   7.282  0.00  0.00    -0.270 OA
ATOM      5  N   UNL     1      12.268   7.273   6.017  0.00  0.00    -0.305 N 
ATOM     15  C   UNL     1      13.516   7.242   6.626  0.00  0.00    +0.244 C 
ATOM     27  H   UNL     1      12.017   8.049   5.412  0.00  0.00    +0.149 HD
BRANCH  15  19
ATOM     19  C   UNL     1      14.346   8.463   6.473  0.00  0.00    +0.038 A 
ATOM     20  C   UNL     1      15.713   8.351   6.214  0.00  0.00    +0.032 A 
ATOM     21  C   UNL     1      13.761   9.725   6.588  0.00  0.00    +0.013 A 
ATOM     22  C   UNL     1      16.493   9.497   6.071  0.00  0.00    +0.052 A 
ATOM     23  C   UNL     1      14.541  10.872   6.445  0.00  0.00    +0.002 A 
ATOM     24  C   UNL     1      15.908  10.758   6.186  0.00  0.00    +0.019 A 
BRANCH  22  26
ATOM      6  N   UNL     1      19.028   9.288   5.586  0.00  0.00    -0.191 NA
ATOM     26  C   UNL     1      17.891   9.382   5.803  0.00  0.00    +0.099 C 
ENDBRANCH  22  26
ENDBRANCH  15  19
ENDBRANCH   8   5
BRANCH   9   1
ATOM      1  O   UNL     1      11.537   5.453   8.423  0.00  0.00    -0.387 OA
ATOM     28  H   UNL     1      12.140   4.868   7.934  0.00  0.00    +0.210 HD
ENDBRANCH   9   1
BRANCH  11   2
ATOM      2  O   UNL     1       9.788   3.865   7.026  0.00  0.00    -0.389 OA
ATOM     29  H   UNL     1       9.008   3.419   6.652  0.00  0.00    +0.210 HD
ENDBRANCH  11   2
TORSDOF 7
ENDMDL
