MODEL 1
REMARK VINA RESULT:      -6.5      0.000      0.000
REMARK  Name = 38029159
REMARK  14 active torsions:
REMARK  status: ('A' for Active; 'I' for Inactive)
REMARK    1  A    between atoms: N_3  and  C_14
REMARK    2  A    between atoms: N_4  and  C_21
REMARK    3  A    between atoms: N_4  and  C_22
REMARK    4  A    between atoms: N_5  and  C_23
REMARK    5  A    between atoms: C_7  and  C_11
REMARK    6  A    between atoms: C_8  and  C_14
REMARK    7  A    between atoms: C_10  and  C_15
REMARK    8  A    between atoms: C_11  and  C_16
REMARK    9  A    between atoms: C_11  and  C_17
REMARK   10  A    between atoms: C_12  and  C_18
REMARK   11  A    between atoms: C_15  and  C_19
REMARK   12  A    between atoms: C_21  and  C_24
REMARK   13  A    between atoms: C_23  and  C_25
REMARK   14  A    between atoms: C_23  and  C_26
REMARK                            x       y       z     vdW  Elec       q    Type
REMARK                         _______ _______ _______ _____ _____    ______ ____
ROOT
ATOM      7  C   UNL     1     -15.523   1.552  29.723  0.00  0.00    +0.000 C 
ATOM      8  C   UNL     1     -16.849   1.557  28.922  0.00  0.00    +0.032 C 
ATOM      9  C   UNL     1     -15.753   2.095  31.142  0.00  0.00    +0.012 C 
ATOM     10  C   UNL     1     -16.312   3.530  31.132  0.00  0.00    +0.023 C 
ATOM     12  C   UNL     1     -17.461   3.681  30.156  0.00  0.00    -0.073 C 
ATOM     13  C   UNL     1     -17.693   2.782  29.183  0.00  0.00    -0.022 C 
ATOM     18  C   UNL     1     -18.366   4.866  30.352  0.00  0.00    +0.039 C 
ENDROOT
BRANCH   7  11
ATOM     11  C   UNL     1     -14.910   0.151  29.798  0.00  0.00    -0.013 C 
ATOM     16  C   UNL     1     -13.391   0.241  29.915  0.00  0.00    +0.007 C 
ATOM     17  C   UNL     1     -15.497  -0.626  30.973  0.00  0.00    +0.007 C 
ENDBRANCH   7  11
BRANCH   8  14
ATOM     14  C   UNL     1     -16.585   1.431  27.417  0.00  0.00    +0.113 C 
BRANCH  14   3
ATOM      2  O   UNL     1     -16.318   2.079  24.618  0.00  0.00    -0.253 OA
ATOM      3  N   UNL     1     -16.224   2.695  26.856  0.00  0.00    -0.299 N 
ATOM      5  N   UNL     1     -15.748   4.249  25.211  0.00  0.00    -0.297 N 
ATOM     20  C   UNL     1     -16.114   2.932  25.480  0.00  0.00    +0.300 C 
ATOM     31  H   UNL     1     -16.103   3.486  27.482  0.00  0.00    +0.150 HD
ATOM     32  H   UNL     1     -15.525   4.857  25.993  0.00  0.00    +0.150 HD
BRANCH   5  23
ATOM     23  C   UNL     1     -15.567   4.752  23.870  0.00  0.00    +0.068 C 
ATOM     25  C   UNL     1     -14.084   4.893  23.553  0.00  0.00    +0.027 C 
ATOM     26  C   UNL     1     -16.299   6.077  23.692  0.00  0.00    +0.027 C 
ENDBRANCH   5  23
ENDBRANCH  14   3
ENDBRANCH   8  14
BRANCH  10  15
ATOM     15  C   UNL     1     -15.208   4.552  30.841  0.00  0.00    +0.103 C 
BRANCH  15  19
ATOM      1  O   UNL     1     -13.552   4.209  32.540  0.00  0.00    -0.276 OA
ATOM      4  N   UNL     1     -14.803   6.157  32.676  0.00  0.00    -0.300 N 
ATOM     19  C   UNL     1     -14.438   4.939  32.090  0.00  0.00    +0.216 C 
ATOM     22  C   UNL     1     -15.855   7.004  32.126  0.00  0.00    +0.132 C 
BRANCH   4  21
ATOM     21  C   UNL     1     -14.158   6.671  33.881  0.00  0.00    +0.144 C 
BRANCH  21  24
ATOM      6  N   UNL     1     -12.044   9.783  34.254  0.00  0.00    -0.263 NA
ATOM     24  C   UNL     1     -13.168   7.755  33.570  0.00  0.00    -0.012 A 
ATOM     27  C   UNL     1     -12.470   7.766  32.367  0.00  0.00    +0.008 A 
ATOM     28  C   UNL     1     -12.920   8.777  34.472  0.00  0.00    +0.115 A 
ATOM     29  C   UNL     1     -11.560   8.784  32.107  0.00  0.00    +0.020 A 
ATOM     30  C   UNL     1     -11.385   9.761  33.074  0.00  0.00    +0.111 A 
ENDBRANCH  21  24
ENDBRANCH   4  21
ENDBRANCH  15  19
ENDBRANCH  10  15
TORSDOF 8
ENDMDL
MODEL 2
REMARK VINA RESULT:      -6.4     33.215     37.207
REMARK  Name = 38029159
REMARK  14 active torsions:
REMARK  status: ('A' for Active; 'I' for Inactive)
REMARK    1  A    between atoms: N_3  and  C_14
REMARK    2  A    between atoms: N_4  and  C_21
REMARK    3  A    between atoms: N_4  and  C_22
REMARK    4  A    between atoms: N_5  and  C_23
REMARK    5  A    between atoms: C_7  and  C_11
REMARK    6  A    between atoms: C_8  and  C_14
REMARK    7  A    between atoms: C_10  and  C_15
REMARK    8  A    between atoms: C_11  and  C_16
REMARK    9  A    between atoms: C_11  and  C_17
REMARK   10  A    between atoms: C_12  and  C_18
REMARK   11  A    between atoms: C_15  and  C_19
REMARK   12  A    between atoms: C_21  and  C_24
REMARK   13  A    between atoms: C_23  and  C_25
REMARK   14  A    between atoms: C_23  and  C_26
REMARK                            x       y       z     vdW  Elec       q    Type
REMARK                         _______ _______ _______ _____ _____    ______ ____
ROOT
ATOM      7  C   UNL     1       9.270   8.391   5.804  0.00  0.00    +0.000 C 
ATOM      8  C   UNL     1       9.012   8.727   7.294  0.00  0.00    +0.032 C 
ATOM      9  C   UNL     1       8.688   7.013   5.457  0.00  0.00    +0.012 C 
ATOM     10  C   UNL     1       9.291   5.891   6.322  0.00  0.00    +0.023 C 
ATOM     12  C   UNL     1       9.317   6.264   7.791  0.00  0.00    -0.073 C 
ATOM     13  C   UNL     1       9.178   7.535   8.206  0.00  0.00    -0.022 C 
ATOM     18  C   UNL     1       9.463   5.136   8.774  0.00  0.00    +0.039 C 
ENDROOT
BRANCH   7  11
ATOM     11  C   UNL     1       8.680   9.453   4.871  0.00  0.00    -0.013 C 
ATOM     16  C   UNL     1       9.735   9.936   3.879  0.00  0.00    +0.007 C 
ATOM     17  C   UNL     1       7.462   8.900   4.138  0.00  0.00    +0.007 C 
ENDBRANCH   7  11
BRANCH   8  14
ATOM     14  C   UNL     1       9.923   9.865   7.769  0.00  0.00    +0.113 C 
BRANCH  14   3
ATOM      2  O   UNL     1      12.011  11.054   6.172  0.00  0.00    -0.253 OA
ATOM      3  N   UNL     1      11.296   9.472   7.717  0.00  0.00    -0.299 N 
ATOM      5  N   UNL     1      13.512   9.518   7.054  0.00  0.00    -0.297 N 
ATOM     20  C   UNL     1      12.255  10.102   6.912  0.00  0.00    +0.300 C 
ATOM     31  H   UNL     1      11.615   8.740   8.344  0.00  0.00    +0.150 HD
ATOM     32  H   UNL     1      13.594   8.686   7.630  0.00  0.00    +0.150 HD
BRANCH   5  23
ATOM     23  C   UNL     1      14.674   9.980   6.334  0.00  0.00    +0.068 C 
ATOM     25  C   UNL     1      15.653   8.834   6.117  0.00  0.00    +0.027 C 
ATOM     26  C   UNL     1      15.334  11.140   7.070  0.00  0.00    +0.027 C 
ENDBRANCH   5  23
ENDBRANCH  14   3
ENDBRANCH   8  14
BRANCH  10  15
ATOM     15  C   UNL     1      10.690   5.505   5.829  0.00  0.00    +0.103 C 
BRANCH  15  19
ATOM      1  O   UNL     1      10.065   4.571   3.712  0.00  0.00    -0.276 OA
ATOM      4  N   UNL     1      11.639   6.274   3.681  0.00  0.00    -0.300 N 
ATOM     19  C   UNL     1      10.757   5.394   4.317  0.00  0.00    +0.216 C 
ATOM     22  C   UNL     1      12.447   7.239   4.418  0.00  0.00    +0.132 C 
BRANCH   4  21
ATOM     21  C   UNL     1      11.818   6.293   2.232  0.00  0.00    +0.144 C 
BRANCH  21  24
ATOM      6  N   UNL     1      15.273   5.350   1.019  0.00  0.00    -0.263 NA
ATOM     24  C   UNL     1      12.987   5.457   1.799  0.00  0.00    -0.012 A 
ATOM     27  C   UNL     1      12.904   4.069   1.766  0.00  0.00    +0.008 A 
ATOM     28  C   UNL     1      14.184   6.043   1.419  0.00  0.00    +0.115 A 
ATOM     29  C   UNL     1      14.003   3.322   1.360  0.00  0.00    +0.020 A 
ATOM     30  C   UNL     1      15.154   4.004   0.999  0.00  0.00    +0.111 A 
ENDBRANCH  21  24
ENDBRANCH   4  21
ENDBRANCH  15  19
ENDBRANCH  10  15
TORSDOF 8
ENDMDL
MODEL 3
REMARK VINA RESULT:      -6.4     19.034     22.500
REMARK  Name = 38029159
REMARK  14 active torsions:
REMARK  status: ('A' for Active; 'I' for Inactive)
REMARK    1  A    between atoms: N_3  and  C_14
REMARK    2  A    between atoms: N_4  and  C_21
REMARK    3  A    between atoms: N_4  and  C_22
REMARK    4  A    between atoms: N_5  and  C_23
REMARK    5  A    between atoms: C_7  and  C_11
REMARK    6  A    between atoms: C_8  and  C_14
REMARK    7  A    between atoms: C_10  and  C_15
REMARK    8  A    between atoms: C_11  and  C_16
REMARK    9  A    between atoms: C_11  and  C_17
REMARK   10  A    between atoms: C_12  and  C_18
REMARK   11  A    between atoms: C_15  and  C_19
REMARK   12  A    between atoms: C_21  and  C_24
REMARK   13  A    between atoms: C_23  and  C_25
REMARK   14  A    between atoms: C_23  and  C_26
REMARK                            x       y       z     vdW  Elec       q    Type
REMARK                         _______ _______ _______ _____ _____    ______ ____
ROOT
ATOM      7  C   UNL     1      -7.751 -10.216  16.259  0.00  0.00    +0.000 C 
ATOM      8  C   UNL     1      -6.847  -9.833  15.061  0.00  0.00    +0.032 C 
ATOM      9  C   UNL     1      -7.078  -9.827  17.584  0.00  0.00    +0.012 C 
ATOM     10  C   UNL     1      -5.711 -10.512  17.766  0.00  0.00    +0.023 C 
ATOM     12  C   UNL     1      -4.858 -10.407  16.518  0.00  0.00    -0.073 C 
ATOM     13  C   UNL     1      -5.381 -10.090  15.320  0.00  0.00    -0.022 C 
ATOM     18  C   UNL     1      -3.381 -10.632  16.686  0.00  0.00    +0.039 C 
ENDROOT
BRANCH   7  11
ATOM     11  C   UNL     1      -9.130  -9.556  16.165  0.00  0.00    -0.013 C 
ATOM     16  C   UNL     1     -10.231 -10.592  16.367  0.00  0.00    +0.007 C 
ATOM     17  C   UNL     1      -9.252  -8.430  17.187  0.00  0.00    +0.007 C 
ENDBRANCH   7  11
BRANCH   8  14
ATOM     14  C   UNL     1      -7.277 -10.569  13.787  0.00  0.00    +0.113 C 
BRANCH  14   3
ATOM      2  O   UNL     1      -5.182 -11.533  12.052  0.00  0.00    -0.253 OA
ATOM      3  N   UNL     1      -6.754  -9.921  12.625  0.00  0.00    -0.299 N 
ATOM      5  N   UNL     1      -5.416  -9.618  10.763  0.00  0.00    -0.297 N 
ATOM     20  C   UNL     1      -5.731 -10.456  11.831  0.00  0.00    +0.300 C 
ATOM     31  H   UNL     1      -7.189  -9.057  12.315  0.00  0.00    +0.150 HD
ATOM     32  H   UNL     1      -5.871  -8.712  10.710  0.00  0.00    +0.150 HD
BRANCH   5  23
ATOM     23  C   UNL     1      -4.394  -9.937   9.795  0.00  0.00    +0.068 C 
ATOM     25  C   UNL     1      -3.083  -9.255  10.163  0.00  0.00    +0.027 C 
ATOM     26  C   UNL     1      -4.846  -9.546   8.392  0.00  0.00    +0.027 C 
ENDBRANCH   5  23
ENDBRANCH  14   3
ENDBRANCH   8  14
BRANCH  10  15
ATOM     15  C   UNL     1      -5.878 -11.974  18.195  0.00  0.00    +0.103 C 
BRANCH  15  19
ATOM      1  O   UNL     1      -6.521 -11.576  20.470  0.00  0.00    -0.276 OA
ATOM      4  N   UNL     1      -7.940 -12.896  19.196  0.00  0.00    -0.300 N 
ATOM     19  C   UNL     1      -6.794 -12.119  19.396  0.00  0.00    +0.216 C 
ATOM     22  C   UNL     1      -8.242 -13.529  17.917  0.00  0.00    +0.132 C 
BRANCH   4  21
ATOM     21  C   UNL     1      -8.921 -13.132  20.252  0.00  0.00    +0.144 C 
BRANCH  21  24
ATOM      6  N   UNL     1     -12.528 -12.068  19.859  0.00  0.00    -0.263 NA
ATOM     24  C   UNL     1     -10.130 -12.254  20.102  0.00  0.00    -0.012 A 
ATOM     27  C   UNL     1     -10.011 -10.870  20.063  0.00  0.00    +0.008 A 
ATOM     28  C   UNL     1     -11.400 -12.799  19.997  0.00  0.00    +0.115 A 
ATOM     29  C   UNL     1     -11.149 -10.083  19.922  0.00  0.00    +0.020 A 
ATOM     30  C   UNL     1     -12.373 -10.725  19.825  0.00  0.00    +0.111 A 
ENDBRANCH  21  24
ENDBRANCH   4  21
ENDBRANCH  15  19
ENDBRANCH  10  15
TORSDOF 8
ENDMDL
MODEL 4
REMARK VINA RESULT:      -6.3     31.269     36.226
REMARK  Name = 38029159
REMARK  14 active torsions:
REMARK  status: ('A' for Active; 'I' for Inactive)
REMARK    1  A    between atoms: N_3  and  C_14
REMARK    2  A    between atoms: N_4  and  C_21
REMARK    3  A    between atoms: N_4  and  C_22
REMARK    4  A    between atoms: N_5  and  C_23
REMARK    5  A    between atoms: C_7  and  C_11
REMARK    6  A    between atoms: C_8  and  C_14
REMARK    7  A    between atoms: C_10  and  C_15
REMARK    8  A    between atoms: C_11  and  C_16
REMARK    9  A    between atoms: C_11  and  C_17
REMARK   10  A    between atoms: C_12  and  C_18
REMARK   11  A    between atoms: C_15  and  C_19
REMARK   12  A    between atoms: C_21  and  C_24
REMARK   13  A    between atoms: C_23  and  C_25
REMARK   14  A    between atoms: C_23  and  C_26
REMARK                            x       y       z     vdW  Elec       q    Type
REMARK                         _______ _______ _______ _____ _____    ______ ____
ROOT
ATOM      7  C   UNL     1       9.072   8.836   5.985  0.00  0.00    +0.000 C 
ATOM      8  C   UNL     1       9.012   8.737   7.530  0.00  0.00    +0.032 C 
ATOM      9  C   UNL     1       8.457   7.582   5.344  0.00  0.00    +0.012 C 
ATOM     10  C   UNL     1       9.176   6.292   5.780  0.00  0.00    +0.023 C 
ATOM     12  C   UNL     1       9.395   6.247   7.279  0.00  0.00    -0.073 C 
ATOM     13  C   UNL     1       9.304   7.348   8.046  0.00  0.00    -0.022 C 
ATOM     18  C   UNL     1       9.676   4.899   7.882  0.00  0.00    +0.039 C 
ENDROOT
BRANCH   7  11
ATOM     11  C   UNL     1       8.357  10.087   5.467  0.00  0.00    -0.013 C 
ATOM     16  C   UNL     1       9.340  10.998   4.737  0.00  0.00    +0.007 C 
ATOM     17  C   UNL     1       7.199   9.698   4.553  0.00  0.00    +0.007 C 
ENDBRANCH   7  11
BRANCH   8  14
ATOM     14  C   UNL     1       9.972   9.737   8.185  0.00  0.00    +0.113 C 
BRANCH  14   3
ATOM      2  O   UNL     1      11.142  11.468  10.176  0.00  0.00    -0.253 OA
ATOM      3  N   UNL     1       9.278  10.573   9.114  0.00  0.00    -0.299 N 
ATOM      5  N   UNL     1       9.007  12.096  10.834  0.00  0.00    -0.297 N 
ATOM     20  C   UNL     1       9.920  11.389  10.056  0.00  0.00    +0.300 C 
ATOM     31  H   UNL     1       8.267  10.634   9.050  0.00  0.00    +0.150 HD
ATOM     32  H   UNL     1       8.017  11.902  10.711  0.00  0.00    +0.150 HD
BRANCH   5  23
ATOM     23  C   UNL     1       9.410  13.007  11.878  0.00  0.00    +0.068 C 
ATOM     25  C   UNL     1       8.969  12.482  13.238  0.00  0.00    +0.027 C 
ATOM     26  C   UNL     1       8.852  14.401  11.617  0.00  0.00    +0.027 C 
ENDBRANCH   5  23
ENDBRANCH  14   3
ENDBRANCH   8  14
BRANCH  10  15
ATOM     15  C   UNL     1      10.499   6.117   5.027  0.00  0.00    +0.103 C 
BRANCH  15  19
ATOM      1  O   UNL     1      10.474   3.770   4.536  0.00  0.00    -0.276 OA
ATOM      4  N   UNL     1      10.453   5.218   2.725  0.00  0.00    -0.300 N 
ATOM     19  C   UNL     1      10.475   4.921   4.092  0.00  0.00    +0.216 C 
ATOM     22  C   UNL     1      10.454   6.588   2.223  0.00  0.00    +0.132 C 
BRANCH   4  21
ATOM     21  C   UNL     1      10.428   4.181   1.698  0.00  0.00    +0.144 C 
BRANCH  21  24
ATOM      6  N   UNL     1      13.073   4.210  -1.004  0.00  0.00    -0.263 NA
ATOM     24  C   UNL     1      11.757   4.032   1.017  0.00  0.00    -0.012 A 
ATOM     27  C   UNL     1      12.878   3.597   1.716  0.00  0.00    +0.008 A 
ATOM     28  C   UNL     1      11.907   4.323  -0.330  0.00  0.00    +0.115 A 
ATOM     29  C   UNL     1      14.095   3.469   1.057  0.00  0.00    +0.020 A 
ATOM     30  C   UNL     1      14.139   3.784  -0.291  0.00  0.00    +0.111 A 
ENDBRANCH  21  24
ENDBRANCH   4  21
ENDBRANCH  15  19
ENDBRANCH  10  15
TORSDOF 8
ENDMDL
MODEL 5
REMARK VINA RESULT:      -6.3     22.317     27.122
REMARK  Name = 38029159
REMARK  14 active torsions:
REMARK  status: ('A' for Active; 'I' for Inactive)
REMARK    1  A    between atoms: N_3  and  C_14
REMARK    2  A    between atoms: N_4  and  C_21
REMARK    3  A    between atoms: N_4  and  C_22
REMARK    4  A    between atoms: N_5  and  C_23
REMARK    5  A    between atoms: C_7  and  C_11
REMARK    6  A    between atoms: C_8  and  C_14
REMARK    7  A    between atoms: C_10  and  C_15
REMARK    8  A    between atoms: C_11  and  C_16
REMARK    9  A    between atoms: C_11  and  C_17
REMARK   10  A    between atoms: C_12  and  C_18
REMARK   11  A    between atoms: C_15  and  C_19
REMARK   12  A    between atoms: C_21  and  C_24
REMARK   13  A    between atoms: C_23  and  C_25
REMARK   14  A    between atoms: C_23  and  C_26
REMARK                            x       y       z     vdW  Elec       q    Type
REMARK                         _______ _______ _______ _____ _____    ______ ____
ROOT
ATOM      7  C   UNL     1      -2.997 -12.230  12.547  0.00  0.00    +0.000 C 
ATOM      8  C   UNL     1      -1.993 -11.054  12.457  0.00  0.00    +0.032 C 
ATOM      9  C   UNL     1      -3.502 -12.612  11.147  0.00  0.00    +0.012 C 
ATOM     10  C   UNL     1      -4.193 -11.432  10.436  0.00  0.00    +0.023 C 
ATOM     12  C   UNL     1      -3.379 -10.158  10.538  0.00  0.00    -0.073 C 
ATOM     13  C   UNL     1      -2.391 -10.013  11.439  0.00  0.00    -0.022 C 
ATOM     18  C   UNL     1      -3.697  -9.070   9.550  0.00  0.00    +0.039 C 
ENDROOT
BRANCH   7  11
ATOM     11  C   UNL     1      -2.379 -13.456  13.226  0.00  0.00    -0.013 C 
ATOM     16  C   UNL     1      -3.219 -13.880  14.427  0.00  0.00    +0.007 C 
ATOM     17  C   UNL     1      -2.241 -14.604  12.230  0.00  0.00    +0.007 C 
ENDBRANCH   7  11
BRANCH   8  14
ATOM     14  C   UNL     1      -1.802 -10.386  13.823  0.00  0.00    +0.113 C 
BRANCH  14   3
ATOM      2  O   UNL     1      -2.089 -10.939  16.641  0.00  0.00    -0.253 OA
ATOM      3  N   UNL     1      -3.016 -10.412  14.576  0.00  0.00    -0.299 N 
ATOM      5  N   UNL     1      -4.382 -10.650  16.427  0.00  0.00    -0.297 N 
ATOM     20  C   UNL     1      -3.075 -10.691  15.948  0.00  0.00    +0.300 C 
ATOM     31  H   UNL     1      -3.880 -10.151  14.111  0.00  0.00    +0.150 HD
ATOM     32  H   UNL     1      -5.136 -10.514  15.761  0.00  0.00    +0.150 HD
BRANCH   5  23
ATOM     23  C   UNL     1      -4.716 -10.902  17.809  0.00  0.00    +0.068 C 
ATOM     25  C   UNL     1      -4.648 -12.394  18.107  0.00  0.00    +0.027 C 
ATOM     26  C   UNL     1      -6.092 -10.335  18.138  0.00  0.00    +0.027 C 
ENDBRANCH   5  23
ENDBRANCH  14   3
ENDBRANCH   8  14
BRANCH  10  15
ATOM     15  C   UNL     1      -5.613 -11.221  10.971  0.00  0.00    +0.103 C 
BRANCH  15  19
ATOM      1  O   UNL     1      -6.790 -12.447   9.281  0.00  0.00    -0.276 OA
ATOM      4  N   UNL     1      -7.460 -10.256   9.642  0.00  0.00    -0.300 N 
ATOM     19  C   UNL     1      -6.665 -11.381   9.889  0.00  0.00    +0.216 C 
ATOM     22  C   UNL     1      -7.293  -9.006  10.374  0.00  0.00    +0.132 C 
BRANCH   4  21
ATOM     21  C   UNL     1      -8.516 -10.249   8.633  0.00  0.00    +0.144 C 
BRANCH  21  24
ATOM      6  N   UNL     1      -8.379  -7.665   5.875  0.00  0.00    -0.263 NA
ATOM     24  C   UNL     1      -8.093  -9.535   7.382  0.00  0.00    -0.012 A 
ATOM     27  C   UNL     1      -7.071 -10.033   6.581  0.00  0.00    +0.008 A 
ATOM     28  C   UNL     1      -8.709  -8.358   6.988  0.00  0.00    +0.115 A 
ATOM     29  C   UNL     1      -6.703  -9.349   5.429  0.00  0.00    +0.020 A 
ATOM     30  C   UNL     1      -7.382  -8.181   5.122  0.00  0.00    +0.111 A 
ENDBRANCH  21  24
ENDBRANCH   4  21
ENDBRANCH  15  19
ENDBRANCH  10  15
TORSDOF 8
ENDMDL
MODEL 6
REMARK VINA RESULT:      -6.2      8.668     12.189
REMARK  Name = 38029159
REMARK  14 active torsions:
REMARK  status: ('A' for Active; 'I' for Inactive)
REMARK    1  A    between atoms: N_3  and  C_14
REMARK    2  A    between atoms: N_4  and  C_21
REMARK    3  A    between atoms: N_4  and  C_22
REMARK    4  A    between atoms: N_5  and  C_23
REMARK    5  A    between atoms: C_7  and  C_11
REMARK    6  A    between atoms: C_8  and  C_14
REMARK    7  A    between atoms: C_10  and  C_15
REMARK    8  A    between atoms: C_11  and  C_16
REMARK    9  A    between atoms: C_11  and  C_17
REMARK   10  A    between atoms: C_12  and  C_18
REMARK   11  A    between atoms: C_15  and  C_19
REMARK   12  A    between atoms: C_21  and  C_24
REMARK   13  A    between atoms: C_23  and  C_25
REMARK   14  A    between atoms: C_23  and  C_26
REMARK                            x       y       z     vdW  Elec       q    Type
REMARK                         _______ _______ _______ _____ _____    ______ ____
ROOT
ATOM      7  C   UNL     1     -12.610   9.024  20.533  0.00  0.00    +0.000 C 
ATOM      8  C   UNL     1     -11.585   7.865  20.458  0.00  0.00    +0.032 C 
ATOM      9  C   UNL     1     -13.456   8.910  21.810  0.00  0.00    +0.012 C 
ATOM     10  C   UNL     1     -14.222   7.575  21.884  0.00  0.00    +0.023 C 
ATOM     12  C   UNL     1     -13.331   6.395  21.556  0.00  0.00    -0.073 C 
ATOM     13  C   UNL     1     -12.150   6.545  20.930  0.00  0.00    -0.022 C 
ATOM     18  C   UNL     1     -13.807   5.041  22.003  0.00  0.00    +0.039 C 
ENDROOT
BRANCH   7  11
ATOM     11  C   UNL     1     -11.925  10.393  20.487  0.00  0.00    -0.013 C 
ATOM     16  C   UNL     1     -12.379  11.174  19.257  0.00  0.00    +0.007 C 
ATOM     17  C   UNL     1     -12.214  11.177  21.763  0.00  0.00    +0.007 C 
ENDBRANCH   7  11
BRANCH   8  14
ATOM     14  C   UNL     1     -11.034   7.705  19.037  0.00  0.00    +0.113 C 
BRANCH  14   3
ATOM      2  O   UNL     1     -11.196   9.013  16.470  0.00  0.00    -0.253 OA
ATOM      3  N   UNL     1     -12.098   7.610  18.087  0.00  0.00    -0.299 N 
ATOM      5  N   UNL     1     -13.260   8.009  16.127  0.00  0.00    -0.297 N 
ATOM     20  C   UNL     1     -12.104   8.279  16.856  0.00  0.00    +0.300 C 
ATOM     31  H   UNL     1     -12.864   6.972  18.280  0.00  0.00    +0.150 HD
ATOM     32  H   UNL     1     -13.987   7.453  16.566  0.00  0.00    +0.150 HD
BRANCH   5  23
ATOM     23  C   UNL     1     -13.513   8.576  14.825  0.00  0.00    +0.068 C 
ATOM     25  C   UNL     1     -14.989   8.918  14.672  0.00  0.00    +0.027 C 
ATOM     26  C   UNL     1     -13.050   7.624  13.728  0.00  0.00    +0.027 C 
ENDBRANCH   5  23
ENDBRANCH  14   3
ENDBRANCH   8  14
BRANCH  10  15
ATOM     15  C   UNL     1     -15.459   7.598  20.979  0.00  0.00    +0.103 C 
BRANCH  15  19
ATOM      1  O   UNL     1     -17.025   7.414  22.785  0.00  0.00    -0.276 OA
ATOM      4  N   UNL     1     -17.377   6.040  20.949  0.00  0.00    -0.300 N 
ATOM     19  C   UNL     1     -16.684   7.022  21.666  0.00  0.00    +0.216 C 
ATOM     22  C   UNL     1     -16.955   5.593  19.627  0.00  0.00    +0.132 C 
BRANCH   4  21
ATOM     21  C   UNL     1     -18.576   5.389  21.471  0.00  0.00    +0.144 C 
BRANCH  21  24
ATOM      6  N   UNL     1     -16.984   2.302  22.965  0.00  0.00    -0.263 NA
ATOM     24  C   UNL     1     -18.329   3.949  21.814  0.00  0.00    -0.012 A 
ATOM     27  C   UNL     1     -19.159   2.943  21.330  0.00  0.00    +0.008 A 
ATOM     28  C   UNL     1     -17.264   3.578  22.620  0.00  0.00    +0.115 A 
ATOM     29  C   UNL     1     -18.904   1.618  21.664  0.00  0.00    +0.020 A 
ATOM     30  C   UNL     1     -17.813   1.352  22.477  0.00  0.00    +0.111 A 
ENDBRANCH  21  24
ENDBRANCH   4  21
ENDBRANCH  15  19
ENDBRANCH  10  15
TORSDOF 8
ENDMDL
MODEL 7
REMARK VINA RESULT:      -6.2     21.017     25.482
REMARK  Name = 38029159
REMARK  14 active torsions:
REMARK  status: ('A' for Active; 'I' for Inactive)
REMARK    1  A    between atoms: N_3  and  C_14
REMARK    2  A    between atoms: N_4  and  C_21
REMARK    3  A    between atoms: N_4  and  C_22
REMARK    4  A    between atoms: N_5  and  C_23
REMARK    5  A    between atoms: C_7  and  C_11
REMARK    6  A    between atoms: C_8  and  C_14
REMARK    7  A    between atoms: C_10  and  C_15
REMARK    8  A    between atoms: C_11  and  C_16
REMARK    9  A    between atoms: C_11  and  C_17
REMARK   10  A    between atoms: C_12  and  C_18
REMARK   11  A    between atoms: C_15  and  C_19
REMARK   12  A    between atoms: C_21  and  C_24
REMARK   13  A    between atoms: C_23  and  C_25
REMARK   14  A    between atoms: C_23  and  C_26
REMARK                            x       y       z     vdW  Elec       q    Type
REMARK                         _______ _______ _______ _____ _____    ______ ____
ROOT
ATOM      7  C   UNL     1      -4.935 -12.228  15.972  0.00  0.00    +0.000 C 
ATOM      8  C   UNL     1      -4.139 -11.689  17.186  0.00  0.00    +0.032 C 
ATOM      9  C   UNL     1      -3.978 -12.639  14.842  0.00  0.00    +0.012 C 
ATOM     10  C   UNL     1      -3.099 -11.467  14.369  0.00  0.00    +0.023 C 
ATOM     12  C   UNL     1      -2.487 -10.715  15.533  0.00  0.00    -0.073 C 
ATOM     13  C   UNL     1      -2.957 -10.837  16.787  0.00  0.00    -0.022 C 
ATOM     18  C   UNL     1      -1.294  -9.852  15.230  0.00  0.00    +0.039 C 
ENDROOT
BRANCH   7  11
ATOM     11  C   UNL     1      -5.824 -13.414  16.356  0.00  0.00    -0.013 C 
ATOM     16  C   UNL     1      -6.880 -13.658  15.281  0.00  0.00    +0.007 C 
ATOM     17  C   UNL     1      -4.978 -14.665  16.576  0.00  0.00    +0.007 C 
ENDBRANCH   7  11
BRANCH   8  14
ATOM     14  C   UNL     1      -5.045 -10.895  18.133  0.00  0.00    +0.113 C 
BRANCH  14   3
ATOM      2  O   UNL     1      -7.928 -10.935  18.020  0.00  0.00    -0.253 OA
ATOM      3  N   UNL     1      -5.891 -10.006  17.400  0.00  0.00    -0.299 N 
ATOM      5  N   UNL     1      -7.864  -9.102  16.598  0.00  0.00    -0.297 N 
ATOM     20  C   UNL     1      -7.290 -10.090  17.395  0.00  0.00    +0.300 C 
ATOM     31  H   UNL     1      -5.464  -9.228  16.906  0.00  0.00    +0.150 HD
ATOM     32  H   UNL     1      -7.249  -8.500  16.059  0.00  0.00    +0.150 HD
BRANCH   5  23
ATOM     23  C   UNL     1      -9.290  -8.970  16.423  0.00  0.00    +0.068 C 
ATOM     25  C   UNL     1      -9.625  -8.749  14.954  0.00  0.00    +0.027 C 
ATOM     26  C   UNL     1      -9.834  -7.841  17.290  0.00  0.00    +0.027 C 
ENDBRANCH   5  23
ENDBRANCH  14   3
ENDBRANCH   8  14
BRANCH  10  15
ATOM     15  C   UNL     1      -3.885 -10.521  13.456  0.00  0.00    +0.103 C 
BRANCH  15  19
ATOM      1  O   UNL     1      -2.176 -10.922  11.823  0.00  0.00    -0.276 OA
ATOM      4  N   UNL     1      -4.037  -9.731  11.119  0.00  0.00    -0.300 N 
ATOM     19  C   UNL     1      -3.276 -10.419  12.069  0.00  0.00    +0.216 C 
ATOM     22  C   UNL     1      -5.336  -9.145  11.433  0.00  0.00    +0.132 C 
BRANCH   4  21
ATOM     21  C   UNL     1      -3.590  -9.547   9.741  0.00  0.00    +0.144 C 
BRANCH  21  24
ATOM      6  N   UNL     1      -5.151 -12.528   8.014  0.00  0.00    -0.263 NA
ATOM     24  C   UNL     1      -4.405 -10.357   8.773  0.00  0.00    -0.012 A 
ATOM     27  C   UNL     1      -5.145  -9.743   7.769  0.00  0.00    +0.008 A 
ATOM     28  C   UNL     1      -4.441 -11.740   8.852  0.00  0.00    +0.115 A 
ATOM     29  C   UNL     1      -5.889 -10.520   6.888  0.00  0.00    +0.020 A 
ATOM     30  C   UNL     1      -5.858 -11.896   7.051  0.00  0.00    +0.111 A 
ENDBRANCH  21  24
ENDBRANCH   4  21
ENDBRANCH  15  19
ENDBRANCH  10  15
TORSDOF 8
ENDMDL
MODEL 8
REMARK VINA RESULT:      -6.2     20.915     25.677
REMARK  Name = 38029159
REMARK  14 active torsions:
REMARK  status: ('A' for Active; 'I' for Inactive)
REMARK    1  A    between atoms: N_3  and  C_14
REMARK    2  A    between atoms: N_4  and  C_21
REMARK    3  A    between atoms: N_4  and  C_22
REMARK    4  A    between atoms: N_5  and  C_23
REMARK    5  A    between atoms: C_7  and  C_11
REMARK    6  A    between atoms: C_8  and  C_14
REMARK    7  A    between atoms: C_10  and  C_15
REMARK    8  A    between atoms: C_11  and  C_16
REMARK    9  A    between atoms: C_11  and  C_17
REMARK   10  A    between atoms: C_12  and  C_18
REMARK   11  A    between atoms: C_15  and  C_19
REMARK   12  A    between atoms: C_21  and  C_24
REMARK   13  A    between atoms: C_23  and  C_25
REMARK   14  A    between atoms: C_23  and  C_26
REMARK                            x       y       z     vdW  Elec       q    Type
REMARK                         _______ _______ _______ _____ _____    ______ ____
ROOT
ATOM      7  C   UNL     1      -4.107 -11.364  12.727  0.00  0.00    +0.000 C 
ATOM      8  C   UNL     1      -2.793 -11.243  13.540  0.00  0.00    +0.032 C 
ATOM      9  C   UNL     1      -3.802 -11.440  11.223  0.00  0.00    +0.012 C 
ATOM     10  C   UNL     1      -3.029 -10.206  10.723  0.00  0.00    +0.023 C 
ATOM     12  C   UNL     1      -1.867  -9.861  11.632  0.00  0.00    -0.073 C 
ATOM     13  C   UNL     1      -1.772 -10.345  12.883  0.00  0.00    -0.022 C 
ATOM     18  C   UNL     1      -0.792  -8.982  11.054  0.00  0.00    +0.039 C 
ENDROOT
BRANCH   7  11
ATOM     11  C   UNL     1      -4.928 -12.584  13.152  0.00  0.00    -0.013 C 
ATOM     16  C   UNL     1      -6.181 -12.709  12.290  0.00  0.00    +0.007 C 
ATOM     17  C   UNL     1      -4.083 -13.852  13.065  0.00  0.00    +0.007 C 
ENDBRANCH   7  11
BRANCH   8  14
ATOM     14  C   UNL     1      -3.068 -10.748  14.964  0.00  0.00    +0.113 C 
BRANCH  14   3
ATOM      2  O   UNL     1      -4.593 -10.538  17.405  0.00  0.00    -0.253 OA
ATOM      3  N   UNL     1      -4.424 -10.315  15.098  0.00  0.00    -0.299 N 
ATOM      5  N   UNL     1      -6.406  -9.787  16.167  0.00  0.00    -0.297 N 
ATOM     20  C   UNL     1      -5.098 -10.240  16.324  0.00  0.00    +0.300 C 
ATOM     31  H   UNL     1      -4.909  -9.978  14.272  0.00  0.00    +0.150 HD
ATOM     32  H   UNL     1      -6.756  -9.642  15.225  0.00  0.00    +0.150 HD
BRANCH   5  23
ATOM     23  C   UNL     1      -7.315  -9.621  17.276  0.00  0.00    +0.068 C 
ATOM     25  C   UNL     1      -7.784 -10.978  17.785  0.00  0.00    +0.027 C 
ATOM     26  C   UNL     1      -8.494  -8.744  16.875  0.00  0.00    +0.027 C 
ENDBRANCH   5  23
ENDBRANCH  14   3
ENDBRANCH   8  14
BRANCH  10  15
ATOM     15  C   UNL     1      -3.963  -9.004  10.546  0.00  0.00    +0.103 C 
BRANCH  15  19
ATOM      1  O   UNL     1      -4.805  -9.509   8.359  0.00  0.00    -0.276 OA
ATOM      4  N   UNL     1      -6.372  -9.246  10.049  0.00  0.00    -0.300 N 
ATOM     19  C   UNL     1      -5.068  -9.277   9.542  0.00  0.00    +0.216 C 
ATOM     22  C   UNL     1      -6.658  -8.970  11.452  0.00  0.00    +0.132 C 
BRANCH   4  21
ATOM     21  C   UNL     1      -7.544  -9.488   9.212  0.00  0.00    +0.144 C 
BRANCH  21  24
ATOM      6  N   UNL     1     -10.428  -7.042   9.213  0.00  0.00    -0.263 NA
ATOM     24  C   UNL     1      -8.337  -8.235   8.980  0.00  0.00    -0.012 A 
ATOM     27  C   UNL     1      -7.772  -7.135   8.346  0.00  0.00    +0.008 A 
ATOM     28  C   UNL     1      -9.657  -8.139   9.391  0.00  0.00    +0.115 A 
ATOM     29  C   UNL     1      -8.532  -5.988   8.145  0.00  0.00    +0.020 A 
ATOM     30  C   UNL     1      -9.844  -5.993   8.592  0.00  0.00    +0.111 A 
ENDBRANCH  21  24
ENDBRANCH   4  21
ENDBRANCH  15  19
ENDBRANCH  10  15
TORSDOF 8
ENDMDL
MODEL 9
REMARK VINA RESULT:      -6.1     32.194     34.902
REMARK  Name = 38029159
REMARK  14 active torsions:
REMARK  status: ('A' for Active; 'I' for Inactive)
REMARK    1  A    between atoms: N_3  and  C_14
REMARK    2  A    between atoms: N_4  and  C_21
REMARK    3  A    between atoms: N_4  and  C_22
REMARK    4  A    between atoms: N_5  and  C_23
REMARK    5  A    between atoms: C_7  and  C_11
REMARK    6  A    between atoms: C_8  and  C_14
REMARK    7  A    between atoms: C_10  and  C_15
REMARK    8  A    between atoms: C_11  and  C_16
REMARK    9  A    between atoms: C_11  and  C_17
REMARK   10  A    between atoms: C_12  and  C_18
REMARK   11  A    between atoms: C_15  and  C_19
REMARK   12  A    between atoms: C_21  and  C_24
REMARK   13  A    between atoms: C_23  and  C_25
REMARK   14  A    between atoms: C_23  and  C_26
REMARK                            x       y       z     vdW  Elec       q    Type
REMARK                         _______ _______ _______ _____ _____    ______ ____
ROOT
ATOM      7  C   UNL     1      19.179   7.963  21.744  0.00  0.00    +0.000 C 
ATOM      8  C   UNL     1      19.674   6.649  21.089  0.00  0.00    +0.032 C 
ATOM      9  C   UNL     1      17.666   7.895  22.004  0.00  0.00    +0.012 C 
ATOM     10  C   UNL     1      16.863   7.662  20.710  0.00  0.00    +0.023 C 
ATOM     12  C   UNL     1      17.456   6.548  19.872  0.00  0.00    -0.073 C 
ATOM     13  C   UNL     1      18.710   6.100  20.064  0.00  0.00    -0.022 C 
ATOM     18  C   UNL     1      16.560   5.930  18.835  0.00  0.00    +0.039 C 
ENDROOT
BRANCH   7  11
ATOM     11  C   UNL     1      19.916   8.257  23.054  0.00  0.00    -0.013 C 
ATOM     16  C   UNL     1      20.403   6.961  23.695  0.00  0.00    +0.007 C 
ATOM     17  C   UNL     1      21.082   9.209  22.807  0.00  0.00    +0.007 C 
ENDBRANCH   7  11
BRANCH   8  14
ATOM     14  C   UNL     1      21.051   6.840  20.443  0.00  0.00    +0.113 C 
BRANCH  14   3
ATOM      2  O   UNL     1      23.577   5.813  21.387  0.00  0.00    -0.253 OA
ATOM      3  N   UNL     1      21.641   5.578  20.123  0.00  0.00    -0.299 N 
ATOM      5  N   UNL     1      23.214   3.881  20.152  0.00  0.00    -0.297 N 
ATOM     20  C   UNL     1      22.878   5.148  20.624  0.00  0.00    +0.300 C 
ATOM     31  H   UNL     1      21.110   4.924  19.556  0.00  0.00    +0.150 HD
ATOM     32  H   UNL     1      22.607   3.447  19.463  0.00  0.00    +0.150 HD
BRANCH   5  23
ATOM     23  C   UNL     1      24.438   3.211  20.516  0.00  0.00    +0.068 C 
ATOM     25  C   UNL     1      25.455   3.311  19.387  0.00  0.00    +0.027 C 
ATOM     26  C   UNL     1      24.164   1.758  20.885  0.00  0.00    +0.027 C 
ENDBRANCH   5  23
ENDBRANCH  14   3
ENDBRANCH   8  14
BRANCH  10  15
ATOM     15  C   UNL     1      16.740   8.955  19.897  0.00  0.00    +0.103 C 
BRANCH  15  19
ATOM      1  O   UNL     1      14.679   8.751  18.689  0.00  0.00    -0.276 OA
ATOM      4  N   UNL     1      14.732  10.298  20.416  0.00  0.00    -0.300 N 
ATOM     19  C   UNL     1      15.295   9.312  19.599  0.00  0.00    +0.216 C 
ATOM     22  C   UNL     1      15.479  10.948  21.487  0.00  0.00    +0.132 C 
BRANCH   4  21
ATOM     21  C   UNL     1      13.353  10.753  20.258  0.00  0.00    +0.144 C 
BRANCH  21  24
ATOM      6  N   UNL     1      10.597   8.166  20.142  0.00  0.00    -0.263 NA
ATOM     24  C   UNL     1      12.364   9.716  20.708  0.00  0.00    -0.012 A 
ATOM     27  C   UNL     1      12.277   9.339  22.043  0.00  0.00    +0.008 A 
ATOM     28  C   UNL     1      11.510   9.104  19.805  0.00  0.00    +0.115 A 
ATOM     29  C   UNL     1      11.351   8.376  22.429  0.00  0.00    +0.020 A 
ATOM     30  C   UNL     1      10.541   7.826  21.449  0.00  0.00    +0.111 A 
ENDBRANCH  21  24
ENDBRANCH   4  21
ENDBRANCH  15  19
ENDBRANCH  10  15
TORSDOF 8
ENDMDL
MODEL 10
REMARK VINA RESULT:      -6.1     21.875     25.947
REMARK  Name = 38029159
REMARK  14 active torsions:
REMARK  status: ('A' for Active; 'I' for Inactive)
REMARK    1  A    between atoms: N_3  and  C_14
REMARK    2  A    between atoms: N_4  and  C_21
REMARK    3  A    between atoms: N_4  and  C_22
REMARK    4  A    between atoms: N_5  and  C_23
REMARK    5  A    between atoms: C_7  and  C_11
REMARK    6  A    between atoms: C_8  and  C_14
REMARK    7  A    between atoms: C_10  and  C_15
REMARK    8  A    between atoms: C_11  and  C_16
REMARK    9  A    between atoms: C_11  and  C_17
REMARK   10  A    between atoms: C_12  and  C_18
REMARK   11  A    between atoms: C_15  and  C_19
REMARK   12  A    between atoms: C_21  and  C_24
REMARK   13  A    between atoms: C_23  and  C_25
REMARK   14  A    between atoms: C_23  and  C_26
REMARK                            x       y       z     vdW  Elec       q    Type
REMARK                         _______ _______ _______ _____ _____    ______ ____
ROOT
ATOM      7  C   UNL     1      -5.449 -10.528  10.770  0.00  0.00    +0.000 C 
ATOM      8  C   UNL     1      -4.698  -9.704   9.694  0.00  0.00    +0.032 C 
ATOM      9  C   UNL     1      -4.994 -10.112  12.178  0.00  0.00    +0.012 C 
ATOM     10  C   UNL     1      -3.479 -10.307  12.381  0.00  0.00    +0.023 C 
ATOM     12  C   UNL     1      -2.679  -9.753  11.220  0.00  0.00    -0.073 C 
ATOM     13  C   UNL     1      -3.244  -9.478  10.031  0.00  0.00    -0.022 C 
ATOM     18  C   UNL     1      -1.221  -9.481  11.471  0.00  0.00    +0.039 C 
ENDROOT
BRANCH   7  11
ATOM     11  C   UNL     1      -6.967 -10.372  10.650  0.00  0.00    -0.013 C 
ATOM     16  C   UNL     1      -7.661 -10.954  11.878  0.00  0.00    +0.007 C 
ATOM     17  C   UNL     1      -7.339  -8.904  10.464  0.00  0.00    +0.007 C 
ENDBRANCH   7  11
BRANCH   8  14
ATOM     14  C   UNL     1      -4.806 -10.368   8.317  0.00  0.00    +0.113 C 
BRANCH  14   3
ATOM      2  O   UNL     1      -7.423 -10.404   7.100  0.00  0.00    -0.253 OA
ATOM      3  N   UNL     1      -5.319  -9.449   7.349  0.00  0.00    -0.299 N 
ATOM      5  N   UNL     1      -6.845  -8.513   5.885  0.00  0.00    -0.297 N 
ATOM     20  C   UNL     1      -6.606  -9.533   6.802  0.00  0.00    +0.300 C 
ATOM     31  H   UNL     1      -4.747  -8.651   7.089  0.00  0.00    +0.150 HD
ATOM     32  H   UNL     1      -6.080  -7.888   5.648  0.00  0.00    +0.150 HD
BRANCH   5  23
ATOM     23  C   UNL     1      -8.095  -8.374   5.178  0.00  0.00    +0.068 C 
ATOM     25  C   UNL     1      -7.843  -8.088   3.704  0.00  0.00    +0.027 C 
ATOM     26  C   UNL     1      -8.950  -7.283   5.813  0.00  0.00    +0.027 C 
ENDBRANCH   5  23
ENDBRANCH  14   3
ENDBRANCH   8  14
BRANCH  10  15
ATOM     15  C   UNL     1      -3.140 -11.781  12.628  0.00  0.00    +0.103 C 
BRANCH  15  19
ATOM      1  O   UNL     1      -2.377 -11.715  14.899  0.00  0.00    -0.276 OA
ATOM      4  N   UNL     1      -4.263 -12.993  14.466  0.00  0.00    -0.300 N 
ATOM     19  C   UNL     1      -3.209 -12.149  14.099  0.00  0.00    +0.216 C 
ATOM     22  C   UNL     1      -5.236 -13.493  13.501  0.00  0.00    +0.132 C 
BRANCH   4  21
ATOM     21  C   UNL     1      -4.467 -13.438  15.842  0.00  0.00    +0.144 C 
BRANCH  21  24
ATOM      6  N   UNL     1      -7.096 -11.039  17.120  0.00  0.00    -0.263 NA
ATOM     24  C   UNL     1      -5.138 -12.387  16.678  0.00  0.00    -0.012 A 
ATOM     27  C   UNL     1      -4.478 -11.791  17.747  0.00  0.00    +0.008 A 
ATOM     28  C   UNL     1      -6.435 -11.980  16.409  0.00  0.00    +0.115 A 
ATOM     29  C   UNL     1      -5.125 -10.820  18.503  0.00  0.00    +0.020 A 
ATOM     30  C   UNL     1      -6.422 -10.482  18.151  0.00  0.00    +0.111 A 
ENDBRANCH  21  24
ENDBRANCH   4  21
ENDBRANCH  15  19
ENDBRANCH  10  15
TORSDOF 8
ENDMDL
