MODEL 1
REMARK VINA RESULT:      -7.3      0.000      0.000
REMARK  Name = 75536710
REMARK  11 active torsions:
REMARK  status: ('A' for Active; 'I' for Inactive)
REMARK    1  A    between atoms: S_1  and  N_8
REMARK    2  A    between atoms: S_1  and  C_17
REMARK    3  A    between atoms: O_3  and  C_11
REMARK    4  A    between atoms: N_7  and  C_10
REMARK    5  A    between atoms: N_7  and  C_15
REMARK    6  A    between atoms: N_8  and  C_14
REMARK    7  A    between atoms: N_9  and  C_24
REMARK    8  A    between atoms: C_12  and  C_14
REMARK    9  A    between atoms: C_15  and  C_16
REMARK   10  A    between atoms: C_27  and  C_28
REMARK   11  A    between atoms: C_29  and  C_30
REMARK                            x       y       z     vdW  Elec       q    Type
REMARK                         _______ _______ _______ _____ _____    ______ ____
ROOT
ATOM      2  O   UNL     1     -16.902   4.895  22.283  0.00  0.00    -0.371 OA
ATOM     10  C   UNL     1     -14.973   6.146  21.714  0.00  0.00    +0.111 C 
ATOM     11  C   UNL     1     -14.550   5.042  22.667  0.00  0.00    +0.164 C 
ATOM     12  C   UNL     1     -15.860   4.425  23.157  0.00  0.00    +0.164 C 
ATOM     13  C   UNL     1     -16.304   5.622  21.202  0.00  0.00    +0.181 C 
ENDROOT
BRANCH  11   3
ATOM      3  O   UNL     1     -13.829   4.065  21.910  0.00  0.00    -0.388 OA
ATOM     32  H   UNL     1     -14.366   3.255  21.897  0.00  0.00    +0.210 HD
ENDBRANCH  11   3
BRANCH  10   7
ATOM      7  N   UNL     1     -15.152   7.418  22.410  0.00  0.00    -0.305 NA
ATOM     31  H   UNL     1     -15.288   7.238  23.405  0.00  0.00    +0.123 HD
BRANCH   7  15
ATOM     15  C   UNL     1     -13.984   8.275  22.245  0.00  0.00    +0.116 C 
BRANCH  15  16
ATOM     16  C   UNL     1     -13.388   8.151  20.867  0.00  0.00    -0.033 A 
ATOM     18  C   UNL     1     -12.180   7.476  20.687  0.00  0.00    +0.007 A 
ATOM     19  C   UNL     1     -14.044   8.710  19.771  0.00  0.00    +0.007 A 
ATOM     22  C   UNL     1     -11.629   7.360  19.411  0.00  0.00    +0.023 A 
ATOM     23  C   UNL     1     -13.492   8.595  18.495  0.00  0.00    +0.023 A 
ATOM     24  C   UNL     1     -12.285   7.920  18.315  0.00  0.00    +0.033 A 
BRANCH  24   9
ATOM      6  O   UNL     1      -9.979   9.378  17.041  0.00  0.00    -0.276 OA
ATOM      9  N   UNL     1     -11.734   7.804  17.038  0.00  0.00    -0.286 N 
ATOM     29  C   UNL     1     -10.654   8.513  16.494  0.00  0.00    +0.214 C 
ATOM     30  C   UNL     1     -10.366   8.090  15.076  0.00  0.00    +0.109 C 
ATOM     34  H   UNL     1     -12.178   7.114  16.435  0.00  0.00    +0.155 HD
ENDBRANCH  24   9
ENDBRANCH  15  16
ENDBRANCH   7  15
ENDBRANCH  10   7
BRANCH  12  14
ATOM     14  C   UNL     1     -16.219   4.815  24.582  0.00  0.00    +0.140 C 
BRANCH  14   8
ATOM      8  N   UNL     1     -15.708   3.795  25.519  0.00  0.00    -0.187 NA
ATOM     33  H   UNL     1     -14.705   3.588  25.430  0.00  0.00    +0.148 HD
BRANCH   8   1
ATOM      1  S   UNL     1     -16.712   2.514  26.015  0.00  0.00    +0.058 S 
ATOM      4  O   UNL     1     -16.370   1.319  25.269  0.00  0.00    -0.153 OA
ATOM      5  O   UNL     1     -18.085   2.980  26.055  0.00  0.00    -0.153 OA
BRANCH   1  17
ATOM     17  C   UNL     1     -16.198   2.278  27.690  0.00  0.00    +0.105 A 
ATOM     20  C   UNL     1     -15.673   3.348  28.415  0.00  0.00    +0.029 A 
ATOM     21  C   UNL     1     -16.313   1.022  28.284  0.00  0.00    +0.029 A 
ATOM     25  C   UNL     1     -15.263   3.162  29.735  0.00  0.00    +0.005 A 
ATOM     26  C   UNL     1     -15.905   0.836  29.605  0.00  0.00    +0.005 A 
ATOM     27  C   UNL     1     -15.380   1.906  30.330  0.00  0.00    -0.050 A 
ATOM     28  C   UNL     1     -14.942   1.706  31.742  0.00  0.00    +0.044 C 
ENDBRANCH   1  17
ENDBRANCH   8   1
ENDBRANCH  14   8
ENDBRANCH  12  14
TORSDOF 9
ENDMDL
MODEL 2
REMARK VINA RESULT:      -7.3     18.693     20.187
REMARK  Name = 75536710
REMARK  11 active torsions:
REMARK  status: ('A' for Active; 'I' for Inactive)
REMARK    1  A    between atoms: S_1  and  N_8
REMARK    2  A    between atoms: S_1  and  C_17
REMARK    3  A    between atoms: O_3  and  C_11
REMARK    4  A    between atoms: N_7  and  C_10
REMARK    5  A    between atoms: N_7  and  C_15
REMARK    6  A    between atoms: N_8  and  C_14
REMARK    7  A    between atoms: N_9  and  C_24
REMARK    8  A    between atoms: C_12  and  C_14
REMARK    9  A    between atoms: C_15  and  C_16
REMARK   10  A    between atoms: C_27  and  C_28
REMARK   11  A    between atoms: C_29  and  C_30
REMARK                            x       y       z     vdW  Elec       q    Type
REMARK                         _______ _______ _______ _____ _____    ______ ____
ROOT
ATOM      2  O   UNL     1      -3.775 -12.605  15.336  0.00  0.00    -0.371 OA
ATOM     10  C   UNL     1      -2.180 -11.006  14.627  0.00  0.00    +0.111 C 
ATOM     11  C   UNL     1      -2.532 -10.704  16.073  0.00  0.00    +0.164 C 
ATOM     12  C   UNL     1      -3.711 -11.624  16.388  0.00  0.00    +0.164 C 
ATOM     13  C   UNL     1      -2.627 -12.451  14.492  0.00  0.00    +0.181 C 
ENDROOT
BRANCH  11   3
ATOM      3  O   UNL     1      -1.414 -11.085  16.881  0.00  0.00    -0.388 OA
ATOM     32  H   UNL     1      -0.819 -10.318  16.930  0.00  0.00    +0.210 HD
ENDBRANCH  11   3
BRANCH  10   7
ATOM      7  N   UNL     1      -2.917 -10.147  13.703  0.00  0.00    -0.305 NA
ATOM     31  H   UNL     1      -2.492  -9.220  13.697  0.00  0.00    +0.123 HD
BRANCH   7  15
ATOM     15  C   UNL     1      -2.887 -10.685  12.348  0.00  0.00    +0.116 C 
BRANCH  15  16
ATOM     16  C   UNL     1      -3.814  -9.937  11.427  0.00  0.00    -0.033 A 
ATOM     18  C   UNL     1      -3.383  -9.563  10.154  0.00  0.00    +0.007 A 
ATOM     19  C   UNL     1      -5.106  -9.619  11.847  0.00  0.00    +0.007 A 
ATOM     22  C   UNL     1      -4.243  -8.872   9.301  0.00  0.00    +0.023 A 
ATOM     23  C   UNL     1      -5.965  -8.926  10.993  0.00  0.00    +0.023 A 
ATOM     24  C   UNL     1      -5.534  -8.553   9.721  0.00  0.00    +0.033 A 
BRANCH  24   9
ATOM      6  O   UNL     1      -7.587  -9.573   7.769  0.00  0.00    -0.276 OA
ATOM      9  N   UNL     1      -6.394  -7.861   8.867  0.00  0.00    -0.286 N 
ATOM     29  C   UNL     1      -7.335  -8.390   7.972  0.00  0.00    +0.214 C 
ATOM     30  C   UNL     1      -8.070  -7.304   7.229  0.00  0.00    +0.109 C 
ATOM     34  H   UNL     1      -6.321  -6.846   8.907  0.00  0.00    +0.155 HD
ENDBRANCH  24   9
ENDBRANCH  15  16
ENDBRANCH   7  15
ENDBRANCH  10   7
BRANCH  12  14
ATOM     14  C   UNL     1      -5.046 -10.900  16.448  0.00  0.00    +0.140 C 
BRANCH  14   8
ATOM      8  N   UNL     1      -5.280 -10.405  17.819  0.00  0.00    -0.187 NA
ATOM     33  H   UNL     1      -4.453 -10.010  18.284  0.00  0.00    +0.148 HD
BRANCH   8   1
ATOM      1  S   UNL     1      -6.428 -11.169  18.816  0.00  0.00    +0.058 S 
ATOM      4  O   UNL     1      -6.155 -10.840  20.201  0.00  0.00    -0.153 OA
ATOM      5  O   UNL     1      -6.560 -12.554  18.407  0.00  0.00    -0.153 OA
BRANCH   1  17
ATOM     17  C   UNL     1      -7.921 -10.348  18.345  0.00  0.00    +0.105 A 
ATOM     20  C   UNL     1      -9.144 -10.772  18.864  0.00  0.00    +0.029 A 
ATOM     21  C   UNL     1      -7.876  -9.279  17.451  0.00  0.00    +0.029 A 
ATOM     25  C   UNL     1     -10.323 -10.127  18.490  0.00  0.00    +0.005 A 
ATOM     26  C   UNL     1      -9.055  -8.633  17.077  0.00  0.00    +0.005 A 
ATOM     27  C   UNL     1     -10.277  -9.057  17.597  0.00  0.00    -0.050 A 
ATOM     28  C   UNL     1     -11.538  -8.367  17.196  0.00  0.00    +0.044 C 
ENDBRANCH   1  17
ENDBRANCH   8   1
ENDBRANCH  14   8
ENDBRANCH  12  14
TORSDOF 9
ENDMDL
MODEL 3
REMARK VINA RESULT:      -7.3     18.444     20.972
REMARK  Name = 75536710
REMARK  11 active torsions:
REMARK  status: ('A' for Active; 'I' for Inactive)
REMARK    1  A    between atoms: S_1  and  N_8
REMARK    2  A    between atoms: S_1  and  C_17
REMARK    3  A    between atoms: O_3  and  C_11
REMARK    4  A    between atoms: N_7  and  C_10
REMARK    5  A    between atoms: N_7  and  C_15
REMARK    6  A    between atoms: N_8  and  C_14
REMARK    7  A    between atoms: N_9  and  C_24
REMARK    8  A    between atoms: C_12  and  C_14
REMARK    9  A    between atoms: C_15  and  C_16
REMARK   10  A    between atoms: C_27  and  C_28
REMARK   11  A    between atoms: C_29  and  C_30
REMARK                            x       y       z     vdW  Elec       q    Type
REMARK                         _______ _______ _______ _____ _____    ______ ____
ROOT
ATOM      2  O   UNL     1      -4.808 -10.639  18.358  0.00  0.00    -0.371 OA
ATOM     10  C   UNL     1      -6.154 -12.525  18.847  0.00  0.00    +0.111 C 
ATOM     11  C   UNL     1      -5.075 -12.962  17.872  0.00  0.00    +0.164 C 
ATOM     12  C   UNL     1      -4.393 -11.665  17.437  0.00  0.00    +0.164 C 
ATOM     13  C   UNL     1      -5.561 -11.246  19.415  0.00  0.00    +0.181 C 
ENDROOT
BRANCH  11   3
ATOM      3  O   UNL     1      -4.135 -13.764  18.592  0.00  0.00    -0.388 OA
ATOM     32  H   UNL     1      -4.592 -14.111  19.376  0.00  0.00    +0.210 HD
ENDBRANCH  11   3
BRANCH  10   7
ATOM      7  N   UNL     1      -7.417 -12.252  18.166  0.00  0.00    -0.305 NA
ATOM     31  H   UNL     1      -7.830 -13.134  17.862  0.00  0.00    +0.123 HD
BRANCH   7  15
ATOM     15  C   UNL     1      -8.356 -11.577  19.054  0.00  0.00    +0.116 C 
BRANCH  15  16
ATOM     16  C   UNL     1      -9.010 -10.397  18.384  0.00  0.00    -0.033 A 
ATOM     18  C   UNL     1      -8.268  -9.576  17.534  0.00  0.00    +0.007 A 
ATOM     19  C   UNL     1     -10.360 -10.125  18.612  0.00  0.00    +0.007 A 
ATOM     22  C   UNL     1      -8.874  -8.484  16.913  0.00  0.00    +0.023 A 
ATOM     23  C   UNL     1     -10.965  -9.033  17.991  0.00  0.00    +0.023 A 
ATOM     24  C   UNL     1     -10.223  -8.212  17.143  0.00  0.00    +0.033 A 
BRANCH  24   9
ATOM      6  O   UNL     1     -11.495  -7.969  14.424  0.00  0.00    -0.276 OA
ATOM      9  N   UNL     1     -10.829  -7.120  16.521  0.00  0.00    -0.286 N 
ATOM     29  C   UNL     1     -11.408  -7.062  15.245  0.00  0.00    +0.214 C 
ATOM     30  C   UNL     1     -11.960  -5.692  14.944  0.00  0.00    +0.109 C 
ATOM     34  H   UNL     1     -10.850  -6.264  17.071  0.00  0.00    +0.155 HD
ENDBRANCH  24   9
ENDBRANCH  15  16
ENDBRANCH   7  15
ENDBRANCH  10   7
BRANCH  12  14
ATOM     14  C   UNL     1      -4.768 -11.224  16.031  0.00  0.00    +0.140 C 
BRANCH  14   8
ATOM      8  N   UNL     1      -3.726 -10.323  15.500  0.00  0.00    -0.187 NA
ATOM     33  H   UNL     1      -4.044  -9.368  15.291  0.00  0.00    +0.148 HD
BRANCH   8   1
ATOM      1  S   UNL     1      -2.478 -10.945  14.524  0.00  0.00    +0.058 S 
ATOM      4  O   UNL     1      -2.537 -12.394  14.535  0.00  0.00    -0.153 OA
ATOM      5  O   UNL     1      -1.241 -10.263  14.850  0.00  0.00    -0.153 OA
BRANCH   1  17
ATOM     17  C   UNL     1      -2.966 -10.393  12.917  0.00  0.00    +0.105 A 
ATOM     20  C   UNL     1      -4.319 -10.314  12.588  0.00  0.00    +0.029 A 
ATOM     21  C   UNL     1      -1.997 -10.040  11.978  0.00  0.00    +0.029 A 
ATOM     25  C   UNL     1      -4.704  -9.882  11.318  0.00  0.00    +0.005 A 
ATOM     26  C   UNL     1      -2.381  -9.607  10.709  0.00  0.00    +0.005 A 
ATOM     27  C   UNL     1      -3.735  -9.527  10.380  0.00  0.00    -0.050 A 
ATOM     28  C   UNL     1      -4.146  -9.065   9.022  0.00  0.00    +0.044 C 
ENDBRANCH   1  17
ENDBRANCH   8   1
ENDBRANCH  14   8
ENDBRANCH  12  14
TORSDOF 9
ENDMDL
MODEL 4
REMARK VINA RESULT:      -7.2      2.941     10.999
REMARK  Name = 75536710
REMARK  11 active torsions:
REMARK  status: ('A' for Active; 'I' for Inactive)
REMARK    1  A    between atoms: S_1  and  N_8
REMARK    2  A    between atoms: S_1  and  C_17
REMARK    3  A    between atoms: O_3  and  C_11
REMARK    4  A    between atoms: N_7  and  C_10
REMARK    5  A    between atoms: N_7  and  C_15
REMARK    6  A    between atoms: N_8  and  C_14
REMARK    7  A    between atoms: N_9  and  C_24
REMARK    8  A    between atoms: C_12  and  C_14
REMARK    9  A    between atoms: C_15  and  C_16
REMARK   10  A    between atoms: C_27  and  C_28
REMARK   11  A    between atoms: C_29  and  C_30
REMARK                            x       y       z     vdW  Elec       q    Type
REMARK                         _______ _______ _______ _____ _____    ______ ____
ROOT
ATOM      2  O   UNL     1     -16.162   1.571  24.823  0.00  0.00    -0.371 OA
ATOM     10  C   UNL     1     -17.512   2.523  26.520  0.00  0.00    +0.111 C 
ATOM     11  C   UNL     1     -17.589   3.425  25.301  0.00  0.00    +0.164 C 
ATOM     12  C   UNL     1     -16.535   2.875  24.340  0.00  0.00    +0.164 C 
ATOM     13  C   UNL     1     -17.025   1.219  25.912  0.00  0.00    +0.181 C 
ENDROOT
BRANCH  11   3
ATOM      3  O   UNL     1     -18.884   3.260  24.717  0.00  0.00    -0.388 OA
ATOM     32  H   UNL     1     -19.423   2.755  25.349  0.00  0.00    +0.210 HD
ENDBRANCH  11   3
BRANCH  10   7
ATOM      7  N   UNL     1     -16.554   3.026  27.502  0.00  0.00    -0.305 NA
ATOM     31  H   UNL     1     -17.027   3.681  28.125  0.00  0.00    +0.123 HD
BRANCH   7  15
ATOM     15  C   UNL     1     -16.000   1.938  28.299  0.00  0.00    +0.116 C 
BRANCH  15  16
ATOM     16  C   UNL     1     -15.546   2.412  29.655  0.00  0.00    -0.033 A 
ATOM     18  C   UNL     1     -15.312   3.769  29.878  0.00  0.00    +0.007 A 
ATOM     19  C   UNL     1     -15.361   1.494  30.689  0.00  0.00    +0.007 A 
ATOM     22  C   UNL     1     -14.893   4.208  31.134  0.00  0.00    +0.023 A 
ATOM     23  C   UNL     1     -14.941   1.933  31.944  0.00  0.00    +0.023 A 
ATOM     24  C   UNL     1     -14.707   3.289  32.167  0.00  0.00    +0.033 A 
BRANCH  24   9
ATOM      6  O   UNL     1     -16.025   5.163  34.121  0.00  0.00    -0.276 OA
ATOM      9  N   UNL     1     -14.288   3.729  33.423  0.00  0.00    -0.286 N 
ATOM     29  C   UNL     1     -14.945   4.608  34.296  0.00  0.00    +0.214 C 
ATOM     30  C   UNL     1     -14.158   4.828  35.563  0.00  0.00    +0.109 C 
ATOM     34  H   UNL     1     -13.394   3.358  33.737  0.00  0.00    +0.155 HD
ENDBRANCH  24   9
ENDBRANCH  15  16
ENDBRANCH   7  15
ENDBRANCH  10   7
BRANCH  12  14
ATOM     14  C   UNL     1     -15.281   3.731  24.259  0.00  0.00    +0.140 C 
BRANCH  14   8
ATOM      8  N   UNL     1     -14.967   4.017  22.845  0.00  0.00    -0.187 NA
ATOM     33  H   UNL     1     -13.995   3.831  22.570  0.00  0.00    +0.148 HD
BRANCH   8   1
ATOM      1  S   UNL     1     -15.761   5.287  22.037  0.00  0.00    +0.058 S 
ATOM      4  O   UNL     1     -16.410   6.145  23.009  0.00  0.00    -0.153 OA
ATOM      5  O   UNL     1     -16.518   4.739  20.928  0.00  0.00    -0.153 OA
BRANCH   1  17
ATOM     17  C   UNL     1     -14.402   6.181  21.343  0.00  0.00    +0.105 A 
ATOM     20  C   UNL     1     -13.094   5.818  21.664  0.00  0.00    +0.029 A 
ATOM     21  C   UNL     1     -14.638   7.249  20.479  0.00  0.00    +0.029 A 
ATOM     25  C   UNL     1     -12.021   6.525  21.121  0.00  0.00    +0.005 A 
ATOM     26  C   UNL     1     -13.566   7.955  19.934  0.00  0.00    +0.005 A 
ATOM     27  C   UNL     1     -12.258   7.593  20.255  0.00  0.00    -0.050 A 
ATOM     28  C   UNL     1     -11.110   8.349  19.673  0.00  0.00    +0.044 C 
ENDBRANCH   1  17
ENDBRANCH   8   1
ENDBRANCH  14   8
ENDBRANCH  12  14
TORSDOF 9
ENDMDL
MODEL 5
REMARK VINA RESULT:      -7.0      1.618      2.047
REMARK  Name = 75536710
REMARK  11 active torsions:
REMARK  status: ('A' for Active; 'I' for Inactive)
REMARK    1  A    between atoms: S_1  and  N_8
REMARK    2  A    between atoms: S_1  and  C_17
REMARK    3  A    between atoms: O_3  and  C_11
REMARK    4  A    between atoms: N_7  and  C_10
REMARK    5  A    between atoms: N_7  and  C_15
REMARK    6  A    between atoms: N_8  and  C_14
REMARK    7  A    between atoms: N_9  and  C_24
REMARK    8  A    between atoms: C_12  and  C_14
REMARK    9  A    between atoms: C_15  and  C_16
REMARK   10  A    between atoms: C_27  and  C_28
REMARK   11  A    between atoms: C_29  and  C_30
REMARK                            x       y       z     vdW  Elec       q    Type
REMARK                         _______ _______ _______ _____ _____    ______ ____
ROOT
ATOM      2  O   UNL     1     -16.606   6.088  23.900  0.00  0.00    -0.371 OA
ATOM     10  C   UNL     1     -15.462   6.614  21.895  0.00  0.00    +0.111 C 
ATOM     11  C   UNL     1     -15.680   5.111  21.928  0.00  0.00    +0.164 C 
ATOM     12  C   UNL     1     -16.216   4.825  23.331  0.00  0.00    +0.164 C 
ATOM     13  C   UNL     1     -16.500   7.101  22.892  0.00  0.00    +0.181 C 
ENDROOT
BRANCH  11   3
ATOM      3  O   UNL     1     -16.693   4.797  20.968  0.00  0.00    -0.388 OA
ATOM     32  H   UNL     1     -16.352   4.075  20.415  0.00  0.00    +0.210 HD
ENDBRANCH  11   3
BRANCH  10   7
ATOM      7  N   UNL     1     -14.115   6.972  22.333  0.00  0.00    -0.305 NA
ATOM     31  H   UNL     1     -13.950   6.580  23.260  0.00  0.00    +0.123 HD
BRANCH   7  15
ATOM     15  C   UNL     1     -13.109   6.449  21.417  0.00  0.00    +0.116 C 
BRANCH  15  16
ATOM     16  C   UNL     1     -12.365   7.552  20.711  0.00  0.00    -0.033 A 
ATOM     18  C   UNL     1     -11.488   7.249  19.670  0.00  0.00    +0.007 A 
ATOM     19  C   UNL     1     -12.555   8.879  21.099  0.00  0.00    +0.007 A 
ATOM     22  C   UNL     1     -10.801   8.271  19.016  0.00  0.00    +0.023 A 
ATOM     23  C   UNL     1     -11.867   9.901  20.444  0.00  0.00    +0.023 A 
ATOM     24  C   UNL     1     -10.990   9.597  19.404  0.00  0.00    +0.033 A 
BRANCH  24   9
ATOM      6  O   UNL     1     -11.653  11.090  16.874  0.00  0.00    -0.276 OA
ATOM      9  N   UNL     1     -10.303  10.620  18.749  0.00  0.00    -0.286 N 
ATOM     29  C   UNL     1     -10.659  11.282  17.566  0.00  0.00    +0.214 C 
ATOM     30  C   UNL     1      -9.645  12.332  17.187  0.00  0.00    +0.109 C 
ATOM     34  H   UNL     1      -9.436  10.915  19.194  0.00  0.00    +0.155 HD
ENDBRANCH  24   9
ENDBRANCH  15  16
ENDBRANCH   7  15
ENDBRANCH  10   7
BRANCH  12  14
ATOM     14  C   UNL     1     -15.192   4.181  24.252  0.00  0.00    +0.140 C 
BRANCH  14   8
ATOM      8  N   UNL     1     -15.757   4.057  25.610  0.00  0.00    -0.187 NA
ATOM     33  H   UNL     1     -15.165   4.431  26.363  0.00  0.00    +0.148 HD
BRANCH   8   1
ATOM      1  S   UNL     1     -16.746   2.729  26.003  0.00  0.00    +0.058 S 
ATOM      4  O   UNL     1     -16.402   1.606  25.153  0.00  0.00    -0.153 OA
ATOM      5  O   UNL     1     -18.122   3.178  26.097  0.00  0.00    -0.153 OA
BRANCH   1  17
ATOM     17  C   UNL     1     -16.212   2.353  27.646  0.00  0.00    +0.105 A 
ATOM     20  C   UNL     1     -16.440   1.085  28.180  0.00  0.00    +0.029 A 
ATOM     21  C   UNL     1     -15.567   3.326  28.409  0.00  0.00    +0.029 A 
ATOM     25  C   UNL     1     -16.022   0.788  29.477  0.00  0.00    +0.005 A 
ATOM     26  C   UNL     1     -15.148   3.030  29.706  0.00  0.00    +0.005 A 
ATOM     27  C   UNL     1     -15.375   1.761  30.240  0.00  0.00    -0.050 A 
ATOM     28  C   UNL     1     -14.928   1.445  31.628  0.00  0.00    +0.044 C 
ENDBRANCH   1  17
ENDBRANCH   8   1
ENDBRANCH  14   8
ENDBRANCH  12  14
TORSDOF 9
ENDMDL
MODEL 6
REMARK VINA RESULT:      -6.8     17.704     19.187
REMARK  Name = 75536710
REMARK  11 active torsions:
REMARK  status: ('A' for Active; 'I' for Inactive)
REMARK    1  A    between atoms: S_1  and  N_8
REMARK    2  A    between atoms: S_1  and  C_17
REMARK    3  A    between atoms: O_3  and  C_11
REMARK    4  A    between atoms: N_7  and  C_10
REMARK    5  A    between atoms: N_7  and  C_15
REMARK    6  A    between atoms: N_8  and  C_14
REMARK    7  A    between atoms: N_9  and  C_24
REMARK    8  A    between atoms: C_12  and  C_14
REMARK    9  A    between atoms: C_15  and  C_16
REMARK   10  A    between atoms: C_27  and  C_28
REMARK   11  A    between atoms: C_29  and  C_30
REMARK                            x       y       z     vdW  Elec       q    Type
REMARK                         _______ _______ _______ _____ _____    ______ ____
ROOT
ATOM      2  O   UNL     1      -7.000 -11.861  17.462  0.00  0.00    -0.371 OA
ATOM     10  C   UNL     1      -4.968 -11.201  18.482  0.00  0.00    +0.111 C 
ATOM     11  C   UNL     1      -6.097 -10.443  19.157  0.00  0.00    +0.164 C 
ATOM     12  C   UNL     1      -7.333 -10.748  18.312  0.00  0.00    +0.164 C 
ATOM     13  C   UNL     1      -5.711 -12.360  17.840  0.00  0.00    +0.181 C 
ENDROOT
BRANCH  11   3
ATOM      3  O   UNL     1      -6.276 -11.000  20.463  0.00  0.00    -0.388 OA
ATOM     32  H   UNL     1      -5.621 -10.583  21.047  0.00  0.00    +0.210 HD
ENDBRANCH  11   3
BRANCH  10   7
ATOM      7  N   UNL     1      -4.303 -10.387  17.468  0.00  0.00    -0.305 NA
ATOM     31  H   UNL     1      -3.801  -9.626  17.926  0.00  0.00    +0.123 HD
BRANCH   7  15
ATOM     15  C   UNL     1      -3.352 -11.179  16.698  0.00  0.00    +0.116 C 
BRANCH  15  16
ATOM     16  C   UNL     1      -3.443 -10.888  15.224  0.00  0.00    -0.033 A 
ATOM     18  C   UNL     1      -4.690 -10.772  14.610  0.00  0.00    +0.007 A 
ATOM     19  C   UNL     1      -2.279 -10.732  14.471  0.00  0.00    +0.007 A 
ATOM     22  C   UNL     1      -4.774 -10.501  13.245  0.00  0.00    +0.023 A 
ATOM     23  C   UNL     1      -2.363 -10.461  13.105  0.00  0.00    +0.023 A 
ATOM     24  C   UNL     1      -3.610 -10.346  12.492  0.00  0.00    +0.033 A 
BRANCH  24   9
ATOM      6  O   UNL     1      -5.191  -8.256  11.009  0.00  0.00    -0.276 OA
ATOM      9  N   UNL     1      -3.694 -10.074  11.126  0.00  0.00    -0.286 N 
ATOM     29  C   UNL     1      -4.452  -9.083  10.486  0.00  0.00    +0.214 C 
ATOM     30  C   UNL     1      -4.266  -9.117   8.990  0.00  0.00    +0.109 C 
ATOM     34  H   UNL     1      -3.131 -10.675  10.528  0.00  0.00    +0.155 HD
ENDBRANCH  24   9
ENDBRANCH  15  16
ENDBRANCH   7  15
ENDBRANCH  10   7
BRANCH  12  14
ATOM     14  C   UNL     1      -7.766  -9.587  17.430  0.00  0.00    +0.140 C 
BRANCH  14   8
ATOM      8  N   UNL     1      -8.984  -8.969  17.990  0.00  0.00    -0.187 NA
ATOM     33  H   UNL     1      -8.890  -8.613  18.950  0.00  0.00    +0.148 HD
BRANCH   8   1
ATOM      1  S   UNL     1     -10.519  -9.548  17.537  0.00  0.00    +0.058 S 
ATOM      4  O   UNL     1     -11.385  -9.575  18.699  0.00  0.00    -0.153 OA
ATOM      5  O   UNL     1     -10.352 -10.737  16.724  0.00  0.00    -0.153 OA
BRANCH   1  17
ATOM     17  C   UNL     1     -11.088  -8.265  16.463  0.00  0.00    +0.105 A 
ATOM     20  C   UNL     1     -11.743  -8.589  15.275  0.00  0.00    +0.029 A 
ATOM     21  C   UNL     1     -10.880  -6.928  16.802  0.00  0.00    +0.029 A 
ATOM     25  C   UNL     1     -12.190  -7.577  14.425  0.00  0.00    +0.005 A 
ATOM     26  C   UNL     1     -11.327  -5.916  15.953  0.00  0.00    +0.005 A 
ATOM     27  C   UNL     1     -11.982  -6.240  14.765  0.00  0.00    -0.050 A 
ATOM     28  C   UNL     1     -12.459  -5.157  13.856  0.00  0.00    +0.044 C 
ENDBRANCH   1  17
ENDBRANCH   8   1
ENDBRANCH  14   8
ENDBRANCH  12  14
TORSDOF 9
ENDMDL
MODEL 7
REMARK VINA RESULT:      -6.8      2.244      2.706
REMARK  Name = 75536710
REMARK  11 active torsions:
REMARK  status: ('A' for Active; 'I' for Inactive)
REMARK    1  A    between atoms: S_1  and  N_8
REMARK    2  A    between atoms: S_1  and  C_17
REMARK    3  A    between atoms: O_3  and  C_11
REMARK    4  A    between atoms: N_7  and  C_10
REMARK    5  A    between atoms: N_7  and  C_15
REMARK    6  A    between atoms: N_8  and  C_14
REMARK    7  A    between atoms: N_9  and  C_24
REMARK    8  A    between atoms: C_12  and  C_14
REMARK    9  A    between atoms: C_15  and  C_16
REMARK   10  A    between atoms: C_27  and  C_28
REMARK   11  A    between atoms: C_29  and  C_30
REMARK                            x       y       z     vdW  Elec       q    Type
REMARK                         _______ _______ _______ _____ _____    ______ ____
ROOT
ATOM      2  O   UNL     1     -17.722   4.680  24.612  0.00  0.00    -0.371 OA
ATOM     10  C   UNL     1     -16.203   4.513  22.804  0.00  0.00    +0.111 C 
ATOM     11  C   UNL     1     -16.207   3.182  23.536  0.00  0.00    +0.164 C 
ATOM     12  C   UNL     1     -17.028   3.434  24.800  0.00  0.00    +0.164 C 
ATOM     13  C   UNL     1     -17.514   5.126  23.266  0.00  0.00    +0.181 C 
ENDROOT
BRANCH  11   3
ATOM      3  O   UNL     1     -16.894   2.235  22.714  0.00  0.00    -0.388 OA
ATOM     32  H   UNL     1     -16.818   2.540  21.795  0.00  0.00    +0.210 HD
ENDBRANCH  11   3
BRANCH  10   7
ATOM      7  N   UNL     1     -15.073   5.346  23.206  0.00  0.00    -0.305 NA
ATOM     31  H   UNL     1     -14.864   5.173  24.190  0.00  0.00    +0.123 HD
BRANCH   7  15
ATOM     15  C   UNL     1     -13.887   5.039  22.415  0.00  0.00    +0.116 C 
BRANCH  15  16
ATOM     16  C   UNL     1     -13.418   6.230  21.622  0.00  0.00    -0.033 A 
ATOM     18  C   UNL     1     -14.310   7.257  21.310  0.00  0.00    +0.007 A 
ATOM     19  C   UNL     1     -12.090   6.309  21.201  0.00  0.00    +0.007 A 
ATOM     22  C   UNL     1     -13.875   8.361  20.578  0.00  0.00    +0.023 A 
ATOM     23  C   UNL     1     -11.656   7.413  20.468  0.00  0.00    +0.023 A 
ATOM     24  C   UNL     1     -12.548   8.439  20.156  0.00  0.00    +0.033 A 
BRANCH  24   9
ATOM      6  O   UNL     1     -11.848  11.226  21.053  0.00  0.00    -0.276 OA
ATOM      9  N   UNL     1     -12.112   9.544  19.423  0.00  0.00    -0.286 N 
ATOM     29  C   UNL     1     -11.800  10.826  19.895  0.00  0.00    +0.214 C 
ATOM     30  C   UNL     1     -11.364  11.741  18.779  0.00  0.00    +0.109 C 
ATOM     34  H   UNL     1     -12.012   9.388  18.422  0.00  0.00    +0.155 HD
ENDBRANCH  24   9
ENDBRANCH  15  16
ENDBRANCH   7  15
ENDBRANCH  10   7
BRANCH  12  14
ATOM     14  C   UNL     1     -16.183   3.543  26.060  0.00  0.00    +0.140 C 
BRANCH  14   8
ATOM      8  N   UNL     1     -17.025   3.283  27.245  0.00  0.00    -0.187 NA
ATOM     33  H   UNL     1     -17.011   4.022  27.958  0.00  0.00    +0.148 HD
BRANCH   8   1
ATOM      1  S   UNL     1     -17.248   1.689  27.798  0.00  0.00    +0.058 S 
ATOM      4  O   UNL     1     -16.534   0.775  26.929  0.00  0.00    -0.153 OA
ATOM      5  O   UNL     1     -18.655   1.480  28.079  0.00  0.00    -0.153 OA
BRANCH   1  17
ATOM     17  C   UNL     1     -16.410   1.726  29.355  0.00  0.00    +0.105 A 
ATOM     20  C   UNL     1     -16.409   2.894  30.118  0.00  0.00    +0.029 A 
ATOM     21  C   UNL     1     -15.748   0.590  29.817  0.00  0.00    +0.029 A 
ATOM     25  C   UNL     1     -15.745   2.926  31.344  0.00  0.00    +0.005 A 
ATOM     26  C   UNL     1     -15.085   0.620  31.044  0.00  0.00    +0.005 A 
ATOM     27  C   UNL     1     -15.084   1.788  31.807  0.00  0.00    -0.050 A 
ATOM     28  C   UNL     1     -14.374   1.821  33.119  0.00  0.00    +0.044 C 
ENDBRANCH   1  17
ENDBRANCH   8   1
ENDBRANCH  14   8
ENDBRANCH  12  14
TORSDOF 9
ENDMDL
MODEL 8
REMARK VINA RESULT:      -6.8      4.756      6.131
REMARK  Name = 75536710
REMARK  11 active torsions:
REMARK  status: ('A' for Active; 'I' for Inactive)
REMARK    1  A    between atoms: S_1  and  N_8
REMARK    2  A    between atoms: S_1  and  C_17
REMARK    3  A    between atoms: O_3  and  C_11
REMARK    4  A    between atoms: N_7  and  C_10
REMARK    5  A    between atoms: N_7  and  C_15
REMARK    6  A    between atoms: N_8  and  C_14
REMARK    7  A    between atoms: N_9  and  C_24
REMARK    8  A    between atoms: C_12  and  C_14
REMARK    9  A    between atoms: C_15  and  C_16
REMARK   10  A    between atoms: C_27  and  C_28
REMARK   11  A    between atoms: C_29  and  C_30
REMARK                            x       y       z     vdW  Elec       q    Type
REMARK                         _______ _______ _______ _____ _____    ______ ____
ROOT
ATOM      2  O   UNL     1     -16.257   7.425  21.219  0.00  0.00    -0.371 OA
ATOM     10  C   UNL     1     -14.242   6.285  21.712  0.00  0.00    +0.111 C 
ATOM     11  C   UNL     1     -14.970   6.535  23.022  0.00  0.00    +0.164 C 
ATOM     12  C   UNL     1     -16.133   7.455  22.652  0.00  0.00    +0.164 C 
ATOM     13  C   UNL     1     -15.364   6.432  20.699  0.00  0.00    +0.181 C 
ENDROOT
BRANCH  11   3
ATOM      3  O   UNL     1     -15.491   5.283  23.476  0.00  0.00    -0.388 OA
ATOM     32  H   UNL     1     -15.852   4.821  22.700  0.00  0.00    +0.210 HD
ENDBRANCH  11   3
BRANCH  10   7
ATOM      7  N   UNL     1     -13.199   7.281  21.478  0.00  0.00    -0.305 NA
ATOM     31  H   UNL     1     -12.862   7.630  22.376  0.00  0.00    +0.123 HD
BRANCH   7  15
ATOM     15  C   UNL     1     -12.076   6.703  20.750  0.00  0.00    +0.116 C 
BRANCH  15  16
ATOM     16  C   UNL     1     -11.429   7.706  19.831  0.00  0.00    -0.033 A 
ATOM     18  C   UNL     1     -11.393   7.472  18.456  0.00  0.00    +0.007 A 
ATOM     19  C   UNL     1     -10.865   8.870  20.355  0.00  0.00    +0.007 A 
ATOM     22  C   UNL     1     -10.795   8.401  17.605  0.00  0.00    +0.023 A 
ATOM     23  C   UNL     1     -10.267   9.798  19.503  0.00  0.00    +0.023 A 
ATOM     24  C   UNL     1     -10.231   9.564  18.129  0.00  0.00    +0.033 A 
BRANCH  24   9
ATOM      6  O   UNL     1     -10.421  12.569  18.074  0.00  0.00    -0.276 OA
ATOM      9  N   UNL     1      -9.633  10.494  17.277  0.00  0.00    -0.286 N 
ATOM     29  C   UNL     1      -9.758  11.890  17.296  0.00  0.00    +0.214 C 
ATOM     30  C   UNL     1      -8.946  12.538  16.204  0.00  0.00    +0.109 C 
ATOM     34  H   UNL     1      -9.033  10.099  16.556  0.00  0.00    +0.155 HD
ENDBRANCH  24   9
ENDBRANCH  15  16
ENDBRANCH   7  15
ENDBRANCH  10   7
BRANCH  12  14
ATOM     14  C   UNL     1     -15.926   8.898  23.084  0.00  0.00    +0.140 C 
BRANCH  14   8
ATOM      8  N   UNL     1     -14.673   9.009  23.855  0.00  0.00    -0.187 NA
ATOM     33  H   UNL     1     -14.678   8.529  24.764  0.00  0.00    +0.148 HD
BRANCH   8   1
ATOM      1  S   UNL     1     -13.722  10.416  23.739  0.00  0.00    +0.058 S 
ATOM      4  O   UNL     1     -14.586  11.564  23.544  0.00  0.00    -0.153 OA
ATOM      5  O   UNL     1     -12.622  10.168  22.828  0.00  0.00    -0.153 OA
BRANCH   1  17
ATOM     17  C   UNL     1     -13.034  10.523  25.364  0.00  0.00    +0.105 A 
ATOM     20  C   UNL     1     -13.867  10.456  26.480  0.00  0.00    +0.029 A 
ATOM     21  C   UNL     1     -11.658  10.678  25.529  0.00  0.00    +0.029 A 
ATOM     25  C   UNL     1     -13.325  10.544  27.763  0.00  0.00    +0.005 A 
ATOM     26  C   UNL     1     -11.115  10.764  26.811  0.00  0.00    +0.005 A 
ATOM     27  C   UNL     1     -11.948  10.697  27.927  0.00  0.00    -0.050 A 
ATOM     28  C   UNL     1     -11.368  10.791  29.299  0.00  0.00    +0.044 C 
ENDBRANCH   1  17
ENDBRANCH   8   1
ENDBRANCH  14   8
ENDBRANCH  12  14
TORSDOF 9
ENDMDL
MODEL 9
REMARK VINA RESULT:      -6.7      4.724     10.652
REMARK  Name = 75536710
REMARK  11 active torsions:
REMARK  status: ('A' for Active; 'I' for Inactive)
REMARK    1  A    between atoms: S_1  and  N_8
REMARK    2  A    between atoms: S_1  and  C_17
REMARK    3  A    between atoms: O_3  and  C_11
REMARK    4  A    between atoms: N_7  and  C_10
REMARK    5  A    between atoms: N_7  and  C_15
REMARK    6  A    between atoms: N_8  and  C_14
REMARK    7  A    between atoms: N_9  and  C_24
REMARK    8  A    between atoms: C_12  and  C_14
REMARK    9  A    between atoms: C_15  and  C_16
REMARK   10  A    between atoms: C_27  and  C_28
REMARK   11  A    between atoms: C_29  and  C_30
REMARK                            x       y       z     vdW  Elec       q    Type
REMARK                         _______ _______ _______ _____ _____    ______ ____
ROOT
ATOM      2  O   UNL     1     -12.314  11.993  16.602  0.00  0.00    -0.371 OA
ATOM     10  C   UNL     1     -11.408  11.768  18.778  0.00  0.00    +0.111 C 
ATOM     11  C   UNL     1     -10.432  12.583  17.947  0.00  0.00    +0.164 C 
ATOM     12  C   UNL     1     -10.969  12.499  16.519  0.00  0.00    +0.164 C 
ATOM     13  C   UNL     1     -12.694  11.915  17.981  0.00  0.00    +0.181 C 
ENDROOT
BRANCH  11   3
ATOM      3  O   UNL     1     -10.507  13.940  18.395  0.00  0.00    -0.388 OA
ATOM     32  H   UNL     1     -10.556  14.503  17.604  0.00  0.00    +0.210 HD
ENDBRANCH  11   3
BRANCH  10   7
ATOM      7  N   UNL     1     -11.007  10.365  18.857  0.00  0.00    -0.305 NA
ATOM     31  H   UNL     1     -10.125  10.242  18.358  0.00  0.00    +0.123 HD
BRANCH   7  15
ATOM     15  C   UNL     1     -10.823   9.949  20.242  0.00  0.00    +0.116 C 
BRANCH  15  16
ATOM     16  C   UNL     1     -11.819   8.895  20.647  0.00  0.00    -0.033 A 
ATOM     18  C   UNL     1     -11.516   7.544  20.475  0.00  0.00    +0.007 A 
ATOM     19  C   UNL     1     -13.046   9.269  21.196  0.00  0.00    +0.007 A 
ATOM     22  C   UNL     1     -12.439   6.568  20.852  0.00  0.00    +0.023 A 
ATOM     23  C   UNL     1     -13.969   8.293  21.572  0.00  0.00    +0.023 A 
ATOM     24  C   UNL     1     -13.665   6.943  21.399  0.00  0.00    +0.033 A 
BRANCH  24   9
ATOM      6  O   UNL     1     -13.551   4.893  23.602  0.00  0.00    -0.276 OA
ATOM      9  N   UNL     1     -14.588   5.966  21.777  0.00  0.00    -0.286 N 
ATOM     29  C   UNL     1     -14.482   5.031  22.816  0.00  0.00    +0.214 C 
ATOM     30  C   UNL     1     -15.700   4.147  22.897  0.00  0.00    +0.109 C 
ATOM     34  H   UNL     1     -15.441   5.937  21.222  0.00  0.00    +0.155 HD
ENDBRANCH  24   9
ENDBRANCH  15  16
ENDBRANCH   7  15
ENDBRANCH  10   7
BRANCH  12  14
ATOM     14  C   UNL     1     -10.164  11.572  15.622  0.00  0.00    +0.140 C 
BRANCH  14   8
ATOM      8  N   UNL     1     -11.063  10.577  15.005  0.00  0.00    -0.187 NA
ATOM     33  H   UNL     1     -12.008  10.920  14.789  0.00  0.00    +0.148 HD
BRANCH   8   1
ATOM      1  S   UNL     1     -10.921   8.931  15.414  0.00  0.00    +0.058 S 
ATOM      4  O   UNL     1     -10.164   8.806  16.645  0.00  0.00    -0.153 OA
ATOM      5  O   UNL     1     -10.526   8.185  14.236  0.00  0.00    -0.153 OA
BRANCH   1  17
ATOM     17  C   UNL     1     -12.600   8.498  15.761  0.00  0.00    +0.105 A 
ATOM     20  C   UNL     1     -13.477   8.216  14.714  0.00  0.00    +0.029 A 
ATOM     21  C   UNL     1     -13.047   8.443  17.081  0.00  0.00    +0.029 A 
ATOM     25  C   UNL     1     -14.803   7.878  14.987  0.00  0.00    +0.005 A 
ATOM     26  C   UNL     1     -14.372   8.104  17.354  0.00  0.00    +0.005 A 
ATOM     27  C   UNL     1     -15.250   7.822  16.307  0.00  0.00    -0.050 A 
ATOM     28  C   UNL     1     -16.668   7.460  16.599  0.00  0.00    +0.044 C 
ENDBRANCH   1  17
ENDBRANCH   8   1
ENDBRANCH  14   8
ENDBRANCH  12  14
TORSDOF 9
ENDMDL
MODEL 10
REMARK VINA RESULT:      -6.7     30.216     33.578
REMARK  Name = 75536710
REMARK  11 active torsions:
REMARK  status: ('A' for Active; 'I' for Inactive)
REMARK    1  A    between atoms: S_1  and  N_8
REMARK    2  A    between atoms: S_1  and  C_17
REMARK    3  A    between atoms: O_3  and  C_11
REMARK    4  A    between atoms: N_7  and  C_10
REMARK    5  A    between atoms: N_7  and  C_15
REMARK    6  A    between atoms: N_8  and  C_14
REMARK    7  A    between atoms: N_9  and  C_24
REMARK    8  A    between atoms: C_12  and  C_14
REMARK    9  A    between atoms: C_15  and  C_16
REMARK   10  A    between atoms: C_27  and  C_28
REMARK   11  A    between atoms: C_29  and  C_30
REMARK                            x       y       z     vdW  Elec       q    Type
REMARK                         _______ _______ _______ _____ _____    ______ ____
ROOT
ATOM      2  O   UNL     1      14.014   6.863   6.977  0.00  0.00    -0.371 OA
ATOM     10  C   UNL     1      14.046   7.887   4.843  0.00  0.00    +0.111 C 
ATOM     11  C   UNL     1      12.866   8.452   5.614  0.00  0.00    +0.164 C 
ATOM     12  C   UNL     1      12.779   7.596   6.877  0.00  0.00    +0.164 C 
ATOM     13  C   UNL     1      14.910   7.328   5.961  0.00  0.00    +0.181 C 
ENDROOT
BRANCH  11   3
ATOM      3  O   UNL     1      13.189   9.796   5.982  0.00  0.00    -0.388 OA
ATOM     32  H   UNL     1      12.359  10.234   6.234  0.00  0.00    +0.210 HD
ENDBRANCH  11   3
BRANCH  10   7
ATOM      7  N   UNL     1      13.633   6.826   3.928  0.00  0.00    -0.305 NA
ATOM     31  H   UNL     1      12.670   6.994   3.633  0.00  0.00    +0.123 HD
BRANCH   7  15
ATOM     15  C   UNL     1      14.485   6.790   2.746  0.00  0.00    +0.116 C 
BRANCH  15  16
ATOM     16  C   UNL     1      13.956   5.841   1.702  0.00  0.00    -0.033 A 
ATOM     18  C   UNL     1      13.346   4.648   2.089  0.00  0.00    +0.007 A 
ATOM     19  C   UNL     1      14.076   6.157   0.348  0.00  0.00    +0.007 A 
ATOM     22  C   UNL     1      12.855   3.770   1.122  0.00  0.00    +0.023 A 
ATOM     23  C   UNL     1      13.586   5.278  -0.618  0.00  0.00    +0.023 A 
ATOM     24  C   UNL     1      12.976   4.085  -0.231  0.00  0.00    +0.033 A 
BRANCH  24   9
ATOM      6  O   UNL     1      10.280   3.957  -1.565  0.00  0.00    -0.276 OA
ATOM      9  N   UNL     1      12.484   3.207  -1.198  0.00  0.00    -0.286 N 
ATOM     29  C   UNL     1      11.213   3.192  -1.787  0.00  0.00    +0.214 C 
ATOM     30  C   UNL     1      11.077   2.078  -2.794  0.00  0.00    +0.109 C 
ATOM     34  H   UNL     1      13.139   2.492  -1.508  0.00  0.00    +0.155 HD
ENDBRANCH  24   9
ENDBRANCH  15  16
ENDBRANCH   7  15
ENDBRANCH  10   7
BRANCH  12  14
ATOM     14  C   UNL     1      11.631   6.598   6.856  0.00  0.00    +0.140 C 
BRANCH  14   8
ATOM      8  N   UNL     1      11.668   5.828   5.597  0.00  0.00    -0.187 NA
ATOM     33  H   UNL     1      12.330   6.178   4.893  0.00  0.00    +0.148 HD
BRANCH   8   1
ATOM      1  S   UNL     1      10.253   5.083   5.013  0.00  0.00    +0.058 S 
ATOM      4  O   UNL     1       9.391   4.749   6.130  0.00  0.00    -0.153 OA
ATOM      5  O   UNL     1      10.621   4.068   4.046  0.00  0.00    -0.153 OA
BRANCH   1  17
ATOM     17  C   UNL     1       9.494   6.403   4.114  0.00  0.00    +0.105 A 
ATOM     20  C   UNL     1       9.878   6.660   2.798  0.00  0.00    +0.029 A 
ATOM     21  C   UNL     1       8.515   7.188   4.722  0.00  0.00    +0.029 A 
ATOM     25  C   UNL     1       9.282   7.703   2.089  0.00  0.00    +0.005 A 
ATOM     26  C   UNL     1       7.918   8.230   4.013  0.00  0.00    +0.005 A 
ATOM     27  C   UNL     1       8.301   8.487   2.697  0.00  0.00    -0.050 A 
ATOM     28  C   UNL     1       7.664   9.603   1.938  0.00  0.00    +0.044 C 
ENDBRANCH   1  17
ENDBRANCH   8   1
ENDBRANCH  14   8
ENDBRANCH  12  14
TORSDOF 9
ENDMDL
