REMARK  Name = 26743464
REMARK  13 active torsions:
REMARK  status: ('A' for Active; 'I' for Inactive)
REMARK    1  A    between atoms: S_1  and  C_23
REMARK    2  A    between atoms: S_1  and  C_27
REMARK    3  A    between atoms: O_3  and  C_15
REMARK    4  A    between atoms: O_5  and  C_20
REMARK    5  A    between atoms: O_5  and  C_28
REMARK    6  A    between atoms: O_6  and  C_24
REMARK    7  A    between atoms: O_6  and  C_31
REMARK    8  A    between atoms: O_7  and  C_26
REMARK    9  A    between atoms: O_7  and  C_32
REMARK   10  A    between atoms: N_10  and  C_17
REMARK   11  A    between atoms: C_13  and  C_18
REMARK   12  A    between atoms: C_17  and  C_19
REMARK   13  A    between atoms: C_21  and  C_23
REMARK                            x       y       z     vdW  Elec       q    Type
REMARK                         _______ _______ _______ _____ _____    ______ ____
ROOT
ATOM     10  N   UNL     1      -3.512   1.469   0.315  0.00  0.00    -0.284 NA
ATOM     13  C   UNL     1      -2.727   2.082  -0.776  0.00  0.00    +0.149 C 
ATOM     14  C   UNL     1      -2.612   3.569  -0.391  0.00  0.00    +0.061 C 
ATOM     15  C   UNL     1      -3.402   3.703   0.905  0.00  0.00    +0.130 C 
ATOM     16  C   UNL     1      -4.360   2.528   0.861  0.00  0.00    +0.116 C 
ENDROOT
BRANCH  13  18
ATOM      4  O   UNL     1      -1.121   0.912  -2.200  0.00  0.00    -0.336 OA
ATOM     11  N   UNL     1      -0.405   1.259  -0.106  0.00  0.00    -0.193 NA
ATOM     12  N   UNL     1       0.164   0.359  -2.131  0.00  0.00    -0.060 NA
ATOM     18  C   UNL     1      -1.378   1.421  -0.966  0.00  0.00    +0.245 A 
ATOM     21  C   UNL     1       0.519   0.603  -0.866  0.00  0.00    +0.193 A 
BRANCH  21  23
ATOM     23  C   UNL     1       1.821   0.190  -0.331  0.00  0.00    +0.251 C 
BRANCH  23   1
ATOM      1  S   UNL     1       3.070   1.260  -0.988  0.00  0.00    +0.004 S 
ATOM      8  O   UNL     1       2.786   2.604  -0.520  0.00  0.00    -0.169 OA
ATOM      9  O   UNL     1       3.211   0.989  -2.406  0.00  0.00    -0.169 OA
BRANCH   1  27
ATOM      2  F   UNL     1       8.023  -0.578   1.629  0.00  0.00    -0.205 F 
ATOM     27  C   UNL     1       4.555   0.710  -0.205  0.00  0.00    +0.089 A 
ATOM     29  C   UNL     1       5.331  -0.285  -0.800  0.00  0.00    +0.030 A 
ATOM     30  C   UNL     1       4.951   1.269   1.010  0.00  0.00    +0.030 A 
ATOM     33  C   UNL     1       6.502  -0.720  -0.181  0.00  0.00    +0.040 A 
ATOM     34  C   UNL     1       6.122   0.834   1.629  0.00  0.00    +0.040 A 
ATOM     35  C   UNL     1       6.898  -0.160   1.034  0.00  0.00    +0.124 A 
ENDBRANCH   1  27
ENDBRANCH  23   1
ENDBRANCH  21  23
ENDBRANCH  13  18
BRANCH  15   3
ATOM      3  O   UNL     1      -4.088   4.939   0.949  0.00  0.00    -0.390 OA
ATOM     36  H   UNL     1      -3.422   5.645   0.899  0.00  0.00    +0.210 HD
ENDBRANCH  15   3
BRANCH  10  17
ATOM     17  C   UNL     1      -4.287   0.312  -0.115  0.00  0.00    +0.124 C 
BRANCH  17  19
ATOM     19  C   UNL     1      -3.437  -0.926  -0.215  0.00  0.00    +0.012 A 
ATOM     20  C   UNL     1      -2.745  -1.409   0.896  0.00  0.00    +0.170 A 
ATOM     22  C   UNL     1      -3.346  -1.593  -1.437  0.00  0.00    +0.012 A 
ATOM     24  C   UNL     1      -1.962  -2.558   0.785  0.00  0.00    +0.204 A 
ATOM     25  C   UNL     1      -2.563  -2.742  -1.548  0.00  0.00    +0.050 A 
ATOM     26  C   UNL     1      -1.871  -3.224  -0.437  0.00  0.00    +0.165 A 
BRANCH  20   5
ATOM      5  O   UNL     1      -2.832  -0.760   2.092  0.00  0.00    -0.491 OA
ATOM     28  C   UNL     1      -3.876  -1.168   2.974  0.00  0.00    +0.277 C 
ENDBRANCH  20   5
BRANCH  24   6
ATOM      6  O   UNL     1      -1.285  -3.031   1.870  0.00  0.00    -0.488 OA
ATOM     31  C   UNL     1       0.039  -2.542   2.070  0.00  0.00    +0.277 C 
ENDBRANCH  24   6
BRANCH  26   7
ATOM      7  O   UNL     1      -1.111  -4.348  -0.559  0.00  0.00    -0.491 OA
ATOM     32  C   UNL     1      -1.073  -4.969  -1.842  0.00  0.00    +0.277 C 
ENDBRANCH  26   7
ENDBRANCH  17  19
ENDBRANCH  10  17
TORSDOF 10
