MODEL 1
REMARK VINA RESULT:      -7.5      0.000      0.000
REMARK  Name = 7134499
REMARK  14 active torsions:
REMARK  status: ('A' for Active; 'I' for Inactive)
REMARK    1  A    between atoms: O_1  and  C_20
REMARK    2  A    between atoms: O_2  and  C_22
REMARK    3  A    between atoms: O_3  and  C_23
REMARK    4  A    between atoms: O_5  and  C_27
REMARK    5  A    between atoms: N_9  and  C_18
REMARK    6  A    between atoms: N_10  and  C_28
REMARK    7  A    between atoms: C_12  and  C_17
REMARK    8  A    between atoms: C_12  and  C_19
REMARK    9  A    between atoms: C_17  and  C_25
REMARK   10  A    between atoms: C_19  and  C_27
REMARK   11  A    between atoms: C_20  and  C_26
REMARK   12  A    between atoms: C_28  and  C_29
REMARK   13  A    between atoms: C_28  and  C_30
REMARK   14  A    between atoms: C_29  and  C_31
REMARK                            x       y       z     vdW  Elec       q    Type
REMARK                         _______ _______ _______ _____ _____    ______ ____
ROOT
ATOM     18  C   UNL     1      17.532   6.671  21.243  0.00  0.00    +0.107 C 
ATOM     20  C   UNL     1      15.249   7.142  20.233  0.00  0.00    +0.146 C 
ATOM     21  C   UNL     1      16.376   7.669  21.123  0.00  0.00    +0.069 C 
ATOM     22  C   UNL     1      18.051   6.227  19.868  0.00  0.00    +0.163 C 
ATOM     23  C   UNL     1      16.922   5.719  18.966  0.00  0.00    +0.148 C 
ATOM     24  C   UNL     1      15.774   6.725  18.862  0.00  0.00    +0.078 C 
ENDROOT
BRANCH  18   9
ATOM      4  O   UNL     1      18.625   9.340  21.011  0.00  0.00    -0.276 OA
ATOM      9  N   UNL     1      18.601   7.251  22.027  0.00  0.00    -0.310 N 
ATOM     25  C   UNL     1      19.059   8.545  21.842  0.00  0.00    +0.214 C 
ATOM     37  H   UNL     1      19.072   6.647  22.694  0.00  0.00    +0.149 HD
BRANCH  25  17
ATOM     17  C   UNL     1      20.181   8.882  22.805  0.00  0.00    +0.103 C 
BRANCH  17  12
ATOM     12  C   UNL     1      21.566   8.650  22.199  0.00  0.00    -0.011 C 
ATOM     13  C   UNL     1      21.473   8.033  20.797  0.00  0.00    +0.008 C 
ATOM     14  C   UNL     1      22.285   9.975  21.907  0.00  0.00    +0.008 C 
ATOM     15  C   UNL     1      22.792   8.393  20.115  0.00  0.00    +0.001 C 
ATOM     16  C   UNL     1      23.313   9.640  20.828  0.00  0.00    +0.001 C 
BRANCH  12  19
ATOM     19  C   UNL     1      22.393   7.764  23.145  0.00  0.00    +0.127 C 
BRANCH  19  27
ATOM      7  O   UNL     1      20.908   5.838  23.321  0.00  0.00    -0.251 OA
ATOM     27  C   UNL     1      21.991   6.322  23.032  0.00  0.00    +0.305 C 
BRANCH  27   5
ATOM      5  O   UNL     1      23.035   5.602  22.546  0.00  0.00    -0.481 OA
ATOM     42  H   UNL     1      23.893   5.912  22.905  0.00  0.00    +0.295 HD
ENDBRANCH  27   5
ENDBRANCH  19  27
ENDBRANCH  12  19
ENDBRANCH  17  12
ENDBRANCH  25  17
ENDBRANCH  18   9
BRANCH  20  26
ATOM      6  O   UNL     1      14.198   9.015  19.188  0.00  0.00    -0.273 OA
ATOM     10  N   UNL     1      13.196   8.062  21.060  0.00  0.00    -0.301 N 
ATOM     26  C   UNL     1      14.169   8.174  20.082  0.00  0.00    +0.246 C 
ATOM     41  H   UNL     1      13.230   7.281  21.708  0.00  0.00    +0.150 HD
BRANCH  10  28
ATOM     28  C   UNL     1      12.060   8.950  21.151  0.00  0.00    +0.163 C 
BRANCH  28  30
ATOM      8  O   UNL     1      10.607   8.483  19.259  0.00  0.00    -0.274 OA
ATOM     11  N   UNL     1      10.249   7.351  21.225  0.00  0.00    -0.328 N 
ATOM     30  C   UNL     1      10.902   8.271  20.433  0.00  0.00    +0.231 C 
ATOM     43  H   UNL     1      10.520   7.168  22.187  0.00  0.00    +0.145 HD
ATOM     44  H   UNL     1       9.466   6.816  20.864  0.00  0.00    +0.145 HD
ENDBRANCH  28  30
BRANCH  28  29
ATOM     29  C   UNL     1      11.681   9.261  22.603  0.00  0.00    +0.067 C 
BRANCH  29  31
ATOM     31  C   UNL     1      11.316  10.710  22.813  0.00  0.00    -0.045 A 
ATOM     32  C   UNL     1      10.926  11.154  24.077  0.00  0.00    +0.004 A 
ATOM     33  C   UNL     1      11.369  11.605  21.744  0.00  0.00    +0.004 A 
ATOM     34  C   UNL     1      10.589  12.494  24.271  0.00  0.00    +0.000 A 
ATOM     35  C   UNL     1      11.033  12.945  21.939  0.00  0.00    +0.000 A 
ATOM     36  C   UNL     1      10.642  13.389  23.203  0.00  0.00    +0.000 A 
ENDBRANCH  29  31
ENDBRANCH  28  29
ENDBRANCH  10  28
ENDBRANCH  20  26
BRANCH  20   1
ATOM      1  O   UNL     1      14.610   6.029  20.846  0.00  0.00    -0.379 OA
ATOM     38  H   UNL     1      13.791   6.338  21.270  0.00  0.00    +0.211 HD
ENDBRANCH  20   1
BRANCH  22   2
ATOM      2  O   UNL     1      18.981   5.155  20.043  0.00  0.00    -0.387 OA
ATOM     39  H   UNL     1      19.051   4.677  19.199  0.00  0.00    +0.210 HD
ENDBRANCH  22   2
BRANCH  23   3
ATOM      3  O   UNL     1      17.455   5.491  17.662  0.00  0.00    -0.389 OA
ATOM     40  H   UNL     1      18.232   4.913  17.761  0.00  0.00    +0.210 HD
ENDBRANCH  23   3
TORSDOF 14
ENDMDL
MODEL 2
REMARK VINA RESULT:      -7.5     15.901     19.519
REMARK  Name = 7134499
REMARK  14 active torsions:
REMARK  status: ('A' for Active; 'I' for Inactive)
REMARK    1  A    between atoms: O_1  and  C_20
REMARK    2  A    between atoms: O_2  and  C_22
REMARK    3  A    between atoms: O_3  and  C_23
REMARK    4  A    between atoms: O_5  and  C_27
REMARK    5  A    between atoms: N_9  and  C_18
REMARK    6  A    between atoms: N_10  and  C_28
REMARK    7  A    between atoms: C_12  and  C_17
REMARK    8  A    between atoms: C_12  and  C_19
REMARK    9  A    between atoms: C_17  and  C_25
REMARK   10  A    between atoms: C_19  and  C_27
REMARK   11  A    between atoms: C_20  and  C_26
REMARK   12  A    between atoms: C_28  and  C_29
REMARK   13  A    between atoms: C_28  and  C_30
REMARK   14  A    between atoms: C_29  and  C_31
REMARK                            x       y       z     vdW  Elec       q    Type
REMARK                         _______ _______ _______ _____ _____    ______ ____
ROOT
ATOM     18  C   UNL     1      13.786   7.784   5.329  0.00  0.00    +0.107 C 
ATOM     20  C   UNL     1      14.849   7.297   3.073  0.00  0.00    +0.146 C 
ATOM     21  C   UNL     1      13.552   7.335   3.883  0.00  0.00    +0.069 C 
ATOM     22  C   UNL     1      14.540   9.118   5.399  0.00  0.00    +0.163 C 
ATOM     23  C   UNL     1      15.829   9.093   4.572  0.00  0.00    +0.148 C 
ATOM     24  C   UNL     1      15.579   8.637   3.134  0.00  0.00    +0.078 C 
ENDROOT
BRANCH  18   9
ATOM      4  O   UNL     1      12.937   6.257   7.637  0.00  0.00    -0.276 OA
ATOM      9  N   UNL     1      12.520   7.877   6.024  0.00  0.00    -0.310 N 
ATOM     25  C   UNL     1      12.202   7.099   7.126  0.00  0.00    +0.214 C 
ATOM     37  H   UNL     1      11.818   8.498   5.633  0.00  0.00    +0.149 HD
BRANCH  25  17
ATOM     17  C   UNL     1      10.814   7.415   7.647  0.00  0.00    +0.103 C 
BRANCH  17  12
ATOM     12  C   UNL     1       9.737   6.516   7.035  0.00  0.00    -0.011 C 
ATOM     13  C   UNL     1       8.729   7.324   6.208  0.00  0.00    +0.008 C 
ATOM     14  C   UNL     1      10.323   5.573   5.974  0.00  0.00    +0.008 C 
ATOM     15  C   UNL     1       8.118   6.321   5.233  0.00  0.00    +0.001 C 
ATOM     16  C   UNL     1       9.142   5.196   5.083  0.00  0.00    +0.001 C 
BRANCH  12  19
ATOM     19  C   UNL     1       9.037   5.728   8.155  0.00  0.00    +0.127 C 
BRANCH  19  27
ATOM      7  O   UNL     1      10.526   5.162  10.002  0.00  0.00    -0.251 OA
ATOM     27  C   UNL     1      10.015   4.891   8.926  0.00  0.00    +0.305 C 
BRANCH  27   5
ATOM      5  O   UNL     1      10.266   3.747   8.239  0.00  0.00    -0.481 OA
ATOM     42  H   UNL     1       9.631   3.035   8.467  0.00  0.00    +0.295 HD
ENDBRANCH  27   5
ENDBRANCH  19  27
ENDBRANCH  12  19
ENDBRANCH  17  12
ENDBRANCH  25  17
ENDBRANCH  18   9
BRANCH  20  26
ATOM      6  O   UNL     1      13.809   7.579   0.942  0.00  0.00    -0.273 OA
ATOM     10  N   UNL     1      15.243   5.775   1.265  0.00  0.00    -0.301 N 
ATOM     26  C   UNL     1      14.571   6.923   1.647  0.00  0.00    +0.246 C 
ATOM     41  H   UNL     1      15.908   5.352   1.906  0.00  0.00    +0.150 HD
BRANCH  10  28
ATOM     28  C   UNL     1      15.127   5.191  -0.051  0.00  0.00    +0.163 C 
BRANCH  28  30
ATOM      8  O   UNL     1      17.244   5.948  -0.975  0.00  0.00    -0.274 OA
ATOM     11  N   UNL     1      16.968   3.707  -0.554  0.00  0.00    -0.328 N 
ATOM     30  C   UNL     1      16.540   5.017  -0.591  0.00  0.00    +0.231 C 
ATOM     43  H   UNL     1      16.384   2.951  -0.210  0.00  0.00    +0.145 HD
ATOM     44  H   UNL     1      17.898   3.454  -0.871  0.00  0.00    +0.145 HD
ENDBRANCH  28  30
BRANCH  28  29
ATOM     29  C   UNL     1      14.395   3.845  -0.027  0.00  0.00    +0.067 C 
BRANCH  29  31
ATOM     31  C   UNL     1      13.009   3.945   0.562  0.00  0.00    -0.045 A 
ATOM     32  C   UNL     1      12.751   3.429   1.832  0.00  0.00    +0.004 A 
ATOM     33  C   UNL     1      11.985   4.553  -0.165  0.00  0.00    +0.004 A 
ATOM     34  C   UNL     1      11.470   3.522   2.375  0.00  0.00    +0.000 A 
ATOM     35  C   UNL     1      10.704   4.646   0.379  0.00  0.00    +0.000 A 
ATOM     36  C   UNL     1      10.447   4.130   1.649  0.00  0.00    +0.000 A 
ENDBRANCH  29  31
ENDBRANCH  28  29
ENDBRANCH  10  28
ENDBRANCH  20  26
BRANCH  20   1
ATOM      1  O   UNL     1      15.711   6.275   3.561  0.00  0.00    -0.379 OA
ATOM     38  H   UNL     1      16.065   5.783   2.801  0.00  0.00    +0.211 HD
ENDBRANCH  20   1
BRANCH  22   2
ATOM      2  O   UNL     1      14.904   9.380   6.758  0.00  0.00    -0.387 OA
ATOM     39  H   UNL     1      15.639  10.015   6.755  0.00  0.00    +0.210 HD
ENDBRANCH  22   2
BRANCH  23   3
ATOM      3  O   UNL     1      16.377  10.411   4.550  0.00  0.00    -0.389 OA
ATOM     40  H   UNL     1      15.886  10.920   3.881  0.00  0.00    +0.210 HD
ENDBRANCH  23   3
TORSDOF 14
ENDMDL
MODEL 3
REMARK VINA RESULT:      -7.4      1.386      2.326
REMARK  Name = 7134499
REMARK  14 active torsions:
REMARK  status: ('A' for Active; 'I' for Inactive)
REMARK    1  A    between atoms: O_1  and  C_20
REMARK    2  A    between atoms: O_2  and  C_22
REMARK    3  A    between atoms: O_3  and  C_23
REMARK    4  A    between atoms: O_5  and  C_27
REMARK    5  A    between atoms: N_9  and  C_18
REMARK    6  A    between atoms: N_10  and  C_28
REMARK    7  A    between atoms: C_12  and  C_17
REMARK    8  A    between atoms: C_12  and  C_19
REMARK    9  A    between atoms: C_17  and  C_25
REMARK   10  A    between atoms: C_19  and  C_27
REMARK   11  A    between atoms: C_20  and  C_26
REMARK   12  A    between atoms: C_28  and  C_29
REMARK   13  A    between atoms: C_28  and  C_30
REMARK   14  A    between atoms: C_29  and  C_31
REMARK                            x       y       z     vdW  Elec       q    Type
REMARK                         _______ _______ _______ _____ _____    ______ ____
ROOT
ATOM     18  C   UNL     1      18.000   7.076  21.136  0.00  0.00    +0.107 C 
ATOM     20  C   UNL     1      15.534   7.608  20.831  0.00  0.00    +0.146 C 
ATOM     21  C   UNL     1      16.907   8.145  21.238  0.00  0.00    +0.069 C 
ATOM     22  C   UNL     1      18.032   6.422  19.748  0.00  0.00    +0.163 C 
ATOM     23  C   UNL     1      16.656   5.901  19.327  0.00  0.00    +0.148 C 
ATOM     24  C   UNL     1      15.575   6.979  19.440  0.00  0.00    +0.078 C 
ENDROOT
BRANCH  18   9
ATOM      4  O   UNL     1      19.862   6.203  23.171  0.00  0.00    -0.276 OA
ATOM      9  N   UNL     1      19.286   7.658  21.455  0.00  0.00    -0.310 N 
ATOM     25  C   UNL     1      20.112   7.168  22.453  0.00  0.00    +0.214 C 
ATOM     37  H   UNL     1      19.550   8.506  20.961  0.00  0.00    +0.149 HD
BRANCH  25  17
ATOM     17  C   UNL     1      21.393   7.973  22.560  0.00  0.00    +0.103 C 
BRANCH  17  12
ATOM     12  C   UNL     1      22.433   7.565  21.515  0.00  0.00    -0.011 C 
ATOM     13  C   UNL     1      23.848   7.535  22.109  0.00  0.00    +0.008 C 
ATOM     14  C   UNL     1      22.250   6.106  21.074  0.00  0.00    +0.008 C 
ATOM     15  C   UNL     1      24.640   6.598  21.200  0.00  0.00    +0.001 C 
ATOM     16  C   UNL     1      23.614   5.681  20.535  0.00  0.00    +0.001 C 
BRANCH  12  19
ATOM     19  C   UNL     1      22.351   8.525  20.316  0.00  0.00    +0.127 C 
BRANCH  19  27
ATOM      7  O   UNL     1      23.013  10.692  21.217  0.00  0.00    -0.251 OA
ATOM     27  C   UNL     1      22.159   9.944  20.766  0.00  0.00    +0.305 C 
BRANCH  27   5
ATOM      5  O   UNL     1      20.859  10.297  20.597  0.00  0.00    -0.481 OA
ATOM     42  H   UNL     1      20.452   9.841  19.830  0.00  0.00    +0.295 HD
ENDBRANCH  27   5
ENDBRANCH  19  27
ENDBRANCH  12  19
ENDBRANCH  17  12
ENDBRANCH  25  17
ENDBRANCH  18   9
BRANCH  20  26
ATOM      6  O   UNL     1      14.818   9.886  20.836  0.00  0.00    -0.273 OA
ATOM     10  N   UNL     1      13.218   8.202  20.985  0.00  0.00    -0.301 N 
ATOM     26  C   UNL     1      14.505   8.699  20.875  0.00  0.00    +0.246 C 
ATOM     41  H   UNL     1      13.066   7.199  20.932  0.00  0.00    +0.150 HD
BRANCH  10  28
ATOM     28  C   UNL     1      12.048   9.046  21.069  0.00  0.00    +0.163 C 
BRANCH  28  30
ATOM      8  O   UNL     1      10.574   8.491  19.219  0.00  0.00    -0.274 OA
ATOM     11  N   UNL     1      10.323   7.358  21.200  0.00  0.00    -0.328 N 
ATOM     30  C   UNL     1      10.909   8.304  20.386  0.00  0.00    +0.231 C 
ATOM     43  H   UNL     1      10.627   7.196  22.156  0.00  0.00    +0.145 HD
ATOM     44  H   UNL     1       9.559   6.781  20.863  0.00  0.00    +0.145 HD
ENDBRANCH  28  30
BRANCH  28  29
ATOM     29  C   UNL     1      11.676   9.379  22.518  0.00  0.00    +0.067 C 
BRANCH  29  31
ATOM     31  C   UNL     1      11.301  10.829  22.707  0.00  0.00    -0.045 A 
ATOM     32  C   UNL     1      11.409  11.721  21.641  0.00  0.00    +0.004 A 
ATOM     33  C   UNL     1      10.848  11.276  23.948  0.00  0.00    +0.004 A 
ATOM     34  C   UNL     1      11.062  13.061  21.816  0.00  0.00    +0.000 A 
ATOM     35  C   UNL     1      10.500  12.616  24.123  0.00  0.00    +0.000 A 
ATOM     36  C   UNL     1      10.608  13.508  23.055  0.00  0.00    +0.000 A 
ENDBRANCH  29  31
ENDBRANCH  28  29
ENDBRANCH  10  28
ENDBRANCH  20  26
BRANCH  20   1
ATOM      1  O   UNL     1      15.082   6.637  21.767  0.00  0.00    -0.379 OA
ATOM     38  H   UNL     1      14.930   5.800  21.295  0.00  0.00    +0.211 HD
ENDBRANCH  20   1
BRANCH  22   2
ATOM      2  O   UNL     1      18.926   5.306  19.778  0.00  0.00    -0.387 OA
ATOM     39  H   UNL     1      18.461   4.538  19.405  0.00  0.00    +0.210 HD
ENDBRANCH  22   2
BRANCH  23   3
ATOM      3  O   UNL     1      16.733   5.467  17.969  0.00  0.00    -0.389 OA
ATOM     40  H   UNL     1      16.173   6.061  17.440  0.00  0.00    +0.210 HD
ENDBRANCH  23   3
TORSDOF 14
ENDMDL
MODEL 4
REMARK VINA RESULT:      -7.1      1.389      2.030
REMARK  Name = 7134499
REMARK  14 active torsions:
REMARK  status: ('A' for Active; 'I' for Inactive)
REMARK    1  A    between atoms: O_1  and  C_20
REMARK    2  A    between atoms: O_2  and  C_22
REMARK    3  A    between atoms: O_3  and  C_23
REMARK    4  A    between atoms: O_5  and  C_27
REMARK    5  A    between atoms: N_9  and  C_18
REMARK    6  A    between atoms: N_10  and  C_28
REMARK    7  A    between atoms: C_12  and  C_17
REMARK    8  A    between atoms: C_12  and  C_19
REMARK    9  A    between atoms: C_17  and  C_25
REMARK   10  A    between atoms: C_19  and  C_27
REMARK   11  A    between atoms: C_20  and  C_26
REMARK   12  A    between atoms: C_28  and  C_29
REMARK   13  A    between atoms: C_28  and  C_30
REMARK   14  A    between atoms: C_29  and  C_31
REMARK                            x       y       z     vdW  Elec       q    Type
REMARK                         _______ _______ _______ _____ _____    ______ ____
ROOT
ATOM     18  C   UNL     1      17.874   7.063  21.052  0.00  0.00    +0.107 C 
ATOM     20  C   UNL     1      15.429   7.493  20.508  0.00  0.00    +0.146 C 
ATOM     21  C   UNL     1      16.740   8.092  21.021  0.00  0.00    +0.069 C 
ATOM     22  C   UNL     1      18.056   6.371  19.694  0.00  0.00    +0.163 C 
ATOM     23  C   UNL     1      16.742   5.788  19.166  0.00  0.00    +0.148 C 
ATOM     24  C   UNL     1      15.620   6.827  19.148  0.00  0.00    +0.078 C 
ENDROOT
BRANCH  18   9
ATOM      4  O   UNL     1      19.998   5.906  22.641  0.00  0.00    -0.276 OA
ATOM      9  N   UNL     1      19.104   7.701  21.467  0.00  0.00    -0.310 N 
ATOM     25  C   UNL     1      20.067   7.063  22.233  0.00  0.00    +0.214 C 
ATOM     37  H   UNL     1      19.222   8.683  21.237  0.00  0.00    +0.149 HD
BRANCH  25  17
ATOM     17  C   UNL     1      21.247   7.973  22.513  0.00  0.00    +0.103 C 
BRANCH  17  12
ATOM     12  C   UNL     1      21.045   8.831  23.763  0.00  0.00    -0.011 C 
ATOM     13  C   UNL     1      22.340   9.543  24.175  0.00  0.00    +0.008 C 
ATOM     14  C   UNL     1      20.111  10.019  23.489  0.00  0.00    +0.008 C 
ATOM     15  C   UNL     1      21.888  10.745  25.001  0.00  0.00    +0.001 C 
ATOM     16  C   UNL     1      20.456  11.050  24.561  0.00  0.00    +0.001 C 
BRANCH  12  19
ATOM     19  C   UNL     1      20.506   7.949  24.902  0.00  0.00    +0.127 C 
BRANCH  19  27
ATOM      7  O   UNL     1      22.269   6.279  25.122  0.00  0.00    -0.251 OA
ATOM     27  C   UNL     1      21.615   7.201  25.583  0.00  0.00    +0.305 C 
BRANCH  27   5
ATOM      5  O   UNL     1      21.799   7.708  26.829  0.00  0.00    -0.481 OA
ATOM     42  H   UNL     1      22.067   7.015  27.471  0.00  0.00    +0.295 HD
ENDBRANCH  27   5
ENDBRANCH  19  27
ENDBRANCH  12  19
ENDBRANCH  17  12
ENDBRANCH  25  17
ENDBRANCH  18   9
BRANCH  20  26
ATOM      6  O   UNL     1      14.554   9.616  19.854  0.00  0.00    -0.273 OA
ATOM     10  N   UNL     1      13.200   8.166  21.072  0.00  0.00    -0.301 N 
ATOM     26  C   UNL     1      14.363   8.546  20.425  0.00  0.00    +0.246 C 
ATOM     41  H   UNL     1      13.124   7.226  21.447  0.00  0.00    +0.150 HD
BRANCH  10  28
ATOM     28  C   UNL     1      12.031   9.011  21.157  0.00  0.00    +0.163 C 
BRANCH  28  30
ATOM      8  O   UNL     1      10.608   8.471  19.262  0.00  0.00    -0.274 OA
ATOM     11  N   UNL     1      10.271   7.357  21.241  0.00  0.00    -0.328 N 
ATOM     30  C   UNL     1      10.901   8.286  20.441  0.00  0.00    +0.231 C 
ATOM     43  H   UNL     1      10.539   7.195  22.207  0.00  0.00    +0.145 HD
ATOM     44  H   UNL     1       9.507   6.792  20.882  0.00  0.00    +0.145 HD
ENDBRANCH  28  30
BRANCH  28  29
ATOM     29  C   UNL     1      11.637   9.313  22.607  0.00  0.00    +0.067 C 
BRANCH  29  31
ATOM     31  C   UNL     1      11.277  10.763  22.824  0.00  0.00    -0.045 A 
ATOM     32  C   UNL     1      10.892  11.204  24.090  0.00  0.00    +0.004 A 
ATOM     33  C   UNL     1      11.330  11.662  21.759  0.00  0.00    +0.004 A 
ATOM     34  C   UNL     1      10.559  12.544  24.290  0.00  0.00    +0.000 A 
ATOM     35  C   UNL     1      10.998  13.002  21.959  0.00  0.00    +0.000 A 
ATOM     36  C   UNL     1      10.612  13.442  23.226  0.00  0.00    +0.000 A 
ENDBRANCH  29  31
ENDBRANCH  28  29
ENDBRANCH  10  28
ENDBRANCH  20  26
BRANCH  20   1
ATOM      1  O   UNL     1      14.927   6.532  21.430  0.00  0.00    -0.379 OA
ATOM     38  H   UNL     1      14.258   6.963  21.990  0.00  0.00    +0.211 HD
ENDBRANCH  20   1
BRANCH  22   2
ATOM      2  O   UNL     1      18.981   5.290  19.840  0.00  0.00    -0.387 OA
ATOM     39  H   UNL     1      18.472   4.476  19.987  0.00  0.00    +0.210 HD
ENDBRANCH  22   2
BRANCH  23   3
ATOM      3  O   UNL     1      16.959   5.319  17.835  0.00  0.00    -0.389 OA
ATOM     40  H   UNL     1      17.592   4.582  17.885  0.00  0.00    +0.210 HD
ENDBRANCH  23   3
TORSDOF 14
ENDMDL
MODEL 5
REMARK VINA RESULT:      -7.0     27.025     31.761
REMARK  Name = 7134499
REMARK  14 active torsions:
REMARK  status: ('A' for Active; 'I' for Inactive)
REMARK    1  A    between atoms: O_1  and  C_20
REMARK    2  A    between atoms: O_2  and  C_22
REMARK    3  A    between atoms: O_3  and  C_23
REMARK    4  A    between atoms: O_5  and  C_27
REMARK    5  A    between atoms: N_9  and  C_18
REMARK    6  A    between atoms: N_10  and  C_28
REMARK    7  A    between atoms: C_12  and  C_17
REMARK    8  A    between atoms: C_12  and  C_19
REMARK    9  A    between atoms: C_17  and  C_25
REMARK   10  A    between atoms: C_19  and  C_27
REMARK   11  A    between atoms: C_20  and  C_26
REMARK   12  A    between atoms: C_28  and  C_29
REMARK   13  A    between atoms: C_28  and  C_30
REMARK   14  A    between atoms: C_29  and  C_31
REMARK                            x       y       z     vdW  Elec       q    Type
REMARK                         _______ _______ _______ _____ _____    ______ ____
ROOT
ATOM     18  C   UNL     1      -8.601 -11.080  17.839  0.00  0.00    +0.107 C 
ATOM     20  C   UNL     1      -6.238 -11.109  16.903  0.00  0.00    +0.146 C 
ATOM     21  C   UNL     1      -7.639 -10.503  16.795  0.00  0.00    +0.069 C 
ATOM     22  C   UNL     1      -8.037 -10.964  19.262  0.00  0.00    +0.163 C 
ATOM     23  C   UNL     1      -6.627 -11.549  19.370  0.00  0.00    +0.148 C 
ATOM     24  C   UNL     1      -5.681 -10.967  18.317  0.00  0.00    +0.078 C 
ENDROOT
BRANCH  18   9
ATOM      4  O   UNL     1     -10.723 -11.635  15.952  0.00  0.00    -0.276 OA
ATOM      9  N   UNL     1      -9.883 -10.417  17.743  0.00  0.00    -0.310 N 
ATOM     25  C   UNL     1     -10.841 -10.754  16.800  0.00  0.00    +0.214 C 
ATOM     37  H   UNL     1     -10.047  -9.626  18.358  0.00  0.00    +0.149 HD
BRANCH  25  17
ATOM     17  C   UNL     1     -12.083  -9.895  16.938  0.00  0.00    +0.103 C 
BRANCH  17  12
ATOM     12  C   UNL     1     -12.223  -8.876  15.806  0.00  0.00    -0.011 C 
ATOM     13  C   UNL     1     -12.938  -9.478  14.589  0.00  0.00    +0.008 C 
ATOM     14  C   UNL     1     -13.172  -7.732  16.188  0.00  0.00    +0.008 C 
ATOM     15  C   UNL     1     -13.510  -8.282  13.832  0.00  0.00    +0.001 C 
ATOM     16  C   UNL     1     -13.661  -7.161  14.859  0.00  0.00    +0.001 C 
BRANCH  12  19
ATOM     19  C   UNL     1     -10.830  -8.344  15.428  0.00  0.00    +0.127 C 
BRANCH  19  27
ATOM      7  O   UNL     1     -10.047  -7.420  17.545  0.00  0.00    -0.251 OA
ATOM     27  C   UNL     1     -10.380  -7.273  16.379  0.00  0.00    +0.305 C 
BRANCH  27   5
ATOM      5  O   UNL     1     -10.392  -6.073  15.743  0.00  0.00    -0.481 OA
ATOM     42  H   UNL     1     -10.056  -6.142  14.824  0.00  0.00    +0.295 HD
ENDBRANCH  27   5
ENDBRANCH  19  27
ENDBRANCH  12  19
ENDBRANCH  17  12
ENDBRANCH  25  17
ENDBRANCH  18   9
BRANCH  20  26
ATOM      6  O   UNL     1      -5.692  -9.606  15.129  0.00  0.00    -0.273 OA
ATOM     10  N   UNL     1      -4.026 -10.983  15.992  0.00  0.00    -0.301 N 
ATOM     26  C   UNL     1      -5.309 -10.470  15.914  0.00  0.00    +0.246 C 
ATOM     41  H   UNL     1      -3.798 -11.642  16.731  0.00  0.00    +0.150 HD
BRANCH  10  28
ATOM     28  C   UNL     1      -2.947 -10.552  15.132  0.00  0.00    +0.163 C 
BRANCH  28  30
ATOM      8  O   UNL     1      -0.590 -10.158  15.574  0.00  0.00    -0.274 OA
ATOM     11  N   UNL     1      -1.859 -11.165  17.202  0.00  0.00    -0.328 N 
ATOM     30  C   UNL     1      -1.668 -10.606  15.956  0.00  0.00    +0.231 C 
ATOM     43  H   UNL     1      -2.761 -11.509  17.514  0.00  0.00    +0.145 HD
ATOM     44  H   UNL     1      -1.089 -11.249  17.858  0.00  0.00    +0.145 HD
ENDBRANCH  28  30
BRANCH  28  29
ATOM     29  C   UNL     1      -2.816 -11.429  13.883  0.00  0.00    +0.067 C 
BRANCH  29  31
ATOM     31  C   UNL     1      -2.945 -10.642  12.601  0.00  0.00    -0.045 A 
ATOM     32  C   UNL     1      -4.202 -10.444  12.029  0.00  0.00    +0.004 A 
ATOM     33  C   UNL     1      -1.808 -10.114  11.989  0.00  0.00    +0.004 A 
ATOM     34  C   UNL     1      -4.321  -9.716  10.844  0.00  0.00    +0.000 A 
ATOM     35  C   UNL     1      -1.928  -9.386  10.805  0.00  0.00    +0.000 A 
ATOM     36  C   UNL     1      -3.185  -9.188  10.233  0.00  0.00    +0.000 A 
ENDBRANCH  29  31
ENDBRANCH  28  29
ENDBRANCH  10  28
ENDBRANCH  20  26
BRANCH  20   1
ATOM      1  O   UNL     1      -6.263 -12.487  16.548  0.00  0.00    -0.379 OA
ATOM     38  H   UNL     1      -5.825 -12.994  17.253  0.00  0.00    +0.211 HD
ENDBRANCH  20   1
BRANCH  22   2
ATOM      2  O   UNL     1      -8.879 -11.693  20.160  0.00  0.00    -0.387 OA
ATOM     39  H   UNL     1      -8.902 -11.215  21.006  0.00  0.00    +0.210 HD
ENDBRANCH  22   2
BRANCH  23   3
ATOM      3  O   UNL     1      -6.112 -11.249  20.668  0.00  0.00    -0.389 OA
ATOM     40  H   UNL     1      -5.470 -10.526  20.568  0.00  0.00    +0.210 HD
ENDBRANCH  23   3
TORSDOF 14
ENDMDL
MODEL 6
REMARK VINA RESULT:      -6.9     16.313     19.971
REMARK  Name = 7134499
REMARK  14 active torsions:
REMARK  status: ('A' for Active; 'I' for Inactive)
REMARK    1  A    between atoms: O_1  and  C_20
REMARK    2  A    between atoms: O_2  and  C_22
REMARK    3  A    between atoms: O_3  and  C_23
REMARK    4  A    between atoms: O_5  and  C_27
REMARK    5  A    between atoms: N_9  and  C_18
REMARK    6  A    between atoms: N_10  and  C_28
REMARK    7  A    between atoms: C_12  and  C_17
REMARK    8  A    between atoms: C_12  and  C_19
REMARK    9  A    between atoms: C_17  and  C_25
REMARK   10  A    between atoms: C_19  and  C_27
REMARK   11  A    between atoms: C_20  and  C_26
REMARK   12  A    between atoms: C_28  and  C_29
REMARK   13  A    between atoms: C_28  and  C_30
REMARK   14  A    between atoms: C_29  and  C_31
REMARK                            x       y       z     vdW  Elec       q    Type
REMARK                         _______ _______ _______ _____ _____    ______ ____
ROOT
ATOM     18  C   UNL     1      13.915   7.379   4.713  0.00  0.00    +0.107 C 
ATOM     20  C   UNL     1      14.749   6.812   2.380  0.00  0.00    +0.146 C 
ATOM     21  C   UNL     1      13.526   7.064   3.265  0.00  0.00    +0.069 C 
ATOM     22  C   UNL     1      14.926   8.530   4.796  0.00  0.00    +0.163 C 
ATOM     23  C   UNL     1      16.142   8.293   3.896  0.00  0.00    +0.148 C 
ATOM     24  C   UNL     1      15.736   7.974   2.456  0.00  0.00    +0.078 C 
ENDROOT
BRANCH  18   9
ATOM      4  O   UNL     1      13.331   6.566   7.428  0.00  0.00    -0.276 OA
ATOM      9  N   UNL     1      12.729   7.686   5.483  0.00  0.00    -0.310 N 
ATOM     25  C   UNL     1      12.538   7.249   6.784  0.00  0.00    +0.214 C 
ATOM     37  H   UNL     1      11.983   8.188   5.012  0.00  0.00    +0.149 HD
BRANCH  25  17
ATOM     17  C   UNL     1      11.209   7.723   7.340  0.00  0.00    +0.103 C 
BRANCH  17  12
ATOM     12  C   UNL     1      10.163   6.608   7.395  0.00  0.00    -0.011 C 
ATOM     13  C   UNL     1      10.324   5.625   6.228  0.00  0.00    +0.008 C 
ATOM     14  C   UNL     1      10.377   5.690   8.606  0.00  0.00    +0.008 C 
ATOM     15  C   UNL     1       9.666   4.332   6.704  0.00  0.00    +0.001 C 
ATOM     16  C   UNL     1       9.700   4.374   8.231  0.00  0.00    +0.001 C 
BRANCH  12  19
ATOM     19  C   UNL     1       8.757   7.232   7.410  0.00  0.00    +0.127 C 
BRANCH  19  27
ATOM      7  O   UNL     1       8.762   8.835   5.572  0.00  0.00    -0.251 OA
ATOM     27  C   UNL     1       8.390   7.780   6.061  0.00  0.00    +0.305 C 
BRANCH  27   5
ATOM      5  O   UNL     1       7.554   6.911   5.436  0.00  0.00    -0.481 OA
ATOM     42  H   UNL     1       7.970   6.508   4.644  0.00  0.00    +0.295 HD
ENDBRANCH  27   5
ENDBRANCH  19  27
ENDBRANCH  12  19
ENDBRANCH  17  12
ENDBRANCH  25  17
ENDBRANCH  18   9
BRANCH  20  26
ATOM      6  O   UNL     1      13.662   7.398   0.336  0.00  0.00    -0.273 OA
ATOM     10  N   UNL     1      14.770   5.356   0.478  0.00  0.00    -0.301 N 
ATOM     26  C   UNL     1      14.332   6.578   0.958  0.00  0.00    +0.246 C 
ATOM     41  H   UNL     1      15.384   4.787   1.052  0.00  0.00    +0.150 HD
BRANCH  10  28
ATOM     28  C   UNL     1      14.482   4.881  -0.857  0.00  0.00    +0.163 C 
BRANCH  28  30
ATOM      8  O   UNL     1      16.724   3.942  -0.821  0.00  0.00    -0.274 OA
ATOM     11  N   UNL     1      15.838   4.595  -2.837  0.00  0.00    -0.328 N 
ATOM     30  C   UNL     1      15.803   4.435  -1.468  0.00  0.00    +0.231 C 
ATOM     43  H   UNL     1      15.060   4.981  -3.363  0.00  0.00    +0.145 HD
ATOM     44  H   UNL     1      16.657   4.322  -3.372  0.00  0.00    +0.145 HD
ENDBRANCH  28  30
BRANCH  28  29
ATOM     29  C   UNL     1      13.476   3.725  -0.857  0.00  0.00    +0.067 C 
BRANCH  29  31
ATOM     31  C   UNL     1      12.386   3.901   0.172  0.00  0.00    -0.045 A 
ATOM     32  C   UNL     1      12.536   3.356   1.447  0.00  0.00    +0.004 A 
ATOM     33  C   UNL     1      11.227   4.608  -0.153  0.00  0.00    +0.004 A 
ATOM     34  C   UNL     1      11.528   3.519   2.398  0.00  0.00    +0.000 A 
ATOM     35  C   UNL     1      10.220   4.771   0.798  0.00  0.00    +0.000 A 
ATOM     36  C   UNL     1      10.370   4.226   2.074  0.00  0.00    +0.000 A 
ENDBRANCH  29  31
ENDBRANCH  28  29
ENDBRANCH  10  28
ENDBRANCH  20  26
BRANCH  20   1
ATOM      1  O   UNL     1      15.408   5.614   2.773  0.00  0.00    -0.379 OA
ATOM     38  H   UNL     1      16.145   5.847   3.363  0.00  0.00    +0.211 HD
ENDBRANCH  20   1
BRANCH  22   2
ATOM      2  O   UNL     1      15.399   8.641   6.142  0.00  0.00    -0.387 OA
ATOM     39  H   UNL     1      16.316   8.317   6.166  0.00  0.00    +0.210 HD
ENDBRANCH  22   2
BRANCH  23   3
ATOM      3  O   UNL     1      16.943   9.474   3.899  0.00  0.00    -0.389 OA
ATOM     40  H   UNL     1      17.151   9.684   4.826  0.00  0.00    +0.210 HD
ENDBRANCH  23   3
TORSDOF 14
ENDMDL
MODEL 7
REMARK VINA RESULT:      -6.6     28.147     30.948
REMARK  Name = 7134499
REMARK  14 active torsions:
REMARK  status: ('A' for Active; 'I' for Inactive)
REMARK    1  A    between atoms: O_1  and  C_20
REMARK    2  A    between atoms: O_2  and  C_22
REMARK    3  A    between atoms: O_3  and  C_23
REMARK    4  A    between atoms: O_5  and  C_27
REMARK    5  A    between atoms: N_9  and  C_18
REMARK    6  A    between atoms: N_10  and  C_28
REMARK    7  A    between atoms: C_12  and  C_17
REMARK    8  A    between atoms: C_12  and  C_19
REMARK    9  A    between atoms: C_17  and  C_25
REMARK   10  A    between atoms: C_19  and  C_27
REMARK   11  A    between atoms: C_20  and  C_26
REMARK   12  A    between atoms: C_28  and  C_29
REMARK   13  A    between atoms: C_28  and  C_30
REMARK   14  A    between atoms: C_29  and  C_31
REMARK                            x       y       z     vdW  Elec       q    Type
REMARK                         _______ _______ _______ _____ _____    ______ ____
ROOT
ATOM     18  C   UNL     1      -5.250 -10.278  16.932  0.00  0.00    +0.107 C 
ATOM     20  C   UNL     1      -6.964 -10.859  18.715  0.00  0.00    +0.146 C 
ATOM     21  C   UNL     1      -6.735 -10.312  17.305  0.00  0.00    +0.069 C 
ATOM     22  C   UNL     1      -4.580 -11.645  17.128  0.00  0.00    +0.163 C 
ATOM     23  C   UNL     1      -4.824 -12.207  18.532  0.00  0.00    +0.148 C 
ATOM     24  C   UNL     1      -6.311 -12.227  18.891  0.00  0.00    +0.078 C 
ENDROOT
BRANCH  18   9
ATOM      4  O   UNL     1      -6.477 -11.411  14.569  0.00  0.00    -0.276 OA
ATOM      9  N   UNL     1      -5.098  -9.829  15.565  0.00  0.00    -0.310 N 
ATOM     25  C   UNL     1      -5.729 -10.439  14.493  0.00  0.00    +0.214 C 
ATOM     37  H   UNL     1      -4.443  -9.073  15.392  0.00  0.00    +0.149 HD
BRANCH  25  17
ATOM     17  C   UNL     1      -5.389  -9.754  13.184  0.00  0.00    +0.103 C 
BRANCH  17  12
ATOM     12  C   UNL     1      -4.625 -10.667  12.223  0.00  0.00    -0.011 C 
ATOM     13  C   UNL     1      -5.557 -11.679  11.544  0.00  0.00    +0.008 C 
ATOM     14  C   UNL     1      -4.080  -9.889  11.017  0.00  0.00    +0.008 C 
ATOM     15  C   UNL     1      -4.834 -12.087  10.262  0.00  0.00    +0.001 C 
ATOM     16  C   UNL     1      -3.886 -10.937   9.924  0.00  0.00    +0.001 C 
BRANCH  12  19
ATOM     19  C   UNL     1      -3.494 -11.374  12.988  0.00  0.00    +0.127 C 
BRANCH  19  27
ATOM      7  O   UNL     1      -1.522 -10.071  12.389  0.00  0.00    -0.251 OA
ATOM     27  C   UNL     1      -2.332 -10.453  13.219  0.00  0.00    +0.305 C 
BRANCH  27   5
ATOM      5  O   UNL     1      -2.303 -10.087  14.527  0.00  0.00    -0.481 OA
ATOM     42  H   UNL     1      -2.136  -9.126  14.635  0.00  0.00    +0.295 HD
ENDBRANCH  27   5
ENDBRANCH  19  27
ENDBRANCH  12  19
ENDBRANCH  17  12
ENDBRANCH  25  17
ENDBRANCH  18   9
BRANCH  20  26
ATOM      6  O   UNL     1      -8.854 -10.971  20.171  0.00  0.00    -0.273 OA
ATOM     10  N   UNL     1      -9.201 -11.004  17.869  0.00  0.00    -0.301 N 
ATOM     26  C   UNL     1      -8.431 -10.943  19.018  0.00  0.00    +0.246 C 
ATOM     41  H   UNL     1      -8.753 -10.897  16.964  0.00  0.00    +0.150 HD
BRANCH  10  28
ATOM     28  C   UNL     1     -10.642 -11.113  17.888  0.00  0.00    +0.163 C 
BRANCH  28  30
ATOM      8  O   UNL     1     -10.637 -13.511  18.282  0.00  0.00    -0.274 OA
ATOM     11  N   UNL     1     -11.687 -12.150  19.804  0.00  0.00    -0.328 N 
ATOM     30  C   UNL     1     -10.986 -12.389  18.642  0.00  0.00    +0.231 C 
ATOM     43  H   UNL     1     -11.948 -11.215  20.103  0.00  0.00    +0.145 HD
ATOM     44  H   UNL     1     -11.968 -12.915  20.410  0.00  0.00    +0.145 HD
ENDBRANCH  28  30
BRANCH  28  29
ATOM     29  C   UNL     1     -11.306  -9.903  18.554  0.00  0.00    +0.067 C 
BRANCH  29  31
ATOM     31  C   UNL     1     -11.599  -8.788  17.580  0.00  0.00    -0.045 A 
ATOM     32  C   UNL     1     -10.621  -7.834  17.297  0.00  0.00    +0.004 A 
ATOM     33  C   UNL     1     -12.848  -8.711  16.963  0.00  0.00    +0.004 A 
ATOM     34  C   UNL     1     -10.892  -6.804  16.396  0.00  0.00    +0.000 A 
ATOM     35  C   UNL     1     -13.118  -7.681  16.062  0.00  0.00    +0.000 A 
ATOM     36  C   UNL     1     -12.140  -6.727  15.779  0.00  0.00    +0.000 A 
ENDBRANCH  29  31
ENDBRANCH  28  29
ENDBRANCH  10  28
ENDBRANCH  20  26
BRANCH  20   1
ATOM      1  O   UNL     1      -6.438  -9.964  19.688  0.00  0.00    -0.379 OA
ATOM     38  H   UNL     1      -5.972 -10.484  20.365  0.00  0.00    +0.211 HD
ENDBRANCH  20   1
BRANCH  22   2
ATOM      2  O   UNL     1      -3.167 -11.501  16.960  0.00  0.00    -0.387 OA
ATOM     39  H   UNL     1      -3.012 -10.948  16.175  0.00  0.00    +0.210 HD
ENDBRANCH  22   2
BRANCH  23   3
ATOM      3  O   UNL     1      -4.320 -13.542  18.577  0.00  0.00    -0.389 OA
ATOM     40  H   UNL     1      -4.960 -14.111  18.116  0.00  0.00    +0.210 HD
ENDBRANCH  23   3
TORSDOF 14
ENDMDL
MODEL 8
REMARK VINA RESULT:      -6.6     27.320     30.704
REMARK  Name = 7134499
REMARK  14 active torsions:
REMARK  status: ('A' for Active; 'I' for Inactive)
REMARK    1  A    between atoms: O_1  and  C_20
REMARK    2  A    between atoms: O_2  and  C_22
REMARK    3  A    between atoms: O_3  and  C_23
REMARK    4  A    between atoms: O_5  and  C_27
REMARK    5  A    between atoms: N_9  and  C_18
REMARK    6  A    between atoms: N_10  and  C_28
REMARK    7  A    between atoms: C_12  and  C_17
REMARK    8  A    between atoms: C_12  and  C_19
REMARK    9  A    between atoms: C_17  and  C_25
REMARK   10  A    between atoms: C_19  and  C_27
REMARK   11  A    between atoms: C_20  and  C_26
REMARK   12  A    between atoms: C_28  and  C_29
REMARK   13  A    between atoms: C_28  and  C_30
REMARK   14  A    between atoms: C_29  and  C_31
REMARK                            x       y       z     vdW  Elec       q    Type
REMARK                         _______ _______ _______ _____ _____    ______ ____
ROOT
ATOM     18  C   UNL     1      -3.985 -11.268  15.295  0.00  0.00    +0.107 C 
ATOM     20  C   UNL     1      -2.616 -10.999  13.171  0.00  0.00    +0.146 C 
ATOM     21  C   UNL     1      -3.963 -10.749  13.853  0.00  0.00    +0.069 C 
ATOM     22  C   UNL     1      -2.817 -10.714  16.121  0.00  0.00    +0.163 C 
ATOM     23  C   UNL     1      -1.468 -10.942  15.431  0.00  0.00    +0.148 C 
ATOM     24  C   UNL     1      -1.465 -10.424  13.992  0.00  0.00    +0.078 C 
ENDROOT
BRANCH  18   9
ATOM      4  O   UNL     1      -6.349 -12.930  15.454  0.00  0.00    -0.276 OA
ATOM      9  N   UNL     1      -5.250 -10.936  15.915  0.00  0.00    -0.310 N 
ATOM     25  C   UNL     1      -6.331 -11.802  15.941  0.00  0.00    +0.214 C 
ATOM     37  H   UNL     1      -5.356  -9.996  16.284  0.00  0.00    +0.149 HD
BRANCH  25  17
ATOM     17  C   UNL     1      -7.518 -11.189  16.658  0.00  0.00    +0.103 C 
BRANCH  17  12
ATOM     12  C   UNL     1      -7.831 -11.889  17.982  0.00  0.00    -0.011 C 
ATOM     13  C   UNL     1      -8.653 -10.990  18.915  0.00  0.00    +0.008 C 
ATOM     14  C   UNL     1      -8.779 -13.079  17.783  0.00  0.00    +0.008 C 
ATOM     15  C   UNL     1      -9.361 -11.949  19.870  0.00  0.00    +0.001 C 
ATOM     16  C   UNL     1      -9.441 -13.291  19.142  0.00  0.00    +0.001 C 
BRANCH  12  19
ATOM     19  C   UNL     1      -6.515 -12.328  18.647  0.00  0.00    +0.127 C 
BRANCH  19  27
ATOM      7  O   UNL     1      -5.260 -10.246  18.834  0.00  0.00    -0.251 OA
ATOM     27  C   UNL     1      -5.850 -11.182  19.351  0.00  0.00    +0.305 C 
BRANCH  27   5
ATOM      5  O   UNL     1      -5.999 -11.332  20.692  0.00  0.00    -0.481 OA
ATOM     42  H   UNL     1      -5.847 -12.258  20.977  0.00  0.00    +0.295 HD
ENDBRANCH  27   5
ENDBRANCH  19  27
ENDBRANCH  12  19
ENDBRANCH  17  12
ENDBRANCH  25  17
ENDBRANCH  18   9
BRANCH  20  26
ATOM      6  O   UNL     1      -1.724  -9.650  11.413  0.00  0.00    -0.273 OA
ATOM     10  N   UNL     1      -3.699 -10.824  11.041  0.00  0.00    -0.301 N 
ATOM     26  C   UNL     1      -2.608 -10.415  11.788  0.00  0.00    +0.246 C 
ATOM     41  H   UNL     1      -4.331 -11.520  11.423  0.00  0.00    +0.150 HD
BRANCH  10  28
ATOM     28  C   UNL     1      -3.937 -10.386   9.684  0.00  0.00    +0.163 C 
BRANCH  28  30
ATOM      8  O   UNL     1      -4.468 -11.622   7.660  0.00  0.00    -0.274 OA
ATOM     11  N   UNL     1      -3.720 -12.785   9.493  0.00  0.00    -0.328 N 
ATOM     30  C   UNL     1      -4.093 -11.636   8.830  0.00  0.00    +0.231 C 
ATOM     43  H   UNL     1      -3.389 -12.780  10.453  0.00  0.00    +0.145 HD
ATOM     44  H   UNL     1      -3.762 -13.689   9.033  0.00  0.00    +0.145 HD
ENDBRANCH  28  30
BRANCH  28  29
ATOM     29  C   UNL     1      -5.183  -9.501   9.570  0.00  0.00    +0.067 C 
BRANCH  29  31
ATOM     31  C   UNL     1      -6.208  -9.796  10.639  0.00  0.00    -0.045 A 
ATOM     32  C   UNL     1      -7.079 -10.874  10.492  0.00  0.00    +0.004 A 
ATOM     33  C   UNL     1      -6.282  -8.989  11.775  0.00  0.00    +0.004 A 
ATOM     34  C   UNL     1      -8.026 -11.146  11.480  0.00  0.00    +0.000 A 
ATOM     35  C   UNL     1      -7.228  -9.261  12.763  0.00  0.00    +0.000 A 
ATOM     36  C   UNL     1      -8.100 -10.340  12.615  0.00  0.00    +0.000 A 
ENDBRANCH  29  31
ENDBRANCH  28  29
ENDBRANCH  10  28
ENDBRANCH  20  26
BRANCH  20   1
ATOM      1  O   UNL     1      -2.404 -12.393  12.983  0.00  0.00    -0.379 OA
ATOM     38  H   UNL     1      -2.301 -12.563  12.032  0.00  0.00    +0.211 HD
ENDBRANCH  20   1
BRANCH  22   2
ATOM      2  O   UNL     1      -2.776 -11.385  17.383  0.00  0.00    -0.387 OA
ATOM     39  H   UNL     1      -3.666 -11.729  17.569  0.00  0.00    +0.210 HD
ENDBRANCH  22   2
BRANCH  23   3
ATOM      3  O   UNL     1      -0.461 -10.253  16.172  0.00  0.00    -0.389 OA
ATOM     40  H   UNL     1      -0.017  -9.640  15.561  0.00  0.00    +0.210 HD
ENDBRANCH  23   3
TORSDOF 14
ENDMDL
MODEL 9
REMARK VINA RESULT:      -6.6      3.019     10.450
REMARK  Name = 7134499
REMARK  14 active torsions:
REMARK  status: ('A' for Active; 'I' for Inactive)
REMARK    1  A    between atoms: O_1  and  C_20
REMARK    2  A    between atoms: O_2  and  C_22
REMARK    3  A    between atoms: O_3  and  C_23
REMARK    4  A    between atoms: O_5  and  C_27
REMARK    5  A    between atoms: N_9  and  C_18
REMARK    6  A    between atoms: N_10  and  C_28
REMARK    7  A    between atoms: C_12  and  C_17
REMARK    8  A    between atoms: C_12  and  C_19
REMARK    9  A    between atoms: C_17  and  C_25
REMARK   10  A    between atoms: C_19  and  C_27
REMARK   11  A    between atoms: C_20  and  C_26
REMARK   12  A    between atoms: C_28  and  C_29
REMARK   13  A    between atoms: C_28  and  C_30
REMARK   14  A    between atoms: C_29  and  C_31
REMARK                            x       y       z     vdW  Elec       q    Type
REMARK                         _______ _______ _______ _____ _____    ______ ____
ROOT
ATOM     18  C   UNL     1      17.385   7.286  21.425  0.00  0.00    +0.107 C 
ATOM     20  C   UNL     1      19.783   6.507  21.747  0.00  0.00    +0.146 C 
ATOM     21  C   UNL     1      18.463   6.279  21.008  0.00  0.00    +0.069 C 
ATOM     22  C   UNL     1      17.873   8.735  21.288  0.00  0.00    +0.163 C 
ATOM     23  C   UNL     1      19.205   8.963  22.008  0.00  0.00    +0.148 C 
ATOM     24  C   UNL     1      20.267   7.946  21.585  0.00  0.00    +0.078 C 
ENDROOT
BRANCH  18   9
ATOM      4  O   UNL     1      14.646   7.682  22.269  0.00  0.00    -0.276 OA
ATOM      9  N   UNL     1      16.188   7.075  20.641  0.00  0.00    -0.310 N 
ATOM     25  C   UNL     1      14.912   7.292  21.134  0.00  0.00    +0.214 C 
ATOM     37  H   UNL     1      16.302   6.685  19.710  0.00  0.00    +0.149 HD
BRANCH  25  17
ATOM     17  C   UNL     1      13.853   6.992  20.091  0.00  0.00    +0.103 C 
BRANCH  17  12
ATOM     12  C   UNL     1      13.442   8.233  19.295  0.00  0.00    -0.011 C 
ATOM     13  C   UNL     1      14.664   8.980  18.745  0.00  0.00    +0.008 C 
ATOM     14  C   UNL     1      12.701   7.857  18.004  0.00  0.00    +0.008 C 
ATOM     15  C   UNL     1      14.137   9.782  17.557  0.00  0.00    +0.001 C 
ATOM     16  C   UNL     1      12.876   9.061  17.082  0.00  0.00    +0.001 C 
BRANCH  12  19
ATOM     19  C   UNL     1      12.584   9.145  20.187  0.00  0.00    +0.127 C 
BRANCH  19  27
ATOM      7  O   UNL     1      10.553   7.808  20.356  0.00  0.00    -0.251 OA
ATOM     27  C   UNL     1      11.502   8.370  20.880  0.00  0.00    +0.305 C 
BRANCH  27   5
ATOM      5  O   UNL     1      11.730   8.378  22.218  0.00  0.00    -0.481 OA
ATOM     42  H   UNL     1      11.843   9.289  22.565  0.00  0.00    +0.295 HD
ENDBRANCH  27   5
ENDBRANCH  19  27
ENDBRANCH  12  19
ENDBRANCH  17  12
ENDBRANCH  25  17
ENDBRANCH  18   9
BRANCH  20  26
ATOM      6  O   UNL     1      20.584   4.690  20.421  0.00  0.00    -0.273 OA
ATOM     10  N   UNL     1      22.052   5.750  21.884  0.00  0.00    -0.301 N 
ATOM     26  C   UNL     1      20.832   5.550  21.262  0.00  0.00    +0.246 C 
ATOM     41  H   UNL     1      22.167   6.541  22.511  0.00  0.00    +0.150 HD
BRANCH  10  28
ATOM     28  C   UNL     1      23.220   4.945  21.611  0.00  0.00    +0.163 C 
BRANCH  28  30
ATOM      8  O   UNL     1      23.958   6.923  20.407  0.00  0.00    -0.274 OA
ATOM     11  N   UNL     1      25.033   4.933  20.013  0.00  0.00    -0.328 N 
ATOM     30  C   UNL     1      24.075   5.718  20.617  0.00  0.00    +0.231 C 
ATOM     43  H   UNL     1      25.136   3.943  20.214  0.00  0.00    +0.145 HD
ATOM     44  H   UNL     1      25.681   5.328  19.338  0.00  0.00    +0.145 HD
ENDBRANCH  28  30
BRANCH  28  29
ATOM     29  C   UNL     1      24.023   4.637  22.880  0.00  0.00    +0.067 C 
BRANCH  29  31
ATOM     31  C   UNL     1      23.837   3.218  23.358  0.00  0.00    -0.045 A 
ATOM     32  C   UNL     1      22.820   2.914  24.263  0.00  0.00    +0.004 A 
ATOM     33  C   UNL     1      24.684   2.210  22.895  0.00  0.00    +0.004 A 
ATOM     34  C   UNL     1      22.649   1.601  24.704  0.00  0.00    +0.000 A 
ATOM     35  C   UNL     1      24.512   0.897  23.336  0.00  0.00    +0.000 A 
ATOM     36  C   UNL     1      23.494   0.594  24.242  0.00  0.00    +0.000 A 
ENDBRANCH  29  31
ENDBRANCH  28  29
ENDBRANCH  10  28
ENDBRANCH  20  26
BRANCH  20   1
ATOM      1  O   UNL     1      19.634   6.219  23.133  0.00  0.00    -0.379 OA
ATOM     38  H   UNL     1      20.449   5.792  23.448  0.00  0.00    +0.211 HD
ENDBRANCH  20   1
BRANCH  22   2
ATOM      2  O   UNL     1      16.907   9.611  21.877  0.00  0.00    -0.387 OA
ATOM     39  H   UNL     1      16.832  10.399  21.312  0.00  0.00    +0.210 HD
ENDBRANCH  22   2
BRANCH  23   3
ATOM      3  O   UNL     1      19.670  10.274  21.691  0.00  0.00    -0.389 OA
ATOM     40  H   UNL     1      19.046  10.659  21.051  0.00  0.00    +0.210 HD
ENDBRANCH  23   3
TORSDOF 14
ENDMDL
MODEL 10
REMARK VINA RESULT:      -6.6     27.973     30.702
REMARK  Name = 7134499
REMARK  14 active torsions:
REMARK  status: ('A' for Active; 'I' for Inactive)
REMARK    1  A    between atoms: O_1  and  C_20
REMARK    2  A    between atoms: O_2  and  C_22
REMARK    3  A    between atoms: O_3  and  C_23
REMARK    4  A    between atoms: O_5  and  C_27
REMARK    5  A    between atoms: N_9  and  C_18
REMARK    6  A    between atoms: N_10  and  C_28
REMARK    7  A    between atoms: C_12  and  C_17
REMARK    8  A    between atoms: C_12  and  C_19
REMARK    9  A    between atoms: C_17  and  C_25
REMARK   10  A    between atoms: C_19  and  C_27
REMARK   11  A    between atoms: C_20  and  C_26
REMARK   12  A    between atoms: C_28  and  C_29
REMARK   13  A    between atoms: C_28  and  C_30
REMARK   14  A    between atoms: C_29  and  C_31
REMARK                            x       y       z     vdW  Elec       q    Type
REMARK                         _______ _______ _______ _____ _____    ______ ____
ROOT
ATOM     18  C   UNL     1      -5.215 -11.382  16.642  0.00  0.00    +0.107 C 
ATOM     20  C   UNL     1      -6.846 -11.500  18.588  0.00  0.00    +0.146 C 
ATOM     21  C   UNL     1      -6.592 -11.855  17.121  0.00  0.00    +0.069 C 
ATOM     22  C   UNL     1      -4.088 -11.885  17.555  0.00  0.00    +0.163 C 
ATOM     23  C   UNL     1      -4.349 -11.551  19.026  0.00  0.00    +0.148 C 
ATOM     24  C   UNL     1      -5.729 -12.025  19.486  0.00  0.00    +0.078 C 
ENDROOT
BRANCH  18   9
ATOM      4  O   UNL     1      -5.667  -9.850  14.229  0.00  0.00    -0.276 OA
ATOM      9  N   UNL     1      -4.997 -11.812  15.278  0.00  0.00    -0.310 N 
ATOM     25  C   UNL     1      -5.244 -11.003  14.181  0.00  0.00    +0.214 C 
ATOM     37  H   UNL     1      -4.713 -12.776  15.132  0.00  0.00    +0.149 HD
BRANCH  25  17
ATOM     17  C   UNL     1      -4.922 -11.715  12.881  0.00  0.00    +0.103 C 
BRANCH  17  12
ATOM     12  C   UNL     1      -3.500 -11.433  12.392  0.00  0.00    -0.011 C 
ATOM     13  C   UNL     1      -3.499 -10.537  11.146  0.00  0.00    +0.008 C 
ATOM     14  C   UNL     1      -2.718 -10.571  13.394  0.00  0.00    +0.008 C 
ATOM     15  C   UNL     1      -2.119  -9.884  11.127  0.00  0.00    +0.001 C 
ATOM     16  C   UNL     1      -1.617  -9.906  12.571  0.00  0.00    +0.001 C 
BRANCH  12  19
ATOM     19  C   UNL     1      -2.783 -12.766  12.123  0.00  0.00    +0.127 C 
BRANCH  19  27
ATOM      7  O   UNL     1      -2.785 -13.695  14.377  0.00  0.00    -0.251 OA
ATOM     27  C   UNL     1      -2.184 -13.327  13.379  0.00  0.00    +0.305 C 
BRANCH  27   5
ATOM      5  O   UNL     1      -0.833 -13.372  13.253  0.00  0.00    -0.481 OA
ATOM     42  H   UNL     1      -0.399 -13.699  14.069  0.00  0.00    +0.295 HD
ENDBRANCH  27   5
ENDBRANCH  19  27
ENDBRANCH  12  19
ENDBRANCH  17  12
ENDBRANCH  25  17
ENDBRANCH  18   9
BRANCH  20  26
ATOM      6  O   UNL     1      -8.254 -13.028  19.766  0.00  0.00    -0.273 OA
ATOM     10  N   UNL     1      -9.235 -11.318  18.527  0.00  0.00    -0.301 N 
ATOM     26  C   UNL     1      -8.171 -12.041  19.039  0.00  0.00    +0.246 C 
ATOM     41  H   UNL     1      -9.051 -10.473  17.996  0.00  0.00    +0.150 HD
BRANCH  10  28
ATOM     28  C   UNL     1     -10.616 -11.648  18.793  0.00  0.00    +0.163 C 
BRANCH  28  30
ATOM      8  O   UNL     1     -10.617  -9.955  20.536  0.00  0.00    -0.274 OA
ATOM     11  N   UNL     1     -11.739 -11.923  20.916  0.00  0.00    -0.328 N 
ATOM     30  C   UNL     1     -10.958 -11.074  20.160  0.00  0.00    +0.231 C 
ATOM     43  H   UNL     1     -12.034 -12.835  20.583  0.00  0.00    +0.145 HD
ATOM     44  H   UNL     1     -12.050 -11.656  21.844  0.00  0.00    +0.145 HD
ENDBRANCH  28  30
BRANCH  28  29
ATOM     29  C   UNL     1     -11.562 -11.087  17.726  0.00  0.00    +0.067 C 
BRANCH  29  31
ATOM     31  C   UNL     1     -11.007  -9.864  17.037  0.00  0.00    -0.045 A 
ATOM     32  C   UNL     1     -11.289  -8.594  17.539  0.00  0.00    +0.004 A 
ATOM     33  C   UNL     1     -10.211 -10.005  15.900  0.00  0.00    +0.004 A 
ATOM     34  C   UNL     1     -10.775  -7.463  16.902  0.00  0.00    +0.000 A 
ATOM     35  C   UNL     1      -9.697  -8.875  15.265  0.00  0.00    +0.000 A 
ATOM     36  C   UNL     1      -9.980  -7.604  15.766  0.00  0.00    +0.000 A 
ENDBRANCH  29  31
ENDBRANCH  28  29
ENDBRANCH  10  28
ENDBRANCH  20  26
BRANCH  20   1
ATOM      1  O   UNL     1      -6.950 -10.090  18.748  0.00  0.00    -0.379 OA
ATOM     38  H   UNL     1      -7.539  -9.909  19.500  0.00  0.00    +0.211 HD
ENDBRANCH  20   1
BRANCH  22   2
ATOM      2  O   UNL     1      -2.863 -11.250  17.178  0.00  0.00    -0.387 OA
ATOM     39  H   UNL     1      -2.304 -11.913  16.738  0.00  0.00    +0.210 HD
ENDBRANCH  22   2
BRANCH  23   3
ATOM      3  O   UNL     1      -3.352 -12.196  19.819  0.00  0.00    -0.389 OA
ATOM     40  H   UNL     1      -2.837 -12.772  19.228  0.00  0.00    +0.210 HD
ENDBRANCH  23   3
TORSDOF 14
ENDMDL
