MODEL 1
REMARK VINA RESULT:      -6.0      0.000      0.000
REMARK  Name = 25314972
REMARK  7 active torsions:
REMARK  status: ('A' for Active; 'I' for Inactive)
REMARK    1  A    between atoms: O_3  and  C_9
REMARK    2  A    between atoms: O_4  and  C_23
REMARK    3  A    between atoms: N_5  and  C_8
REMARK    4  A    between atoms: N_6  and  C_10
REMARK    5  A    between atoms: N_6  and  C_18
REMARK    6  A    between atoms: N_7  and  C_19
REMARK    7  A    between atoms: C_18  and  C_20
REMARK                            x       y       z     vdW  Elec       q    Type
REMARK                         _______ _______ _______ _____ _____    ______ ____
ROOT
ATOM      1  O   UNL     1      -3.685 -12.852  13.175  0.00  0.00    -0.343 OA
ATOM      2  O   UNL     1      -2.178 -13.981  14.528  0.00  0.00    -0.347 OA
ATOM      8  C   UNL     1      -3.434 -12.141  15.469  0.00  0.00    +0.143 C 
ATOM      9  C   UNL     1      -2.326 -11.146  15.054  0.00  0.00    +0.156 C 
ATOM     10  C   UNL     1      -2.100 -11.060  13.524  0.00  0.00    +0.116 C 
ATOM     11  C   UNL     1      -2.376 -12.402  12.809  0.00  0.00    +0.166 C 
ATOM     12  C   UNL     1      -3.464 -13.341  14.505  0.00  0.00    +0.270 C 
ATOM     13  C   UNL     1      -1.536 -13.562  13.314  0.00  0.00    +0.196 C 
ENDROOT
BRANCH   8   5
ATOM      5  N   UNL     1      -4.741 -11.483  15.490  0.00  0.00    -0.290 NA
ATOM      7  N   UNL     1      -7.132 -10.471  16.682  0.00  0.00    -0.327 N 
ATOM     14  C   UNL     1      -4.699 -10.284  16.336  0.00  0.00    +0.104 C 
ATOM     15  C   UNL     1      -5.773 -12.404  15.979  0.00  0.00    +0.104 C 
ATOM     16  C   UNL     1      -6.045  -9.554  16.322  0.00  0.00    +0.120 C 
ATOM     17  C   UNL     1      -7.154 -11.746  15.952  0.00  0.00    +0.120 C 
BRANCH   7  19
ATOM     19  C   UNL     1      -8.347  -9.958  17.147  0.00  0.00    +0.030 A 
ATOM     21  C   UNL     1      -8.784  -8.705  16.722  0.00  0.00    +0.023 A 
ATOM     22  C   UNL     1      -9.122 -10.702  18.036  0.00  0.00    +0.023 A 
ATOM     25  C   UNL     1      -9.995  -8.193  17.186  0.00  0.00    +0.002 A 
ATOM     26  C   UNL     1     -10.334 -10.191  18.502  0.00  0.00    +0.002 A 
ATOM     29  C   UNL     1     -10.771  -8.936  18.076  0.00  0.00    +0.000 A 
ENDBRANCH   7  19
ENDBRANCH   8   5
BRANCH   9   3
ATOM      3  O   UNL     1      -1.103 -11.574  15.672  0.00  0.00    -0.388 OA
ATOM     32  H   UNL     1      -0.837 -12.407  15.250  0.00  0.00    +0.210 HD
ENDBRANCH   9   3
BRANCH  10   6
ATOM      6  N   UNL     1      -2.969 -10.038  12.931  0.00  0.00    -0.305 NA
ATOM     31  H   UNL     1      -2.595  -9.111  13.137  0.00  0.00    +0.123 HD
BRANCH   6  18
ATOM     18  C   UNL     1      -3.078 -10.231  11.496  0.00  0.00    +0.120 C 
BRANCH  18  20
ATOM     20  C   UNL     1      -4.380  -9.702  10.957  0.00  0.00    +0.008 A 
ATOM     23  C   UNL     1      -5.592 -10.050  11.550  0.00  0.00    +0.121 A 
ATOM     24  C   UNL     1      -4.364  -8.853   9.849  0.00  0.00    +0.008 A 
ATOM     27  C   UNL     1      -6.790  -9.552  11.036  0.00  0.00    +0.046 A 
ATOM     28  C   UNL     1      -5.562  -8.355   9.335  0.00  0.00    +0.001 A 
ATOM     30  C   UNL     1      -6.775  -8.704   9.930  0.00  0.00    +0.004 A 
BRANCH  23   4
ATOM      4  O   UNL     1      -5.626 -10.879  12.632  0.00  0.00    -0.506 OA
ATOM     33  H   UNL     1      -6.386 -10.642  13.190  0.00  0.00    +0.292 HD
ENDBRANCH  23   4
ENDBRANCH  18  20
ENDBRANCH   6  18
ENDBRANCH  10   6
TORSDOF 7
ENDMDL
MODEL 2
REMARK VINA RESULT:      -6.0     24.318     26.652
REMARK  Name = 25314972
REMARK  7 active torsions:
REMARK  status: ('A' for Active; 'I' for Inactive)
REMARK    1  A    between atoms: O_3  and  C_9
REMARK    2  A    between atoms: O_4  and  C_23
REMARK    3  A    between atoms: N_5  and  C_8
REMARK    4  A    between atoms: N_6  and  C_10
REMARK    5  A    between atoms: N_6  and  C_18
REMARK    6  A    between atoms: N_7  and  C_19
REMARK    7  A    between atoms: C_18  and  C_20
REMARK                            x       y       z     vdW  Elec       q    Type
REMARK                         _______ _______ _______ _____ _____    ______ ____
ROOT
ATOM      1  O   UNL     1      10.199   9.359   5.832  0.00  0.00    -0.343 OA
ATOM      2  O   UNL     1      10.976   8.828   7.951  0.00  0.00    -0.347 OA
ATOM      8  C   UNL     1      10.653   7.045   6.351  0.00  0.00    +0.143 C 
ATOM      9  C   UNL     1       9.195   6.851   6.830  0.00  0.00    +0.156 C 
ATOM     10  C   UNL     1       8.293   8.090   6.609  0.00  0.00    +0.116 C 
ATOM     11  C   UNL     1       9.075   9.419   6.717  0.00  0.00    +0.166 C 
ATOM     12  C   UNL     1      11.095   8.505   6.556  0.00  0.00    +0.270 C 
ATOM     13  C   UNL     1       9.782   9.620   8.045  0.00  0.00    +0.196 C 
ENDROOT
BRANCH   8   5
ATOM      5  N   UNL     1      10.789   6.674   4.942  0.00  0.00    -0.290 NA
ATOM      7  N   UNL     1      11.825   5.208   2.720  0.00  0.00    -0.327 N 
ATOM     14  C   UNL     1      10.417   5.268   4.741  0.00  0.00    +0.104 C 
ATOM     15  C   UNL     1      12.165   6.898   4.482  0.00  0.00    +0.104 C 
ATOM     16  C   UNL     1      10.502   4.883   3.263  0.00  0.00    +0.120 C 
ATOM     17  C   UNL     1      12.307   6.568   2.995  0.00  0.00    +0.120 C 
BRANCH   7  19
ATOM     19  C   UNL     1      12.273   4.573   1.556  0.00  0.00    +0.030 A 
ATOM     21  C   UNL     1      11.380   4.303   0.521  0.00  0.00    +0.023 A 
ATOM     22  C   UNL     1      13.614   4.212   1.432  0.00  0.00    +0.023 A 
ATOM     25  C   UNL     1      11.826   3.671  -0.639  0.00  0.00    +0.002 A 
ATOM     26  C   UNL     1      14.062   3.578   0.273  0.00  0.00    +0.002 A 
ATOM     29  C   UNL     1      13.168   3.308  -0.763  0.00  0.00    +0.000 A 
ENDBRANCH   7  19
ENDBRANCH   8   5
BRANCH   9   3
ATOM      3  O   UNL     1       9.235   6.560   8.235  0.00  0.00    -0.388 OA
ATOM     32  H   UNL     1       8.613   7.162   8.677  0.00  0.00    +0.210 HD
ENDBRANCH   9   3
BRANCH  10   6
ATOM      6  N   UNL     1       7.660   8.037   5.287  0.00  0.00    -0.305 NA
ATOM     31  H   UNL     1       6.861   7.402   5.316  0.00  0.00    +0.123 HD
BRANCH   6  18
ATOM     18  C   UNL     1       7.235   9.362   4.871  0.00  0.00    +0.120 C 
BRANCH  18  20
ATOM     20  C   UNL     1       7.122   9.470   3.374  0.00  0.00    +0.008 A 
ATOM     23  C   UNL     1       8.182   9.096   2.550  0.00  0.00    +0.121 A 
ATOM     24  C   UNL     1       5.939   9.953   2.813  0.00  0.00    +0.008 A 
ATOM     27  C   UNL     1       8.061   9.203   1.164  0.00  0.00    +0.046 A 
ATOM     28  C   UNL     1       5.818  10.061   1.427  0.00  0.00    +0.001 A 
ATOM     30  C   UNL     1       6.879   9.686   0.603  0.00  0.00    +0.004 A 
BRANCH  23   4
ATOM      4  O   UNL     1       9.344   8.623   3.081  0.00  0.00    -0.506 OA
ATOM     33  H   UNL     1       9.144   8.123   3.890  0.00  0.00    +0.292 HD
ENDBRANCH  23   4
ENDBRANCH  18  20
ENDBRANCH   6  18
ENDBRANCH  10   6
TORSDOF 7
ENDMDL
MODEL 3
REMARK VINA RESULT:      -6.0     23.870     27.119
REMARK  Name = 25314972
REMARK  7 active torsions:
REMARK  status: ('A' for Active; 'I' for Inactive)
REMARK    1  A    between atoms: O_3  and  C_9
REMARK    2  A    between atoms: O_4  and  C_23
REMARK    3  A    between atoms: N_5  and  C_8
REMARK    4  A    between atoms: N_6  and  C_10
REMARK    5  A    between atoms: N_6  and  C_18
REMARK    6  A    between atoms: N_7  and  C_19
REMARK    7  A    between atoms: C_18  and  C_20
REMARK                            x       y       z     vdW  Elec       q    Type
REMARK                         _______ _______ _______ _____ _____    ______ ____
ROOT
ATOM      1  O   UNL     1      11.003   6.089   6.956  0.00  0.00    -0.343 OA
ATOM      2  O   UNL     1       8.794   5.811   7.602  0.00  0.00    -0.347 OA
ATOM      8  C   UNL     1       9.276   6.273   5.279  0.00  0.00    +0.143 C 
ATOM      9  C   UNL     1       9.168   7.793   5.537  0.00  0.00    +0.156 C 
ATOM     10  C   UNL     1      10.218   8.337   6.536  0.00  0.00    +0.116 C 
ATOM     11  C   UNL     1      10.604   7.297   7.613  0.00  0.00    +0.166 C 
ATOM     12  C   UNL     1       9.739   5.544   6.554  0.00  0.00    +0.270 C 
ATOM     13  C   UNL     1       9.435   6.789   8.436  0.00  0.00    +0.196 C 
ENDROOT
BRANCH   8   5
ATOM      5  N   UNL     1      10.204   5.998   4.181  0.00  0.00    -0.290 NA
ATOM      7  N   UNL     1      11.005   4.973   1.638  0.00  0.00    -0.327 N 
ATOM     14  C   UNL     1       9.741   6.637   2.943  0.00  0.00    +0.104 C 
ATOM     15  C   UNL     1      10.345   4.552   3.975  0.00  0.00    +0.104 C 
ATOM     16  C   UNL     1      10.732   6.405   1.800  0.00  0.00    +0.120 C 
ATOM     17  C   UNL     1      11.356   4.250   2.867  0.00  0.00    +0.120 C 
BRANCH   7  19
ATOM     19  C   UNL     1      11.517   4.497   0.426  0.00  0.00    +0.030 A 
ATOM     21  C   UNL     1      10.800   4.681  -0.755  0.00  0.00    +0.023 A 
ATOM     22  C   UNL     1      12.746   3.837   0.400  0.00  0.00    +0.023 A 
ATOM     25  C   UNL     1      11.310   4.206  -1.963  0.00  0.00    +0.002 A 
ATOM     26  C   UNL     1      13.257   3.362  -0.808  0.00  0.00    +0.002 A 
ATOM     29  C   UNL     1      12.539   3.546  -1.990  0.00  0.00    +0.000 A 
ENDBRANCH   7  19
ENDBRANCH   8   5
BRANCH   9   3
ATOM      3  O   UNL     1       7.858   8.051   6.065  0.00  0.00    -0.388 OA
ATOM     32  H   UNL     1       7.287   8.307   5.322  0.00  0.00    +0.210 HD
ENDBRANCH   9   3
BRANCH  10   6
ATOM      6  N   UNL     1      11.439   8.741   5.831  0.00  0.00    -0.305 NA
ATOM     31  H   UNL     1      11.275   9.622   5.342  0.00  0.00    +0.123 HD
BRANCH   6  18
ATOM     18  C   UNL     1      12.544   8.881   6.763  0.00  0.00    +0.120 C 
BRANCH  18  20
ATOM     20  C   UNL     1      13.872   8.633   6.099  0.00  0.00    +0.008 A 
ATOM     23  C   UNL     1      14.075   7.502   5.310  0.00  0.00    +0.121 A 
ATOM     24  C   UNL     1      14.907   9.551   6.282  0.00  0.00    +0.008 A 
ATOM     27  C   UNL     1      15.312   7.287   4.702  0.00  0.00    +0.046 A 
ATOM     28  C   UNL     1      16.144   9.336   5.674  0.00  0.00    +0.001 A 
ATOM     30  C   UNL     1      16.347   8.204   4.884  0.00  0.00    +0.004 A 
BRANCH  23   4
ATOM      4  O   UNL     1      13.075   6.595   5.121  0.00  0.00    -0.506 OA
ATOM     33  H   UNL     1      13.153   5.893   5.789  0.00  0.00    +0.292 HD
ENDBRANCH  23   4
ENDBRANCH  18  20
ENDBRANCH   6  18
ENDBRANCH  10   6
TORSDOF 7
ENDMDL
MODEL 4
REMARK VINA RESULT:      -5.9      4.694      7.280
REMARK  Name = 25314972
REMARK  7 active torsions:
REMARK  status: ('A' for Active; 'I' for Inactive)
REMARK    1  A    between atoms: O_3  and  C_9
REMARK    2  A    between atoms: O_4  and  C_23
REMARK    3  A    between atoms: N_5  and  C_8
REMARK    4  A    between atoms: N_6  and  C_10
REMARK    5  A    between atoms: N_6  and  C_18
REMARK    6  A    between atoms: N_7  and  C_19
REMARK    7  A    between atoms: C_18  and  C_20
REMARK                            x       y       z     vdW  Elec       q    Type
REMARK                         _______ _______ _______ _____ _____    ______ ____
ROOT
ATOM      1  O   UNL     1      -5.999 -10.297  19.023  0.00  0.00    -0.343 OA
ATOM      2  O   UNL     1      -4.592 -11.083  17.357  0.00  0.00    -0.347 OA
ATOM      8  C   UNL     1      -6.982 -11.207  17.013  0.00  0.00    +0.143 C 
ATOM      9  C   UNL     1      -7.021 -12.614  17.653  0.00  0.00    +0.156 C 
ATOM     10  C   UNL     1      -6.578 -12.642  19.137  0.00  0.00    +0.116 C 
ATOM     11  C   UNL     1      -5.510 -11.571  19.455  0.00  0.00    +0.166 C 
ATOM     12  C   UNL     1      -5.822 -10.383  17.602  0.00  0.00    +0.270 C 
ATOM     13  C   UNL     1      -4.249 -11.680  18.617  0.00  0.00    +0.196 C 
ENDROOT
BRANCH   8   5
ATOM      5  N   UNL     1      -8.249 -10.507  17.222  0.00  0.00    -0.290 NA
ATOM      7  N   UNL     1     -10.526  -8.954  16.468  0.00  0.00    -0.327 N 
ATOM     14  C   UNL     1      -9.305 -11.093  16.387  0.00  0.00    +0.104 C 
ATOM     15  C   UNL     1      -8.105  -9.079  16.916  0.00  0.00    +0.104 C 
ATOM     16  C   UNL     1     -10.649 -10.406  16.638  0.00  0.00    +0.120 C 
ATOM     17  C   UNL     1      -9.409  -8.324  17.185  0.00  0.00    +0.120 C 
BRANCH   7  19
ATOM     19  C   UNL     1     -11.668  -8.184  16.223  0.00  0.00    +0.030 A 
ATOM     21  C   UNL     1     -11.551  -6.939  15.606  0.00  0.00    +0.023 A 
ATOM     22  C   UNL     1     -12.923  -8.662  16.597  0.00  0.00    +0.023 A 
ATOM     25  C   UNL     1     -12.689  -6.171  15.362  0.00  0.00    +0.002 A 
ATOM     26  C   UNL     1     -14.063  -7.894  16.354  0.00  0.00    +0.002 A 
ATOM     29  C   UNL     1     -13.945  -6.649  15.736  0.00  0.00    +0.000 A 
ENDBRANCH   7  19
ENDBRANCH   8   5
BRANCH   9   3
ATOM      3  O   UNL     1      -6.141 -13.460  16.898  0.00  0.00    -0.388 OA
ATOM     32  H   UNL     1      -6.672 -14.188  16.536  0.00  0.00    +0.210 HD
ENDBRANCH   9   3
BRANCH  10   6
ATOM      6  N   UNL     1      -7.727 -12.421  20.021  0.00  0.00    -0.305 NA
ATOM     31  H   UNL     1      -7.913 -11.420  20.095  0.00  0.00    +0.123 HD
BRANCH   6  18
ATOM     18  C   UNL     1      -8.899 -13.115  19.519  0.00  0.00    +0.120 C 
BRANCH  18  20
ATOM     20  C   UNL     1     -10.163 -12.337  19.771  0.00  0.00    +0.008 A 
ATOM     23  C   UNL     1     -10.115 -10.974  20.059  0.00  0.00    +0.121 A 
ATOM     24  C   UNL     1     -11.392 -12.995  19.713  0.00  0.00    +0.008 A 
ATOM     27  C   UNL     1     -11.295 -10.267  20.291  0.00  0.00    +0.046 A 
ATOM     28  C   UNL     1     -12.572 -12.289  19.945  0.00  0.00    +0.001 A 
ATOM     30  C   UNL     1     -12.524 -10.924  20.234  0.00  0.00    +0.004 A 
BRANCH  23   4
ATOM      4  O   UNL     1      -8.923 -10.315  20.120  0.00  0.00    -0.506 OA
ATOM     33  H   UNL     1      -8.231 -10.873  19.726  0.00  0.00    +0.292 HD
ENDBRANCH  23   4
ENDBRANCH  18  20
ENDBRANCH   6  18
ENDBRANCH  10   6
TORSDOF 7
ENDMDL
MODEL 5
REMARK VINA RESULT:      -5.9      3.246      8.130
REMARK  Name = 25314972
REMARK  7 active torsions:
REMARK  status: ('A' for Active; 'I' for Inactive)
REMARK    1  A    between atoms: O_3  and  C_9
REMARK    2  A    between atoms: O_4  and  C_23
REMARK    3  A    between atoms: N_5  and  C_8
REMARK    4  A    between atoms: N_6  and  C_10
REMARK    5  A    between atoms: N_6  and  C_18
REMARK    6  A    between atoms: N_7  and  C_19
REMARK    7  A    between atoms: C_18  and  C_20
REMARK                            x       y       z     vdW  Elec       q    Type
REMARK                         _______ _______ _______ _____ _____    ______ ____
ROOT
ATOM      1  O   UNL     1     -10.711 -10.554  15.553  0.00  0.00    -0.343 OA
ATOM      2  O   UNL     1     -11.339  -8.322  15.569  0.00  0.00    -0.347 OA
ATOM      8  C   UNL     1      -9.005  -8.876  15.871  0.00  0.00    +0.143 C 
ATOM      9  C   UNL     1      -9.199  -8.948  17.403  0.00  0.00    +0.156 C 
ATOM     10  C   UNL     1     -10.189 -10.048  17.859  0.00  0.00    +0.116 C 
ATOM     11  C   UNL     1     -11.312 -10.298  16.827  0.00  0.00    +0.166 C 
ATOM     12  C   UNL     1     -10.315  -9.237  15.147  0.00  0.00    +0.270 C 
ATOM     13  C   UNL     1     -12.140  -9.069  16.498  0.00  0.00    +0.196 C 
ENDROOT
BRANCH   8   5
ATOM      5  N   UNL     1      -7.932  -9.773  15.441  0.00  0.00    -0.290 NA
ATOM      7  N   UNL     1      -5.414 -10.458  14.277  0.00  0.00    -0.327 N 
ATOM     14  C   UNL     1      -6.679  -9.447  16.134  0.00  0.00    +0.104 C 
ATOM     15  C   UNL     1      -7.737  -9.684  13.989  0.00  0.00    +0.104 C 
ATOM     16  C   UNL     1      -5.562 -10.415  15.736  0.00  0.00    +0.120 C 
ATOM     17  C   UNL     1      -6.656 -10.660  13.519  0.00  0.00    +0.120 C 
BRANCH   7  19
ATOM     19  C   UNL     1      -4.218 -10.915  13.714  0.00  0.00    +0.030 A 
ATOM     21  C   UNL     1      -3.541 -11.989  14.291  0.00  0.00    +0.023 A 
ATOM     22  C   UNL     1      -3.703 -10.297  12.575  0.00  0.00    +0.023 A 
ATOM     25  C   UNL     1      -2.349 -12.445  13.730  0.00  0.00    +0.002 A 
ATOM     26  C   UNL     1      -2.510 -10.751  12.014  0.00  0.00    +0.002 A 
ATOM     29  C   UNL     1      -1.832 -11.826  12.591  0.00  0.00    +0.000 A 
ENDBRANCH   7  19
ENDBRANCH   8   5
BRANCH   9   3
ATOM      3  O   UNL     1      -9.699  -7.675  17.838  0.00  0.00    -0.388 OA
ATOM     32  H   UNL     1     -10.222  -7.301  17.110  0.00  0.00    +0.210 HD
ENDBRANCH   9   3
BRANCH  10   6
ATOM      6  N   UNL     1      -9.484 -11.314  18.084  0.00  0.00    -0.305 NA
ATOM     31  H   UNL     1      -8.914 -11.538  17.268  0.00  0.00    +0.123 HD
BRANCH   6  18
ATOM     18  C   UNL     1      -8.652 -11.231  19.272  0.00  0.00    +0.120 C 
BRANCH  18  20
ATOM     20  C   UNL     1      -7.247 -11.701  19.005  0.00  0.00    +0.008 A 
ATOM     23  C   UNL     1      -6.154 -11.023  19.544  0.00  0.00    +0.121 A 
ATOM     24  C   UNL     1      -7.044 -12.828  18.208  0.00  0.00    +0.008 A 
ATOM     27  C   UNL     1      -4.858 -11.471  19.287  0.00  0.00    +0.046 A 
ATOM     28  C   UNL     1      -5.749 -13.276  17.950  0.00  0.00    +0.001 A 
ATOM     30  C   UNL     1      -4.655 -12.597  18.490  0.00  0.00    +0.004 A 
BRANCH  23   4
ATOM      4  O   UNL     1      -6.333  -9.920  20.325  0.00  0.00    -0.506 OA
ATOM     33  H   UNL     1      -7.279  -9.694  20.343  0.00  0.00    +0.292 HD
ENDBRANCH  23   4
ENDBRANCH  18  20
ENDBRANCH   6  18
ENDBRANCH  10   6
TORSDOF 7
ENDMDL
MODEL 6
REMARK VINA RESULT:      -5.7      2.265      6.917
REMARK  Name = 25314972
REMARK  7 active torsions:
REMARK  status: ('A' for Active; 'I' for Inactive)
REMARK    1  A    between atoms: O_3  and  C_9
REMARK    2  A    between atoms: O_4  and  C_23
REMARK    3  A    between atoms: N_5  and  C_8
REMARK    4  A    between atoms: N_6  and  C_10
REMARK    5  A    between atoms: N_6  and  C_18
REMARK    6  A    between atoms: N_7  and  C_19
REMARK    7  A    between atoms: C_18  and  C_20
REMARK                            x       y       z     vdW  Elec       q    Type
REMARK                         _______ _______ _______ _____ _____    ______ ____
ROOT
ATOM      1  O   UNL     1      -2.516 -10.350  13.444  0.00  0.00    -0.343 OA
ATOM      2  O   UNL     1      -1.612 -12.442  13.019  0.00  0.00    -0.347 OA
ATOM      8  C   UNL     1      -3.732 -11.865  12.010  0.00  0.00    +0.143 C 
ATOM      9  C   UNL     1      -4.491 -12.434  13.231  0.00  0.00    +0.156 C 
ATOM     10  C   UNL     1      -4.185 -11.698  14.559  0.00  0.00    +0.116 C 
ATOM     11  C   UNL     1      -2.742 -11.147  14.611  0.00  0.00    +0.166 C 
ATOM     12  C   UNL     1      -2.343 -11.353  12.434  0.00  0.00    +0.270 C 
ATOM     13  C   UNL     1      -1.665 -12.203  14.434  0.00  0.00    +0.196 C 
ENDROOT
BRANCH   8   5
ATOM      5  N   UNL     1      -4.493 -10.785  11.382  0.00  0.00    -0.290 NA
ATOM      7  N   UNL     1      -6.025  -9.528   9.324  0.00  0.00    -0.327 N 
ATOM     14  C   UNL     1      -5.871 -11.215  11.113  0.00  0.00    +0.104 C 
ATOM     15  C   UNL     1      -3.850 -10.359  10.134  0.00  0.00    +0.104 C 
ATOM     16  C   UNL     1      -6.695 -10.076  10.509  0.00  0.00    +0.120 C 
ATOM     17  C   UNL     1      -4.606  -9.191   9.497  0.00  0.00    +0.120 C 
BRANCH   7  19
ATOM     19  C   UNL     1      -6.763  -8.804   8.382  0.00  0.00    +0.030 A 
ATOM     21  C   UNL     1      -7.425  -7.637   8.762  0.00  0.00    +0.023 A 
ATOM     22  C   UNL     1      -6.837  -9.250   7.063  0.00  0.00    +0.023 A 
ATOM     25  C   UNL     1      -8.161  -6.915   7.822  0.00  0.00    +0.002 A 
ATOM     26  C   UNL     1      -7.573  -8.529   6.123  0.00  0.00    +0.002 A 
ATOM     29  C   UNL     1      -8.235  -7.361   6.502  0.00  0.00    +0.000 A 
ENDBRANCH   7  19
ENDBRANCH   8   5
BRANCH   9   3
ATOM      3  O   UNL     1      -4.113 -13.811  13.375  0.00  0.00    -0.388 OA
ATOM     32  H   UNL     1      -4.557 -14.312  12.670  0.00  0.00    +0.210 HD
ENDBRANCH   9   3
BRANCH  10   6
ATOM      6  N   UNL     1      -5.110 -10.576  14.751  0.00  0.00    -0.305 NA
ATOM     31  H   UNL     1      -6.066 -10.929  14.811  0.00  0.00    +0.123 HD
BRANCH   6  18
ATOM     18  C   UNL     1      -4.770  -9.835  15.953  0.00  0.00    +0.120 C 
BRANCH  18  20
ATOM     20  C   UNL     1      -5.649 -10.216  17.114  0.00  0.00    +0.008 A 
ATOM     23  C   UNL     1      -7.002  -9.877  17.126  0.00  0.00    +0.121 A 
ATOM     24  C   UNL     1      -5.096 -10.915  18.187  0.00  0.00    +0.008 A 
ATOM     27  C   UNL     1      -7.802 -10.236  18.210  0.00  0.00    +0.046 A 
ATOM     28  C   UNL     1      -5.896 -11.275  19.271  0.00  0.00    +0.001 A 
ATOM     30  C   UNL     1      -7.250 -10.935  19.283  0.00  0.00    +0.004 A 
BRANCH  23   4
ATOM      4  O   UNL     1      -7.558  -9.193  16.086  0.00  0.00    -0.506 OA
ATOM     33  H   UNL     1      -7.262  -9.590  15.250  0.00  0.00    +0.292 HD
ENDBRANCH  23   4
ENDBRANCH  18  20
ENDBRANCH   6  18
ENDBRANCH  10   6
TORSDOF 7
ENDMDL
MODEL 7
REMARK VINA RESULT:      -5.7     24.671     27.883
REMARK  Name = 25314972
REMARK  7 active torsions:
REMARK  status: ('A' for Active; 'I' for Inactive)
REMARK    1  A    between atoms: O_3  and  C_9
REMARK    2  A    between atoms: O_4  and  C_23
REMARK    3  A    between atoms: N_5  and  C_8
REMARK    4  A    between atoms: N_6  and  C_10
REMARK    5  A    between atoms: N_6  and  C_18
REMARK    6  A    between atoms: N_7  and  C_19
REMARK    7  A    between atoms: C_18  and  C_20
REMARK                            x       y       z     vdW  Elec       q    Type
REMARK                         _______ _______ _______ _____ _____    ______ ____
ROOT
ATOM      1  O   UNL     1       9.907   7.650   4.648  0.00  0.00    -0.343 OA
ATOM      2  O   UNL     1       8.587   7.955   6.530  0.00  0.00    -0.347 OA
ATOM      8  C   UNL     1      10.971   7.674   6.815  0.00  0.00    +0.143 C 
ATOM      9  C   UNL     1      10.797   6.142   6.933  0.00  0.00    +0.156 C 
ATOM     10  C   UNL     1      10.215   5.477   5.662  0.00  0.00    +0.116 C 
ATOM     11  C   UNL     1       9.244   6.407   4.900  0.00  0.00    +0.166 C 
ATOM     12  C   UNL     1       9.857   8.274   5.939  0.00  0.00    +0.270 C 
ATOM     13  C   UNL     1       8.064   6.887   5.726  0.00  0.00    +0.196 C 
ENDROOT
BRANCH   8   5
ATOM      5  N   UNL     1      12.282   8.005   6.255  0.00  0.00    -0.290 NA
ATOM      7  N   UNL     1      14.985   8.926   6.313  0.00  0.00    -0.327 N 
ATOM     14  C   UNL     1      13.330   7.191   6.881  0.00  0.00    +0.104 C 
ATOM     15  C   UNL     1      12.576   9.431   6.443  0.00  0.00    +0.104 C 
ATOM     16  C   UNL     1      14.699   7.488   6.264  0.00  0.00    +0.120 C 
ATOM     17  C   UNL     1      13.919   9.802   5.811  0.00  0.00    +0.120 C 
BRANCH   7  19
ATOM     19  C   UNL     1      16.307   9.374   6.213  0.00  0.00    +0.030 A 
ATOM     21  C   UNL     1      16.582  10.741   6.221  0.00  0.00    +0.023 A 
ATOM     22  C   UNL     1      17.349   8.453   6.107  0.00  0.00    +0.023 A 
ATOM     25  C   UNL     1      17.900  11.188   6.122  0.00  0.00    +0.002 A 
ATOM     26  C   UNL     1      18.667   8.900   6.007  0.00  0.00    +0.002 A 
ATOM     29  C   UNL     1      18.942  10.267   6.015  0.00  0.00    +0.000 A 
ENDBRANCH   7  19
ENDBRANCH   8   5
BRANCH   9   3
ATOM      3  O   UNL     1       9.906   5.889   8.030  0.00  0.00    -0.388 OA
ATOM     32  H   UNL     1      10.061   6.577   8.698  0.00  0.00    +0.210 HD
ENDBRANCH   9   3
BRANCH  10   6
ATOM      6  N   UNL     1      11.291   5.088   4.744  0.00  0.00    -0.305 NA
ATOM     31  H   UNL     1      11.959   4.493   5.235  0.00  0.00    +0.123 HD
BRANCH   6  18
ATOM     18  C   UNL     1      10.751   4.394   3.589  0.00  0.00    +0.120 C 
BRANCH  18  20
ATOM     20  C   UNL     1      11.709   4.409   2.428  0.00  0.00    +0.008 A 
ATOM     23  C   UNL     1      12.035   5.604   1.787  0.00  0.00    +0.121 A 
ATOM     24  C   UNL     1      12.272   3.208   1.993  0.00  0.00    +0.008 A 
ATOM     27  C   UNL     1      12.924   5.600   0.712  0.00  0.00    +0.046 A 
ATOM     28  C   UNL     1      13.160   3.204   0.917  0.00  0.00    +0.001 A 
ATOM     30  C   UNL     1      13.487   4.400   0.277  0.00  0.00    +0.004 A 
BRANCH  23   4
ATOM      4  O   UNL     1      11.494   6.785   2.198  0.00  0.00    -0.506 OA
ATOM     33  H   UNL     1      10.609   6.883   1.807  0.00  0.00    +0.292 HD
ENDBRANCH  23   4
ENDBRANCH  18  20
ENDBRANCH   6  18
ENDBRANCH  10   6
TORSDOF 7
ENDMDL
MODEL 8
REMARK VINA RESULT:      -5.6      4.517      7.999
REMARK  Name = 25314972
REMARK  7 active torsions:
REMARK  status: ('A' for Active; 'I' for Inactive)
REMARK    1  A    between atoms: O_3  and  C_9
REMARK    2  A    between atoms: O_4  and  C_23
REMARK    3  A    between atoms: N_5  and  C_8
REMARK    4  A    between atoms: N_6  and  C_10
REMARK    5  A    between atoms: N_6  and  C_18
REMARK    6  A    between atoms: N_7  and  C_19
REMARK    7  A    between atoms: C_18  and  C_20
REMARK                            x       y       z     vdW  Elec       q    Type
REMARK                         _______ _______ _______ _____ _____    ______ ____
ROOT
ATOM      1  O   UNL     1     -11.104 -12.462  18.066  0.00  0.00    -0.343 OA
ATOM      2  O   UNL     1     -12.116 -12.122  20.123  0.00  0.00    -0.347 OA
ATOM      8  C   UNL     1     -11.533 -10.196  18.783  0.00  0.00    +0.143 C 
ATOM      9  C   UNL     1     -10.140 -10.128  19.449  0.00  0.00    +0.156 C 
ATOM     10  C   UNL     1      -9.263 -11.380  19.199  0.00  0.00    +0.116 C 
ATOM     11  C   UNL     1     -10.101 -12.672  19.064  0.00  0.00    +0.166 C 
ATOM     12  C   UNL     1     -12.051 -11.647  18.769  0.00  0.00    +0.270 C 
ATOM     13  C   UNL     1     -10.973 -12.978  20.269  0.00  0.00    +0.196 C 
ENDROOT
BRANCH   8   5
ATOM      5  N   UNL     1     -11.482  -9.671  17.418  0.00  0.00    -0.290 NA
ATOM      7  N   UNL     1     -11.960  -7.779  15.332  0.00  0.00    -0.327 N 
ATOM     14  C   UNL     1     -10.744  -8.403  17.382  0.00  0.00    +0.104 C 
ATOM     15  C   UNL     1     -12.837  -9.477  16.889  0.00  0.00    +0.104 C 
ATOM     16  C   UNL     1     -10.634  -7.871  15.951  0.00  0.00    +0.120 C 
ATOM     17  C   UNL     1     -12.797  -8.982  15.442  0.00  0.00    +0.120 C 
BRANCH   7  19
ATOM     19  C   UNL     1     -12.155  -6.942  14.228  0.00  0.00    +0.030 A 
ATOM     21  C   UNL     1     -12.354  -7.491  12.962  0.00  0.00    +0.023 A 
ATOM     22  C   UNL     1     -12.150  -5.557  14.395  0.00  0.00    +0.023 A 
ATOM     25  C   UNL     1     -12.547  -6.656  11.862  0.00  0.00    +0.002 A 
ATOM     26  C   UNL     1     -12.343  -4.721  13.295  0.00  0.00    +0.002 A 
ATOM     29  C   UNL     1     -12.542  -5.270  12.028  0.00  0.00    +0.000 A 
ENDBRANCH   7  19
ENDBRANCH   8   5
BRANCH   9   3
ATOM      3  O   UNL     1     -10.341  -9.987  20.863  0.00  0.00    -0.388 OA
ATOM     32  H   UNL     1      -9.536 -10.301  21.307  0.00  0.00    +0.210 HD
ENDBRANCH   9   3
BRANCH  10   6
ATOM      6  N   UNL     1      -8.470 -11.218  17.976  0.00  0.00    -0.305 NA
ATOM     31  H   UNL     1      -9.095 -11.093  17.179  0.00  0.00    +0.123 HD
BRANCH   6  18
ATOM     18  C   UNL     1      -7.573 -10.082  18.096  0.00  0.00    +0.120 C 
BRANCH  18  20
ATOM     20  C   UNL     1      -6.156 -10.448  17.744  0.00  0.00    +0.008 A 
ATOM     23  C   UNL     1      -5.369 -11.184  18.628  0.00  0.00    +0.121 A 
ATOM     24  C   UNL     1      -5.632 -10.041  16.516  0.00  0.00    +0.008 A 
ATOM     27  C   UNL     1      -4.057 -11.513  18.287  0.00  0.00    +0.046 A 
ATOM     28  C   UNL     1      -4.320 -10.370  16.175  0.00  0.00    +0.001 A 
ATOM     30  C   UNL     1      -3.532 -11.107  17.061  0.00  0.00    +0.004 A 
BRANCH  23   4
ATOM      4  O   UNL     1      -5.865 -11.589  19.832  0.00  0.00    -0.506 OA
ATOM     33  H   UNL     1      -6.781 -11.893  19.712  0.00  0.00    +0.292 HD
ENDBRANCH  23   4
ENDBRANCH  18  20
ENDBRANCH   6  18
ENDBRANCH  10   6
TORSDOF 7
ENDMDL
MODEL 9
REMARK VINA RESULT:      -5.6      2.842      7.621
REMARK  Name = 25314972
REMARK  7 active torsions:
REMARK  status: ('A' for Active; 'I' for Inactive)
REMARK    1  A    between atoms: O_3  and  C_9
REMARK    2  A    between atoms: O_4  and  C_23
REMARK    3  A    between atoms: N_5  and  C_8
REMARK    4  A    between atoms: N_6  and  C_10
REMARK    5  A    between atoms: N_6  and  C_18
REMARK    6  A    between atoms: N_7  and  C_19
REMARK    7  A    between atoms: C_18  and  C_20
REMARK                            x       y       z     vdW  Elec       q    Type
REMARK                         _______ _______ _______ _____ _____    ______ ____
ROOT
ATOM      1  O   UNL     1      -5.556 -10.055  18.066  0.00  0.00    -0.343 OA
ATOM      2  O   UNL     1      -4.692 -11.981  19.025  0.00  0.00    -0.347 OA
ATOM      8  C   UNL     1      -5.354 -12.036  16.701  0.00  0.00    +0.143 C 
ATOM      9  C   UNL     1      -6.784 -12.472  17.097  0.00  0.00    +0.156 C 
ATOM     10  C   UNL     1      -7.540 -11.432  17.961  0.00  0.00    +0.116 C 
ATOM     11  C   UNL     1      -6.593 -10.621  18.874  0.00  0.00    +0.166 C 
ATOM     12  C   UNL     1      -4.720 -11.195  17.824  0.00  0.00    +0.270 C 
ATOM     13  C   UNL     1      -5.768 -11.469  19.826  0.00  0.00    +0.196 C 
ENDROOT
BRANCH   8   5
ATOM      5  N   UNL     1      -5.372 -11.273  15.453  0.00  0.00    -0.290 NA
ATOM      7  N   UNL     1      -4.974 -10.835  12.658  0.00  0.00    -0.327 N 
ATOM     14  C   UNL     1      -6.248 -11.918  14.467  0.00  0.00    +0.104 C 
ATOM     15  C   UNL     1      -4.015 -11.146  14.908  0.00  0.00    +0.104 C 
ATOM     16  C   UNL     1      -6.320 -11.099  13.176  0.00  0.00    +0.120 C 
ATOM     17  C   UNL     1      -4.012 -10.301  13.632  0.00  0.00    +0.120 C 
BRANCH   7  19
ATOM     19  C   UNL     1      -4.802 -10.497  11.311  0.00  0.00    +0.030 A 
ATOM     21  C   UNL     1      -5.552 -11.142  10.329  0.00  0.00    +0.023 A 
ATOM     22  C   UNL     1      -3.880  -9.514  10.952  0.00  0.00    +0.023 A 
ATOM     25  C   UNL     1      -5.380 -10.805   8.987  0.00  0.00    +0.002 A 
ATOM     26  C   UNL     1      -3.707  -9.177   9.609  0.00  0.00    +0.002 A 
ATOM     29  C   UNL     1      -4.458  -9.822   8.626  0.00  0.00    +0.000 A 
ENDBRANCH   7  19
ENDBRANCH   8   5
BRANCH   9   3
ATOM      3  O   UNL     1      -6.675 -13.693  17.844  0.00  0.00    -0.388 OA
ATOM     32  H   UNL     1      -7.342 -14.309  17.498  0.00  0.00    +0.210 HD
ENDBRANCH   9   3
BRANCH  10   6
ATOM      6  N   UNL     1      -8.273 -10.490  17.109  0.00  0.00    -0.305 NA
ATOM     31  H   UNL     1      -9.030 -10.980  16.631  0.00  0.00    +0.123 HD
BRANCH   6  18
ATOM     18  C   UNL     1      -8.804  -9.393  17.900  0.00  0.00    +0.120 C 
BRANCH  18  20
ATOM     20  C   UNL     1     -10.257  -9.596  18.236  0.00  0.00    +0.008 A 
ATOM     23  C   UNL     1     -10.641 -10.039  19.500  0.00  0.00    +0.121 A 
ATOM     24  C   UNL     1     -11.224  -9.336  17.263  0.00  0.00    +0.008 A 
ATOM     27  C   UNL     1     -11.992 -10.223  19.795  0.00  0.00    +0.046 A 
ATOM     28  C   UNL     1     -12.575  -9.520  17.558  0.00  0.00    +0.001 A 
ATOM     30  C   UNL     1     -12.959  -9.964  18.824  0.00  0.00    +0.004 A 
BRANCH  23   4
ATOM      4  O   UNL     1      -9.710 -10.298  20.461  0.00  0.00    -0.506 OA
ATOM     33  H   UNL     1     -10.023  -9.945  21.311  0.00  0.00    +0.292 HD
ENDBRANCH  23   4
ENDBRANCH  18  20
ENDBRANCH   6  18
ENDBRANCH  10   6
TORSDOF 7
ENDMDL
MODEL 10
REMARK VINA RESULT:      -5.6      5.226      7.587
REMARK  Name = 25314972
REMARK  7 active torsions:
REMARK  status: ('A' for Active; 'I' for Inactive)
REMARK    1  A    between atoms: O_3  and  C_9
REMARK    2  A    between atoms: O_4  and  C_23
REMARK    3  A    between atoms: N_5  and  C_8
REMARK    4  A    between atoms: N_6  and  C_10
REMARK    5  A    between atoms: N_6  and  C_18
REMARK    6  A    between atoms: N_7  and  C_19
REMARK    7  A    between atoms: C_18  and  C_20
REMARK                            x       y       z     vdW  Elec       q    Type
REMARK                         _______ _______ _______ _____ _____    ______ ____
ROOT
ATOM      1  O   UNL     1      -8.872 -12.568  17.296  0.00  0.00    -0.343 OA
ATOM      2  O   UNL     1      -6.958 -12.863  18.570  0.00  0.00    -0.347 OA
ATOM      8  C   UNL     1      -8.793 -11.595  19.505  0.00  0.00    +0.143 C 
ATOM      9  C   UNL     1      -8.211 -10.286  18.922  0.00  0.00    +0.156 C 
ATOM     10  C   UNL     1      -8.133 -10.268  17.376  0.00  0.00    +0.116 C 
ATOM     11  C   UNL     1      -7.884 -11.671  16.779  0.00  0.00    +0.166 C 
ATOM     12  C   UNL     1      -8.392 -12.796  18.628  0.00  0.00    +0.270 C 
ATOM     13  C   UNL     1      -6.617 -12.344  17.276  0.00  0.00    +0.196 C 
ENDROOT
BRANCH   8   5
ATOM      5  N   UNL     1     -10.250 -11.515  19.607  0.00  0.00    -0.290 NA
ATOM      7  N   UNL     1     -12.756 -11.187  20.938  0.00  0.00    -0.327 N 
ATOM     14  C   UNL     1     -10.659 -10.197  20.106  0.00  0.00    +0.104 C 
ATOM     15  C   UNL     1     -10.762 -12.566  20.494  0.00  0.00    +0.104 C 
ATOM     16  C   UNL     1     -12.184 -10.079  20.165  0.00  0.00    +0.120 C 
ATOM     17  C   UNL     1     -12.290 -12.529  20.565  0.00  0.00    +0.120 C 
BRANCH   7  19
ATOM     19  C   UNL     1     -14.040 -11.063  21.482  0.00  0.00    +0.030 A 
ATOM     21  C   UNL     1     -14.449 -11.918  22.504  0.00  0.00    +0.023 A 
ATOM     22  C   UNL     1     -14.909 -10.085  21.000  0.00  0.00    +0.023 A 
ATOM     25  C   UNL     1     -15.729 -11.795  23.046  0.00  0.00    +0.002 A 
ATOM     26  C   UNL     1     -16.189  -9.962  21.541  0.00  0.00    +0.002 A 
ATOM     29  C   UNL     1     -16.599 -10.817  22.564  0.00  0.00    +0.000 A 
ENDBRANCH   7  19
ENDBRANCH   8   5
BRANCH   9   3
ATOM      3  O   UNL     1      -6.885 -10.128  19.448  0.00  0.00    -0.388 OA
ATOM     32  H   UNL     1      -6.277 -10.058  18.694  0.00  0.00    +0.210 HD
ENDBRANCH   9   3
BRANCH  10   6
ATOM      6  N   UNL     1      -9.376  -9.741  16.803  0.00  0.00    -0.305 NA
ATOM     31  H   UNL     1     -10.176 -10.172  17.269  0.00  0.00    +0.123 HD
BRANCH   6  18
ATOM     18  C   UNL     1      -9.431  -8.296  16.944  0.00  0.00    +0.120 C 
BRANCH  18  20
ATOM     20  C   UNL     1     -10.764  -7.742  16.517  0.00  0.00    +0.008 A 
ATOM     23  C   UNL     1     -10.846  -6.531  15.831  0.00  0.00    +0.121 A 
ATOM     24  C   UNL     1     -11.926  -8.454  16.816  0.00  0.00    +0.008 A 
ATOM     27  C   UNL     1     -12.089  -6.030  15.444  0.00  0.00    +0.046 A 
ATOM     28  C   UNL     1     -13.169  -7.954  16.429  0.00  0.00    +0.001 A 
ATOM     30  C   UNL     1     -13.251  -6.742  15.743  0.00  0.00    +0.004 A 
BRANCH  23   4
ATOM      4  O   UNL     1      -9.721  -5.822  15.532  0.00  0.00    -0.506 OA
ATOM     33  H   UNL     1      -8.940  -6.354  15.758  0.00  0.00    +0.292 HD
ENDBRANCH  23   4
ENDBRANCH  18  20
ENDBRANCH   6  18
ENDBRANCH  10   6
TORSDOF 7
ENDMDL
