REMARK  Name = 28962225
REMARK  12 active torsions:
REMARK  status: ('A' for Active; 'I' for Inactive)
REMARK    1  A    between atoms: O_3  and  C_9
REMARK    2  A    between atoms: O_4  and  C_12
REMARK    3  A    between atoms: N_5  and  C_7
REMARK    4  A    between atoms: N_5  and  C_13
REMARK    5  A    between atoms: N_5  and  C_14
REMARK    6  A    between atoms: N_6  and  C_11
REMARK    7  A    between atoms: N_6  and  C_16
REMARK    8  A    between atoms: C_8  and  C_11
REMARK    9  A    between atoms: C_10  and  C_12
REMARK   10  A    between atoms: C_13  and  C_15
REMARK   11  A    between atoms: C_15  and  C_17
REMARK   12  A    between atoms: C_16  and  C_18
REMARK                            x       y       z     vdW  Elec       q    Type
REMARK                         _______ _______ _______ _____ _____    ______ ____
ROOT
ATOM      2  O   UNL     1       1.028  -2.393  -1.006  0.00  0.00    -0.366 OA
ATOM      7  C   UNL     1      -1.240  -2.258  -0.297  0.00  0.00    +0.118 C 
ATOM      8  C   UNL     1       0.004  -1.436  -0.655  0.00  0.00    +0.152 C 
ATOM      9  C   UNL     1      -0.655  -3.588   0.153  0.00  0.00    +0.165 C 
ATOM     10  C   UNL     1       0.511  -3.725  -0.818  0.00  0.00    +0.174 C 
ENDROOT
BRANCH   9   3
ATOM      3  O   UNL     1      -0.180  -3.521   1.491  0.00  0.00    -0.388 OA
ATOM     29  H   UNL     1       0.082  -4.419   1.756  0.00  0.00    +0.210 HD
ENDBRANCH   9   3
BRANCH   7   5
ATOM      5  N   UNL     1      -2.170  -1.643   0.634  0.00  0.00    -0.297 NA
ATOM     14  C   UNL     1      -3.042  -2.652   1.243  0.00  0.00    +0.105 C 
BRANCH   5  13
ATOM     13  C   UNL     1      -2.978  -0.619  -0.036  0.00  0.00    +0.089 C 
BRANCH  13  15
ATOM     15  C   UNL     1      -3.621   0.323   0.983  0.00  0.00    +0.050 C 
BRANCH  15  17
ATOM     17  C   UNL     1      -4.473   1.369   0.308  0.00  0.00    -0.046 A 
ATOM     19  C   UNL     1      -3.909   2.585  -0.077  0.00  0.00    +0.003 A 
ATOM     20  C   UNL     1      -5.824   1.120   0.070  0.00  0.00    +0.003 A 
ATOM     23  C   UNL     1      -4.697   3.553  -0.701  0.00  0.00    +0.000 A 
ATOM     24  C   UNL     1      -6.612   2.088  -0.553  0.00  0.00    +0.000 A 
ATOM     25  C   UNL     1      -6.048   3.304  -0.939  0.00  0.00    +0.000 A 
ENDBRANCH  15  17
ENDBRANCH  13  15
ENDBRANCH   5  13
ENDBRANCH   7   5
BRANCH   8  11
ATOM     11  C   UNL     1       0.575  -0.547   0.444  0.00  0.00    +0.114 C 
BRANCH  11   6
ATOM      6  N   UNL     1       1.735   0.193  -0.033  0.00  0.00    -0.310 NA
ATOM     30  H   UNL     1       1.463   0.772  -0.828  0.00  0.00    +0.122 HD
BRANCH   6  16
ATOM     16  C   UNL     1       2.286   1.035   1.020  0.00  0.00    +0.116 C 
BRANCH  16  18
ATOM      1 CL   UNL     1       7.357   1.064  -0.182  0.00  0.00    -0.084 Cl
ATOM     18  C   UNL     1       3.495   1.801   0.550  0.00  0.00    -0.032 A 
ATOM     21  C   UNL     1       4.723   1.153   0.418  0.00  0.00    +0.025 A 
ATOM     22  C   UNL     1       3.385   3.158   0.247  0.00  0.00    +0.005 A 
ATOM     26  C   UNL     1       5.842   1.862  -0.018  0.00  0.00    +0.041 A 
ATOM     27  C   UNL     1       4.505   3.867  -0.188  0.00  0.00    +0.002 A 
ATOM     28  C   UNL     1       5.733   3.220  -0.321  0.00  0.00    +0.020 A 
ENDBRANCH  16  18
ENDBRANCH   6  16
ENDBRANCH  11   6
ENDBRANCH   8  11
BRANCH  10  12
ATOM     12  C   UNL     1       1.635  -4.639  -0.365  0.00  0.00    +0.190 C 
BRANCH  12   4
ATOM      4  O   UNL     1       2.634  -4.672  -1.372  0.00  0.00    -0.392 OA
ATOM     31  H   UNL     1       3.338  -5.266  -1.058  0.00  0.00    +0.210 HD
ENDBRANCH  12   4
ENDBRANCH  10  12
TORSDOF 11
