REMARK  Name = 51137363
REMARK  5 active torsions:
REMARK  status: ('A' for Active; 'I' for Inactive)
REMARK    1  A    between atoms: N_3  and  C_11
REMARK    2  A    between atoms: C_7  and  C_12
REMARK    3  A    between atoms: C_11  and  C_13
REMARK    4  A    between atoms: C_14  and  C_15
REMARK    5  A    between atoms: C_15  and  C_18
REMARK                            x       y       z     vdW  Elec       q    Type
REMARK                         _______ _______ _______ _____ _____    ______ ____
ROOT
ATOM      2  O   UNL     1      -2.089   1.138   0.221  0.00  0.00    -0.424 OA
ATOM      4  N   UNL     1      -3.293   2.618  -0.947  0.00  0.00    -0.112 NA
ATOM      5  N   UNL     1      -4.045   1.465  -0.814  0.00  0.00    -0.112 NA
ATOM     12  C   UNL     1      -2.160   2.382  -0.328  0.00  0.00    +0.222 A 
ATOM     14  C   UNL     1      -3.303   0.630  -0.126  0.00  0.00    +0.222 A 
ENDROOT
BRANCH  12   7
ATOM      3  N   UNL     1       1.188   2.470   0.482  0.00  0.00    -0.297 NA
ATOM      7  C   UNL     1      -0.956   3.279  -0.146  0.00  0.00    +0.092 C 
ATOM      8  C   UNL     1      -0.658   3.579   1.331  0.00  0.00    +0.029 C 
ATOM      9  C   UNL     1       0.361   2.710  -0.705  0.00  0.00    +0.097 C 
ATOM     10  C   UNL     1       0.859   3.542   1.418  0.00  0.00    +0.085 C 
BRANCH   3  11
ATOM     11  C   UNL     1       2.609   2.416   0.171  0.00  0.00    +0.122 C 
BRANCH  11  13
ATOM      1  F   UNL     1       2.934   0.117   1.794  0.00  0.00    -0.205 F 
ATOM     13  C   UNL     1       3.013   1.073  -0.377  0.00  0.00    +0.002 A 
ATOM     16  C   UNL     1       3.155  -0.018   0.479  0.00  0.00    +0.128 A 
ATOM     17  C   UNL     1       3.244   0.922  -1.744  0.00  0.00    +0.008 A 
ATOM     22  C   UNL     1       3.529  -1.261  -0.031  0.00  0.00    +0.038 A 
ATOM     23  C   UNL     1       3.619  -0.321  -2.255  0.00  0.00    +0.000 A 
ATOM     24  C   UNL     1       3.761  -1.413  -1.399  0.00  0.00    +0.003 A 
ENDBRANCH  11  13
ENDBRANCH   3  11
ENDBRANCH  12   7
BRANCH  14  15
ATOM     15  C   UNL     1      -3.597  -0.741   0.312  0.00  0.00    +0.135 C 
BRANCH  15  18
ATOM      6  N   UNL     1      -1.591  -3.342  -1.387  0.00  0.00    -0.360 N 
ATOM     18  C   UNL     1      -2.596  -1.790  -0.159  0.00  0.00    -0.013 A 
ATOM     19  C   UNL     1      -1.419  -2.205   0.524  0.00  0.00    +0.003 A 
ATOM     20  C   UNL     1      -0.807  -3.179  -0.268  0.00  0.00    +0.047 A 
ATOM     21  C   UNL     1      -2.675  -2.507  -1.331  0.00  0.00    +0.087 A 
ATOM     25  C   UNL     1      -0.813  -1.844   1.744  0.00  0.00    +0.010 A 
ATOM     26  C   UNL     1       0.385  -3.813   0.101  0.00  0.00    +0.026 A 
ATOM     27  C   UNL     1       0.379  -2.469   2.126  0.00  0.00    +0.001 A 
ATOM     28  C   UNL     1       0.967  -3.439   1.315  0.00  0.00    +0.002 A 
ATOM     29  H   UNL     1      -1.395  -3.986  -2.142  0.00  0.00    +0.165 HD
ENDBRANCH  15  18
ENDBRANCH  14  15
TORSDOF 5
