MODEL 1
REMARK VINA RESULT:      -6.3      0.000      0.000
REMARK  Name = 45783558
REMARK  12 active torsions:
REMARK  status: ('A' for Active; 'I' for Inactive)
REMARK    1  A    between atoms: O_2  and  C_23
REMARK    2  A    between atoms: O_2  and  C_24
REMARK    3  A    between atoms: O_3  and  C_25
REMARK    4  A    between atoms: O_3  and  C_26
REMARK    5  A    between atoms: N_4  and  C_11
REMARK    6  A    between atoms: C_8  and  C_14
REMARK    7  A    between atoms: C_11  and  C_13
REMARK    8  A    between atoms: C_13  and  C_15
REMARK    9  A    between atoms: C_13  and  C_16
REMARK   10  A    between atoms: C_13  and  C_17
REMARK   11  A    between atoms: C_18  and  C_19
REMARK   12  A    between atoms: C_24  and  C_25
REMARK                            x       y       z     vdW  Elec       q    Type
REMARK                         _______ _______ _______ _____ _____    ______ ____
ROOT
ATOM      1  O   UNL     1      15.274   6.814  18.910  0.00  0.00    -0.336 OA
ATOM      5  N   UNL     1      16.633   7.894  20.326  0.00  0.00    -0.190 NA
ATOM      6  N   UNL     1      16.387   5.982  19.093  0.00  0.00    -0.056 NA
ATOM     14  C   UNL     1      15.500   7.917  19.670  0.00  0.00    +0.245 A 
ATOM     18  C   UNL     1      17.142   6.688  19.940  0.00  0.00    +0.204 A 
ENDROOT
BRANCH  18  19
ATOM      7  N   UNL     1      20.218   6.412  22.011  0.00  0.00    -0.221 NA
ATOM     19  C   UNL     1      18.409   6.217  20.420  0.00  0.00    +0.041 A 
ATOM     20  C   UNL     1      19.057   5.152  19.803  0.00  0.00    +0.018 A 
ATOM     21  C   UNL     1      19.026   6.807  21.510  0.00  0.00    +0.126 A 
ATOM     22  C   UNL     1      20.285   4.718  20.288  0.00  0.00    +0.068 A 
ATOM     23  C   UNL     1      20.818   5.375  21.384  0.00  0.00    +0.215 A 
BRANCH  23   2
ATOM      2  O   UNL     1      22.028   4.965  21.882  0.00  0.00    -0.474 OA
BRANCH   2  24
ATOM     24  C   UNL     1      22.841   4.178  21.020  0.00  0.00    +0.258 C 
BRANCH  24  25
ATOM     25  C   UNL     1      23.043   2.809  21.642  0.00  0.00    +0.200 C 
BRANCH  25   3
ATOM      3  O   UNL     1      23.851   2.022  20.776  0.00  0.00    -0.380 OA
ATOM     26  C   UNL     1      24.530   0.996  21.488  0.00  0.00    +0.194 C 
ENDBRANCH  25   3
ENDBRANCH  24  25
ENDBRANCH   2  24
ENDBRANCH  23   2
ENDBRANCH  18  19
BRANCH  14   8
ATOM      4  N   UNL     1      13.578   9.109  20.845  0.00  0.00    -0.291 NA
ATOM      8  C   UNL     1      14.422   8.992  19.644  0.00  0.00    +0.146 C 
ATOM      9  C   UNL     1      14.954  10.424  19.506  0.00  0.00    +0.030 C 
ATOM     10  C   UNL     1      14.276   9.965  21.795  0.00  0.00    +0.085 C 
ATOM     12  C   UNL     1      14.930  11.019  20.913  0.00  0.00    +0.017 C 
BRANCH   4  11
ATOM     11  C   UNL     1      13.091   7.870  21.423  0.00  0.00    +0.091 C 
BRANCH  11  13
ATOM     13  C   UNL     1      11.545   7.755  21.463  0.00  0.00    -0.025 C 
ATOM     15  C   UNL     1      10.956   8.548  22.642  0.00  0.00    +0.012 C 
ATOM     16  C   UNL     1      10.984   8.339  20.151  0.00  0.00    +0.012 C 
ATOM     17  C   UNL     1      11.108   6.283  21.572  0.00  0.00    +0.012 C 
ENDBRANCH  11  13
ENDBRANCH   4  11
ENDBRANCH  14   8
TORSDOF 8
ENDMDL
MODEL 2
REMARK VINA RESULT:      -5.7      1.825      3.191
REMARK  Name = 45783558
REMARK  12 active torsions:
REMARK  status: ('A' for Active; 'I' for Inactive)
REMARK    1  A    between atoms: O_2  and  C_23
REMARK    2  A    between atoms: O_2  and  C_24
REMARK    3  A    between atoms: O_3  and  C_25
REMARK    4  A    between atoms: O_3  and  C_26
REMARK    5  A    between atoms: N_4  and  C_11
REMARK    6  A    between atoms: C_8  and  C_14
REMARK    7  A    between atoms: C_11  and  C_13
REMARK    8  A    between atoms: C_13  and  C_15
REMARK    9  A    between atoms: C_13  and  C_16
REMARK   10  A    between atoms: C_13  and  C_17
REMARK   11  A    between atoms: C_18  and  C_19
REMARK   12  A    between atoms: C_24  and  C_25
REMARK                            x       y       z     vdW  Elec       q    Type
REMARK                         _______ _______ _______ _____ _____    ______ ____
ROOT
ATOM      1  O   UNL     1      15.643   6.235  19.129  0.00  0.00    -0.336 OA
ATOM      5  N   UNL     1      16.861   7.402  20.603  0.00  0.00    -0.190 NA
ATOM      6  N   UNL     1      16.912   5.640  19.144  0.00  0.00    -0.056 NA
ATOM     14  C   UNL     1      15.700   7.263  20.016  0.00  0.00    +0.245 A 
ATOM     18  C   UNL     1      17.572   6.384  20.037  0.00  0.00    +0.204 A 
ENDROOT
BRANCH  18  19
ATOM      7  N   UNL     1      21.002   6.939  21.360  0.00  0.00    -0.221 NA
ATOM     19  C   UNL     1      18.942   6.137  20.383  0.00  0.00    +0.041 A 
ATOM     20  C   UNL     1      19.543   4.915  20.102  0.00  0.00    +0.018 A 
ATOM     21  C   UNL     1      19.708   7.108  21.008  0.00  0.00    +0.126 A 
ATOM     22  C   UNL     1      20.873   4.704  20.448  0.00  0.00    +0.068 A 
ATOM     23  C   UNL     1      21.552   5.739  21.070  0.00  0.00    +0.215 A 
BRANCH  23   2
ATOM      2  O   UNL     1      22.864   5.556  21.422  0.00  0.00    -0.474 OA
BRANCH   2  24
ATOM     24  C   UNL     1      23.840   6.196  20.609  0.00  0.00    +0.258 C 
BRANCH  24  25
ATOM     25  C   UNL     1      24.900   5.184  20.217  0.00  0.00    +0.200 C 
BRANCH  25   3
ATOM      3  O   UNL     1      24.604   3.939  20.837  0.00  0.00    -0.380 OA
ATOM     26  C   UNL     1      24.750   2.857  19.927  0.00  0.00    +0.194 C 
ENDBRANCH  25   3
ENDBRANCH  24  25
ENDBRANCH   2  24
ENDBRANCH  23   2
ENDBRANCH  18  19
BRANCH  14   8
ATOM      4  N   UNL     1      13.613   8.298  18.980  0.00  0.00    -0.291 NA
ATOM      8  C   UNL     1      14.427   8.082  20.188  0.00  0.00    +0.146 C 
ATOM      9  C   UNL     1      13.397   7.464  21.142  0.00  0.00    +0.030 C 
ATOM     10  C   UNL     1      12.737   7.144  18.824  0.00  0.00    +0.085 C 
ATOM     12  C   UNL     1      12.351   6.792  20.254  0.00  0.00    +0.017 C 
BRANCH   4  11
ATOM     11  C   UNL     1      14.326   8.658  17.769  0.00  0.00    +0.091 C 
BRANCH  11  13
ATOM     13  C   UNL     1      13.764   9.914  17.054  0.00  0.00    -0.025 C 
ATOM     15  C   UNL     1      12.565   9.557  16.158  0.00  0.00    +0.012 C 
ATOM     16  C   UNL     1      13.290  10.911  18.130  0.00  0.00    +0.012 C 
ATOM     17  C   UNL     1      14.852  10.592  16.201  0.00  0.00    +0.012 C 
ENDBRANCH  11  13
ENDBRANCH   4  11
ENDBRANCH  14   8
TORSDOF 8
ENDMDL
MODEL 3
REMARK VINA RESULT:      -5.6     27.489     30.255
REMARK  Name = 45783558
REMARK  12 active torsions:
REMARK  status: ('A' for Active; 'I' for Inactive)
REMARK    1  A    between atoms: O_2  and  C_23
REMARK    2  A    between atoms: O_2  and  C_24
REMARK    3  A    between atoms: O_3  and  C_25
REMARK    4  A    between atoms: O_3  and  C_26
REMARK    5  A    between atoms: N_4  and  C_11
REMARK    6  A    between atoms: C_8  and  C_14
REMARK    7  A    between atoms: C_11  and  C_13
REMARK    8  A    between atoms: C_13  and  C_15
REMARK    9  A    between atoms: C_13  and  C_16
REMARK   10  A    between atoms: C_13  and  C_17
REMARK   11  A    between atoms: C_18  and  C_19
REMARK   12  A    between atoms: C_24  and  C_25
REMARK                            x       y       z     vdW  Elec       q    Type
REMARK                         _______ _______ _______ _____ _____    ______ ____
ROOT
ATOM      1  O   UNL     1      -1.387 -11.113  15.485  0.00  0.00    -0.336 OA
ATOM      5  N   UNL     1      -3.482 -11.842  15.172  0.00  0.00    -0.190 NA
ATOM      6  N   UNL     1      -2.098 -10.764  16.641  0.00  0.00    -0.056 NA
ATOM     14  C   UNL     1      -2.276 -11.743  14.673  0.00  0.00    +0.245 A 
ATOM     18  C   UNL     1      -3.324 -11.227  16.381  0.00  0.00    +0.204 A 
ENDROOT
BRANCH  18  19
ATOM      7  N   UNL     1      -6.620 -10.230  17.785  0.00  0.00    -0.221 NA
ATOM     19  C   UNL     1      -4.412 -11.090  17.305  0.00  0.00    +0.041 A 
ATOM     20  C   UNL     1      -4.347 -11.652  18.576  0.00  0.00    +0.018 A 
ATOM     21  C   UNL     1      -5.560 -10.395  16.961  0.00  0.00    +0.126 A 
ATOM     22  C   UNL     1      -5.416 -11.502  19.452  0.00  0.00    +0.068 A 
ATOM     23  C   UNL     1      -6.519 -10.789  19.012  0.00  0.00    +0.215 A 
BRANCH  23   2
ATOM      2  O   UNL     1      -7.587 -10.629  19.856  0.00  0.00    -0.474 OA
BRANCH   2  24
ATOM     24  C   UNL     1      -8.700 -11.491  19.653  0.00  0.00    +0.258 C 
BRANCH  24  25
ATOM     25  C   UNL     1      -9.980 -10.688  19.782  0.00  0.00    +0.200 C 
BRANCH  25   3
ATOM      3  O   UNL     1     -11.059 -11.575  20.049  0.00  0.00    -0.380 OA
ATOM     26  C   UNL     1     -10.597 -12.818  20.558  0.00  0.00    +0.194 C 
ENDBRANCH  25   3
ENDBRANCH  24  25
ENDBRANCH   2  24
ENDBRANCH  23   2
ENDBRANCH  18  19
BRANCH  14   8
ATOM      4  N   UNL     1      -2.255 -13.523  12.849  0.00  0.00    -0.291 NA
ATOM      8  C   UNL     1      -1.744 -12.230  13.332  0.00  0.00    +0.146 C 
ATOM      9  C   UNL     1      -2.070 -11.312  12.147  0.00  0.00    +0.030 C 
ATOM     10  C   UNL     1      -3.510 -13.271  12.153  0.00  0.00    +0.085 C 
ATOM     12  C   UNL     1      -3.263 -11.951  11.437  0.00  0.00    +0.017 C 
BRANCH   4  11
ATOM     11  C   UNL     1      -2.331 -14.598  13.821  0.00  0.00    +0.091 C 
BRANCH  11  13
ATOM     13  C   UNL     1      -1.414 -15.807  13.500  0.00  0.00    -0.025 C 
ATOM     15  C   UNL     1       0.053 -15.370  13.349  0.00  0.00    +0.012 C 
ATOM     16  C   UNL     1      -1.509 -16.809  14.667  0.00  0.00    +0.012 C 
ATOM     17  C   UNL     1      -1.870 -16.512  12.209  0.00  0.00    +0.012 C 
ENDBRANCH  11  13
ENDBRANCH   4  11
ENDBRANCH  14   8
TORSDOF 8
ENDMDL
MODEL 4
REMARK VINA RESULT:      -5.5      2.065      3.323
REMARK  Name = 45783558
REMARK  12 active torsions:
REMARK  status: ('A' for Active; 'I' for Inactive)
REMARK    1  A    between atoms: O_2  and  C_23
REMARK    2  A    between atoms: O_2  and  C_24
REMARK    3  A    between atoms: O_3  and  C_25
REMARK    4  A    between atoms: O_3  and  C_26
REMARK    5  A    between atoms: N_4  and  C_11
REMARK    6  A    between atoms: C_8  and  C_14
REMARK    7  A    between atoms: C_11  and  C_13
REMARK    8  A    between atoms: C_13  and  C_15
REMARK    9  A    between atoms: C_13  and  C_16
REMARK   10  A    between atoms: C_13  and  C_17
REMARK   11  A    between atoms: C_18  and  C_19
REMARK   12  A    between atoms: C_24  and  C_25
REMARK                            x       y       z     vdW  Elec       q    Type
REMARK                         _______ _______ _______ _____ _____    ______ ____
ROOT
ATOM      1  O   UNL     1      13.861   8.029  21.902  0.00  0.00    -0.336 OA
ATOM      5  N   UNL     1      15.271   8.745  20.316  0.00  0.00    -0.190 NA
ATOM      6  N   UNL     1      15.069   7.355  22.122  0.00  0.00    -0.056 NA
ATOM     14  C   UNL     1      14.066   8.826  20.821  0.00  0.00    +0.245 A 
ATOM     18  C   UNL     1      15.850   7.830  21.147  0.00  0.00    +0.204 A 
ENDROOT
BRANCH  18  19
ATOM      7  N   UNL     1      19.558   7.783  21.420  0.00  0.00    -0.221 NA
ATOM     19  C   UNL     1      17.211   7.412  20.976  0.00  0.00    +0.041 A 
ATOM     20  C   UNL     1      17.524   6.278  20.233  0.00  0.00    +0.018 A 
ATOM     21  C   UNL     1      18.256   8.123  21.543  0.00  0.00    +0.126 A 
ATOM     22  C   UNL     1      18.852   5.896  20.083  0.00  0.00    +0.068 A 
ATOM     23  C   UNL     1      19.823   6.675  20.690  0.00  0.00    +0.215 A 
BRANCH  23   2
ATOM      2  O   UNL     1      21.140   6.320  20.557  0.00  0.00    -0.474 OA
BRANCH   2  24
ATOM     24  C   UNL     1      21.442   4.933  20.655  0.00  0.00    +0.258 C 
BRANCH  24  25
ATOM     25  C   UNL     1      22.948   4.752  20.641  0.00  0.00    +0.200 C 
BRANCH  25   3
ATOM      3  O   UNL     1      23.498   5.351  21.807  0.00  0.00    -0.380 OA
ATOM     26  C   UNL     1      24.315   4.438  22.527  0.00  0.00    +0.194 C 
ENDBRANCH  25   3
ENDBRANCH  24  25
ENDBRANCH   2  24
ENDBRANCH  23   2
ENDBRANCH  18  19
BRANCH  14   8
ATOM      4  N   UNL     1      11.920   9.037  19.462  0.00  0.00    -0.291 NA
ATOM      8  C   UNL     1      12.886   9.676  20.370  0.00  0.00    +0.146 C 
ATOM      9  C   UNL     1      11.969  10.145  21.508  0.00  0.00    +0.030 C 
ATOM     10  C   UNL     1      10.960   8.305  20.279  0.00  0.00    +0.085 C 
ATOM     12  C   UNL     1      10.765   9.204  21.492  0.00  0.00    +0.017 C 
BRANCH   4  11
ATOM     11  C   UNL     1      12.471   8.256  18.369  0.00  0.00    +0.091 C 
BRANCH  11  13
ATOM     13  C   UNL     1      12.805   9.089  17.104  0.00  0.00    -0.025 C 
ATOM     15  C   UNL     1      13.937   8.439  16.291  0.00  0.00    +0.012 C 
ATOM     16  C   UNL     1      11.543   9.154  16.221  0.00  0.00    +0.012 C 
ATOM     17  C   UNL     1      13.212  10.524  17.484  0.00  0.00    +0.012 C 
ENDBRANCH  11  13
ENDBRANCH   4  11
ENDBRANCH  14   8
TORSDOF 8
ENDMDL
MODEL 5
REMARK VINA RESULT:      -5.4     26.973     29.734
REMARK  Name = 45783558
REMARK  12 active torsions:
REMARK  status: ('A' for Active; 'I' for Inactive)
REMARK    1  A    between atoms: O_2  and  C_23
REMARK    2  A    between atoms: O_2  and  C_24
REMARK    3  A    between atoms: O_3  and  C_25
REMARK    4  A    between atoms: O_3  and  C_26
REMARK    5  A    between atoms: N_4  and  C_11
REMARK    6  A    between atoms: C_8  and  C_14
REMARK    7  A    between atoms: C_11  and  C_13
REMARK    8  A    between atoms: C_13  and  C_15
REMARK    9  A    between atoms: C_13  and  C_16
REMARK   10  A    between atoms: C_13  and  C_17
REMARK   11  A    between atoms: C_18  and  C_19
REMARK   12  A    between atoms: C_24  and  C_25
REMARK                            x       y       z     vdW  Elec       q    Type
REMARK                         _______ _______ _______ _____ _____    ______ ____
ROOT
ATOM      1  O   UNL     1      -5.375 -11.795  19.450  0.00  0.00    -0.336 OA
ATOM      5  N   UNL     1      -6.134 -11.136  17.448  0.00  0.00    -0.190 NA
ATOM      6  N   UNL     1      -4.245 -11.644  18.635  0.00  0.00    -0.056 NA
ATOM     14  C   UNL     1      -6.444 -11.476  18.674  0.00  0.00    +0.245 A 
ATOM     18  C   UNL     1      -4.775 -11.254  17.472  0.00  0.00    +0.204 A 
ENDROOT
BRANCH  18  19
ATOM      7  N   UNL     1      -3.858 -10.514  13.945  0.00  0.00    -0.221 NA
ATOM     19  C   UNL     1      -3.974 -10.975  16.315  0.00  0.00    +0.041 A 
ATOM     20  C   UNL     1      -2.588 -10.894  16.406  0.00  0.00    +0.018 A 
ATOM     21  C   UNL     1      -4.555 -10.779  15.073  0.00  0.00    +0.126 A 
ATOM     22  C   UNL     1      -1.837 -10.624  15.268  0.00  0.00    +0.068 A 
ATOM     23  C   UNL     1      -2.514 -10.443  14.072  0.00  0.00    +0.215 A 
BRANCH  23   2
ATOM      2  O   UNL     1      -1.796 -10.175  12.936  0.00  0.00    -0.474 OA
BRANCH   2  24
ATOM     24  C   UNL     1      -2.341 -10.645  11.709  0.00  0.00    +0.258 C 
BRANCH  24  25
ATOM     25  C   UNL     1      -2.433  -9.489  10.732  0.00  0.00    +0.200 C 
BRANCH  25   3
ATOM      3  O   UNL     1      -3.796  -9.109  10.590  0.00  0.00    -0.380 OA
ATOM     26  C   UNL     1      -4.170  -9.014   9.222  0.00  0.00    +0.194 C 
ENDBRANCH  25   3
ENDBRANCH  24  25
ENDBRANCH   2  24
ENDBRANCH  23   2
ENDBRANCH  18  19
BRANCH  14   8
ATOM      4  N   UNL     1      -8.982 -11.418  18.453  0.00  0.00    -0.291 NA
ATOM      8  C   UNL     1      -7.813 -11.562  19.335  0.00  0.00    +0.146 C 
ATOM      9  C   UNL     1      -8.108 -12.905  20.015  0.00  0.00    +0.030 C 
ATOM     10  C   UNL     1      -9.277 -12.730  17.890  0.00  0.00    +0.085 C 
ATOM     12  C   UNL     1      -8.990 -13.685  19.040  0.00  0.00    +0.017 C 
BRANCH   4  11
ATOM     11  C   UNL     1      -8.926 -10.358  17.464  0.00  0.00    +0.091 C 
BRANCH  11  13
ATOM     13  C   UNL     1     -10.181  -9.446  17.443  0.00  0.00    -0.025 C 
ATOM     15  C   UNL     1      -9.798  -7.974  17.214  0.00  0.00    +0.012 C 
ATOM     16  C   UNL     1     -11.090  -9.901  16.285  0.00  0.00    +0.012 C 
ATOM     17  C   UNL     1     -10.967  -9.566  18.762  0.00  0.00    +0.012 C 
ENDBRANCH  11  13
ENDBRANCH   4  11
ENDBRANCH  14   8
TORSDOF 8
ENDMDL
MODEL 6
REMARK VINA RESULT:      -5.3     27.518     29.914
REMARK  Name = 45783558
REMARK  12 active torsions:
REMARK  status: ('A' for Active; 'I' for Inactive)
REMARK    1  A    between atoms: O_2  and  C_23
REMARK    2  A    between atoms: O_2  and  C_24
REMARK    3  A    between atoms: O_3  and  C_25
REMARK    4  A    between atoms: O_3  and  C_26
REMARK    5  A    between atoms: N_4  and  C_11
REMARK    6  A    between atoms: C_8  and  C_14
REMARK    7  A    between atoms: C_11  and  C_13
REMARK    8  A    between atoms: C_13  and  C_15
REMARK    9  A    between atoms: C_13  and  C_16
REMARK   10  A    between atoms: C_13  and  C_17
REMARK   11  A    between atoms: C_18  and  C_19
REMARK   12  A    between atoms: C_24  and  C_25
REMARK                            x       y       z     vdW  Elec       q    Type
REMARK                         _______ _______ _______ _____ _____    ______ ____
ROOT
ATOM      1  O   UNL     1      -2.613 -10.603  10.924  0.00  0.00    -0.336 OA
ATOM      5  N   UNL     1      -4.382  -9.952  12.135  0.00  0.00    -0.190 NA
ATOM      6  N   UNL     1      -2.344 -10.986  12.244  0.00  0.00    -0.056 NA
ATOM     14  C   UNL     1      -3.831 -10.001  10.949  0.00  0.00    +0.245 A 
ATOM     18  C   UNL     1      -3.432 -10.568  12.897  0.00  0.00    +0.204 A 
ENDROOT
BRANCH  18  19
ATOM      7  N   UNL     1      -5.089 -11.058  16.190  0.00  0.00    -0.221 NA
ATOM     19  C   UNL     1      -3.601 -10.750  14.310  0.00  0.00    +0.041 A 
ATOM     20  C   UNL     1      -2.503 -10.797  15.162  0.00  0.00    +0.018 A 
ATOM     21  C   UNL     1      -4.861 -10.884  14.869  0.00  0.00    +0.126 A 
ATOM     22  C   UNL     1      -2.696 -10.973  16.528  0.00  0.00    +0.068 A 
ATOM     23  C   UNL     1      -3.997 -11.097  16.987  0.00  0.00    +0.215 A 
BRANCH  23   2
ATOM      2  O   UNL     1      -4.214 -11.272  18.329  0.00  0.00    -0.474 OA
BRANCH   2  24
ATOM     24  C   UNL     1      -5.433 -11.904  18.703  0.00  0.00    +0.258 C 
BRANCH  24  25
ATOM     25  C   UNL     1      -5.995 -11.210  19.929  0.00  0.00    +0.200 C 
BRANCH  25   3
ATOM      3  O   UNL     1      -7.382 -11.506  20.035  0.00  0.00    -0.380 OA
ATOM     26  C   UNL     1      -7.712 -12.704  19.346  0.00  0.00    +0.194 C 
ENDBRANCH  25   3
ENDBRANCH  24  25
ENDBRANCH   2  24
ENDBRANCH  23   2
ENDBRANCH  18  19
BRANCH  14   8
ATOM      4  N   UNL     1      -5.270 -10.377   8.879  0.00  0.00    -0.291 NA
ATOM      8  C   UNL     1      -4.361  -9.485   9.617  0.00  0.00    +0.146 C 
ATOM      9  C   UNL     1      -5.205  -8.208   9.719  0.00  0.00    +0.030 C 
ATOM     10  C   UNL     1      -6.617 -10.161   9.391  0.00  0.00    +0.085 C 
ATOM     12  C   UNL     1      -6.663  -8.662   9.652  0.00  0.00    +0.017 C 
BRANCH   4  11
ATOM     11  C   UNL     1      -4.892 -11.776   8.804  0.00  0.00    +0.091 C 
BRANCH  11  13
ATOM     13  C   UNL     1      -4.983 -12.380   7.378  0.00  0.00    -0.025 C 
ATOM     15  C   UNL     1      -3.823 -13.353   7.108  0.00  0.00    +0.012 C 
ATOM     16  C   UNL     1      -6.309 -13.157   7.266  0.00  0.00    +0.012 C 
ATOM     17  C   UNL     1      -4.973 -11.270   6.311  0.00  0.00    +0.012 C 
ENDBRANCH  11  13
ENDBRANCH   4  11
ENDBRANCH  14   8
TORSDOF 8
ENDMDL
MODEL 7
REMARK VINA RESULT:      -5.3     27.220     30.637
REMARK  Name = 45783558
REMARK  12 active torsions:
REMARK  status: ('A' for Active; 'I' for Inactive)
REMARK    1  A    between atoms: O_2  and  C_23
REMARK    2  A    between atoms: O_2  and  C_24
REMARK    3  A    between atoms: O_3  and  C_25
REMARK    4  A    between atoms: O_3  and  C_26
REMARK    5  A    between atoms: N_4  and  C_11
REMARK    6  A    between atoms: C_8  and  C_14
REMARK    7  A    between atoms: C_11  and  C_13
REMARK    8  A    between atoms: C_13  and  C_15
REMARK    9  A    between atoms: C_13  and  C_16
REMARK   10  A    between atoms: C_13  and  C_17
REMARK   11  A    between atoms: C_18  and  C_19
REMARK   12  A    between atoms: C_24  and  C_25
REMARK                            x       y       z     vdW  Elec       q    Type
REMARK                         _______ _______ _______ _____ _____    ______ ____
ROOT
ATOM      1  O   UNL     1      -9.320 -11.111  20.089  0.00  0.00    -0.336 OA
ATOM      5  N   UNL     1      -8.727 -10.026  18.221  0.00  0.00    -0.190 NA
ATOM      6  N   UNL     1      -7.963 -11.396  19.887  0.00  0.00    -0.056 NA
ATOM     14  C   UNL     1      -9.691 -10.299  19.064  0.00  0.00    +0.245 A 
ATOM     18  C   UNL     1      -7.687 -10.720  18.767  0.00  0.00    +0.204 A 
ENDROOT
BRANCH  18  19
ATOM      7  N   UNL     1      -4.925  -9.964  16.396  0.00  0.00    -0.221 NA
ATOM     19  C   UNL     1      -6.384 -10.720  18.169  0.00  0.00    +0.041 A 
ATOM     20  C   UNL     1      -5.335 -11.438  18.734  0.00  0.00    +0.018 A 
ATOM     21  C   UNL     1      -6.128 -10.006  17.010  0.00  0.00    +0.126 A 
ATOM     22  C   UNL     1      -4.083 -11.421  18.132  0.00  0.00    +0.068 A 
ATOM     23  C   UNL     1      -3.930 -10.675  16.975  0.00  0.00    +0.215 A 
BRANCH  23   2
ATOM      2  O   UNL     1      -2.705 -10.641  16.362  0.00  0.00    -0.474 OA
BRANCH   2  24
ATOM     24  C   UNL     1      -2.550 -11.444  15.197  0.00  0.00    +0.258 C 
BRANCH  24  25
ATOM     25  C   UNL     1      -1.894 -10.616  14.109  0.00  0.00    +0.200 C 
BRANCH  25   3
ATOM      3  O   UNL     1      -2.772 -10.539  12.993  0.00  0.00    -0.380 OA
ATOM     26  C   UNL     1      -2.061 -10.295  11.787  0.00  0.00    +0.194 C 
ENDBRANCH  25   3
ENDBRANCH  24  25
ENDBRANCH   2  24
ENDBRANCH  23   2
ENDBRANCH  18  19
BRANCH  14   8
ATOM      4  N   UNL     1     -11.896 -10.066  17.808  0.00  0.00    -0.291 NA
ATOM      8  C   UNL     1     -11.142  -9.840  19.052  0.00  0.00    +0.146 C 
ATOM      9  C   UNL     1     -12.039 -10.538  20.083  0.00  0.00    +0.030 C 
ATOM     10  C   UNL     1     -12.425 -11.423  17.851  0.00  0.00    +0.085 C 
ATOM     12  C   UNL     1     -12.806 -11.613  19.312  0.00  0.00    +0.017 C 
BRANCH   4  11
ATOM     11  C   UNL     1     -11.218  -9.742  16.567  0.00  0.00    +0.091 C 
BRANCH  11  13
ATOM     13  C   UNL     1     -11.593  -8.354  15.985  0.00  0.00    -0.025 C 
ATOM     15  C   UNL     1     -13.042  -7.974  16.337  0.00  0.00    +0.012 C 
ATOM     16  C   UNL     1     -10.649  -7.302  16.599  0.00  0.00    +0.012 C 
ATOM     17  C   UNL     1     -11.421  -8.336  14.456  0.00  0.00    +0.012 C 
ENDBRANCH  11  13
ENDBRANCH   4  11
ENDBRANCH  14   8
TORSDOF 8
ENDMDL
MODEL 8
REMARK VINA RESULT:      -5.3     17.415     19.576
REMARK  Name = 45783558
REMARK  12 active torsions:
REMARK  status: ('A' for Active; 'I' for Inactive)
REMARK    1  A    between atoms: O_2  and  C_23
REMARK    2  A    between atoms: O_2  and  C_24
REMARK    3  A    between atoms: O_3  and  C_25
REMARK    4  A    between atoms: O_3  and  C_26
REMARK    5  A    between atoms: N_4  and  C_11
REMARK    6  A    between atoms: C_8  and  C_14
REMARK    7  A    between atoms: C_11  and  C_13
REMARK    8  A    between atoms: C_13  and  C_15
REMARK    9  A    between atoms: C_13  and  C_16
REMARK   10  A    between atoms: C_13  and  C_17
REMARK   11  A    between atoms: C_18  and  C_19
REMARK   12  A    between atoms: C_24  and  C_25
REMARK                            x       y       z     vdW  Elec       q    Type
REMARK                         _______ _______ _______ _____ _____    ______ ____
ROOT
ATOM      1  O   UNL     1      10.054   4.707   5.756  0.00  0.00    -0.336 OA
ATOM      5  N   UNL     1      11.249   6.073   4.443  0.00  0.00    -0.190 NA
ATOM      6  N   UNL     1      10.074   4.110   4.489  0.00  0.00    -0.056 NA
ATOM     14  C   UNL     1      10.768   5.857   5.641  0.00  0.00    +0.245 A 
ATOM     18  C   UNL     1      10.798   4.974   3.771  0.00  0.00    +0.204 A 
ENDROOT
BRANCH  18  19
ATOM      7  N   UNL     1      12.533   3.834   0.686  0.00  0.00    -0.221 NA
ATOM     19  C   UNL     1      11.086   4.771   2.381  0.00  0.00    +0.041 A 
ATOM     20  C   UNL     1      10.250   5.282   1.393  0.00  0.00    +0.018 A 
ATOM     21  C   UNL     1      12.205   4.060   1.978  0.00  0.00    +0.126 A 
ATOM     22  C   UNL     1      10.555   5.071   0.054  0.00  0.00    +0.068 A 
ATOM     23  C   UNL     1      11.697   4.346  -0.245  0.00  0.00    +0.215 A 
BRANCH  23   2
ATOM      2  O   UNL     1      12.019   4.124  -1.558  0.00  0.00    -0.474 OA
BRANCH   2  24
ATOM     24  C   UNL     1      12.435   2.807  -1.901  0.00  0.00    +0.258 C 
BRANCH  24  25
ATOM     25  C   UNL     1      11.642   2.334  -3.104  0.00  0.00    +0.200 C 
BRANCH  25   3
ATOM      3  O   UNL     1      10.267   2.253  -2.750  0.00  0.00    -0.380 OA
ATOM     26  C   UNL     1       9.427   2.647  -3.827  0.00  0.00    +0.194 C 
ENDBRANCH  25   3
ENDBRANCH  24  25
ENDBRANCH   2  24
ENDBRANCH  23   2
ENDBRANCH  18  19
BRANCH  14   8
ATOM      4  N   UNL     1       9.848   7.709   7.131  0.00  0.00    -0.291 NA
ATOM      8  C   UNL     1      10.898   6.704   6.900  0.00  0.00    +0.146 C 
ATOM      9  C   UNL     1      10.850   5.907   8.211  0.00  0.00    +0.030 C 
ATOM     10  C   UNL     1       8.739   7.045   7.806  0.00  0.00    +0.085 C 
ATOM     12  C   UNL     1       9.428   6.068   8.748  0.00  0.00    +0.017 C 
BRANCH   4  11
ATOM     11  C   UNL     1       9.443   8.504   5.987  0.00  0.00    +0.091 C 
BRANCH  11  13
ATOM     13  C   UNL     1      10.022   9.942   5.979  0.00  0.00    -0.025 C 
ATOM     15  C   UNL     1      11.310  10.021   5.141  0.00  0.00    +0.012 C 
ATOM     16  C   UNL     1       8.974  10.883   5.354  0.00  0.00    +0.012 C 
ATOM     17  C   UNL     1      10.319  10.421   7.412  0.00  0.00    +0.012 C 
ENDBRANCH  11  13
ENDBRANCH   4  11
ENDBRANCH  14   8
TORSDOF 8
ENDMDL
MODEL 9
REMARK VINA RESULT:      -5.2     19.343     21.513
REMARK  Name = 45783558
REMARK  12 active torsions:
REMARK  status: ('A' for Active; 'I' for Inactive)
REMARK    1  A    between atoms: O_2  and  C_23
REMARK    2  A    between atoms: O_2  and  C_24
REMARK    3  A    between atoms: O_3  and  C_25
REMARK    4  A    between atoms: O_3  and  C_26
REMARK    5  A    between atoms: N_4  and  C_11
REMARK    6  A    between atoms: C_8  and  C_14
REMARK    7  A    between atoms: C_11  and  C_13
REMARK    8  A    between atoms: C_13  and  C_15
REMARK    9  A    between atoms: C_13  and  C_16
REMARK   10  A    between atoms: C_13  and  C_17
REMARK   11  A    between atoms: C_18  and  C_19
REMARK   12  A    between atoms: C_24  and  C_25
REMARK                            x       y       z     vdW  Elec       q    Type
REMARK                         _______ _______ _______ _____ _____    ______ ____
ROOT
ATOM      1  O   UNL     1      10.536   3.783  -0.340  0.00  0.00    -0.336 OA
ATOM      5  N   UNL     1      12.284   4.698   0.722  0.00  0.00    -0.190 NA
ATOM      6  N   UNL     1      10.059   4.199   0.910  0.00  0.00    -0.056 NA
ATOM     14  C   UNL     1      11.854   4.114  -0.368  0.00  0.00    +0.245 A 
ATOM     18  C   UNL     1      11.147   4.728   1.477  0.00  0.00    +0.204 A 
ENDROOT
BRANCH  18  19
ATOM      7  N   UNL     1      10.380   5.168   5.088  0.00  0.00    -0.221 NA
ATOM     19  C   UNL     1      11.133   5.293   2.795  0.00  0.00    +0.041 A 
ATOM     20  C   UNL     1      11.821   6.469   3.078  0.00  0.00    +0.018 A 
ATOM     21  C   UNL     1      10.434   4.687   3.826  0.00  0.00    +0.126 A 
ATOM     22  C   UNL     1      11.788   6.995   4.364  0.00  0.00    +0.068 A 
ATOM     23  C   UNL     1      11.060   6.312   5.325  0.00  0.00    +0.215 A 
BRANCH  23   2
ATOM      2  O   UNL     1      11.013   6.810   6.601  0.00  0.00    -0.474 OA
BRANCH   2  24
ATOM     24  C   UNL     1      11.216   5.880   7.659  0.00  0.00    +0.258 C 
BRANCH  24  25
ATOM     25  C   UNL     1       9.922   5.720   8.434  0.00  0.00    +0.200 C 
BRANCH  25   3
ATOM      3  O   UNL     1      10.177   4.963   9.610  0.00  0.00    -0.380 OA
ATOM     26  C   UNL     1       8.974   4.650  10.299  0.00  0.00    +0.194 C 
ENDBRANCH  25   3
ENDBRANCH  24  25
ENDBRANCH   2  24
ENDBRANCH  23   2
ENDBRANCH  18  19
BRANCH  14   8
ATOM      4  N   UNL     1      12.246   4.506  -2.856  0.00  0.00    -0.291 NA
ATOM      8  C   UNL     1      12.615   3.763  -1.640  0.00  0.00    +0.146 C 
ATOM      9  C   UNL     1      14.125   4.025  -1.570  0.00  0.00    +0.030 C 
ATOM     10  C   UNL     1      13.001   5.753  -2.860  0.00  0.00    +0.085 C 
ATOM     12  C   UNL     1      14.356   5.352  -2.292  0.00  0.00    +0.017 C 
BRANCH   4  11
ATOM     11  C   UNL     1      10.828   4.682  -3.107  0.00  0.00    +0.091 C 
BRANCH  11  13
ATOM     13  C   UNL     1      10.254   3.726  -4.185  0.00  0.00    -0.025 C 
ATOM     15  C   UNL     1       9.820   2.385  -3.568  0.00  0.00    +0.012 C 
ATOM     16  C   UNL     1       9.018   4.396  -4.817  0.00  0.00    +0.012 C 
ATOM     17  C   UNL     1      11.290   3.463  -5.293  0.00  0.00    +0.012 C 
ENDBRANCH  11  13
ENDBRANCH   4  11
ENDBRANCH  14   8
TORSDOF 8
ENDMDL
MODEL 10
REMARK VINA RESULT:      -5.1     27.852     31.802
REMARK  Name = 45783558
REMARK  12 active torsions:
REMARK  status: ('A' for Active; 'I' for Inactive)
REMARK    1  A    between atoms: O_2  and  C_23
REMARK    2  A    between atoms: O_2  and  C_24
REMARK    3  A    between atoms: O_3  and  C_25
REMARK    4  A    between atoms: O_3  and  C_26
REMARK    5  A    between atoms: N_4  and  C_11
REMARK    6  A    between atoms: C_8  and  C_14
REMARK    7  A    between atoms: C_11  and  C_13
REMARK    8  A    between atoms: C_13  and  C_15
REMARK    9  A    between atoms: C_13  and  C_16
REMARK   10  A    between atoms: C_13  and  C_17
REMARK   11  A    between atoms: C_18  and  C_19
REMARK   12  A    between atoms: C_24  and  C_25
REMARK                            x       y       z     vdW  Elec       q    Type
REMARK                         _______ _______ _______ _____ _____    ______ ____
ROOT
ATOM      1  O   UNL     1      -7.647  -9.607  17.865  0.00  0.00    -0.336 OA
ATOM      5  N   UNL     1      -8.469 -10.282  15.894  0.00  0.00    -0.190 NA
ATOM      6  N   UNL     1      -8.592  -8.644  17.486  0.00  0.00    -0.056 NA
ATOM     14  C   UNL     1      -7.637 -10.535  16.872  0.00  0.00    +0.245 A 
ATOM     18  C   UNL     1      -9.032  -9.113  16.315  0.00  0.00    +0.204 A 
ENDROOT
BRANCH  18  19
ATOM      7  N   UNL     1     -11.368  -6.456  15.170  0.00  0.00    -0.221 NA
ATOM     19  C   UNL     1     -10.032  -8.436  15.541  0.00  0.00    +0.041 A 
ATOM     20  C   UNL     1     -10.632  -9.054  14.449  0.00  0.00    +0.018 A 
ATOM     21  C   UNL     1     -10.432  -7.148  15.857  0.00  0.00    +0.126 A 
ATOM     22  C   UNL     1     -11.600  -8.375  13.718  0.00  0.00    +0.068 A 
ATOM     23  C   UNL     1     -11.929  -7.089  14.115  0.00  0.00    +0.215 A 
BRANCH  23   2
ATOM      2  O   UNL     1     -12.880  -6.399  13.410  0.00  0.00    -0.474 OA
BRANCH   2  24
ATOM     24  C   UNL     1     -13.279  -5.139  13.938  0.00  0.00    +0.258 C 
BRANCH  24  25
ATOM     25  C   UNL     1     -13.888  -4.306  12.826  0.00  0.00    +0.200 C 
BRANCH  25   3
ATOM      3  O   UNL     1     -13.046  -3.188  12.571  0.00  0.00    -0.380 OA
ATOM     26  C   UNL     1     -12.174  -3.433  11.476  0.00  0.00    +0.194 C 
ENDBRANCH  25   3
ENDBRANCH  24  25
ENDBRANCH   2  24
ENDBRANCH  23   2
ENDBRANCH  18  19
BRANCH  14   8
ATOM      4  N   UNL     1      -5.242 -11.405  16.931  0.00  0.00    -0.291 NA
ATOM      8  C   UNL     1      -6.679 -11.705  17.046  0.00  0.00    +0.146 C 
ATOM      9  C   UNL     1      -6.739 -12.378  18.424  0.00  0.00    +0.030 C 
ATOM     10  C   UNL     1      -4.778 -10.953  18.237  0.00  0.00    +0.085 C 
ATOM     12  C   UNL     1      -5.553 -11.826  19.214  0.00  0.00    +0.017 C 
BRANCH   4  11
ATOM     11  C   UNL     1      -4.843 -10.538  15.838  0.00  0.00    +0.091 C 
BRANCH  11  13
ATOM     13  C   UNL     1      -3.709 -11.119  14.953  0.00  0.00    -0.025 C 
ATOM     15  C   UNL     1      -3.828 -10.631  13.500  0.00  0.00    +0.012 C 
ATOM     16  C   UNL     1      -2.359 -10.639  15.522  0.00  0.00    +0.012 C 
ATOM     17  C   UNL     1      -3.731 -12.659  14.975  0.00  0.00    +0.012 C 
ENDBRANCH  11  13
ENDBRANCH   4  11
ENDBRANCH  14   8
TORSDOF 8
ENDMDL
