MODEL 1
REMARK VINA RESULT:      -7.8      0.000      0.000
REMARK  Name = 25390146
REMARK  10 active torsions:
REMARK  status: ('A' for Active; 'I' for Inactive)
REMARK    1  A    between atoms: O_5  and  C_14
REMARK    2  A    between atoms: O_6  and  C_15
REMARK    3  A    between atoms: O_10  and  C_32
REMARK    4  A    between atoms: O_10  and  C_33
REMARK    5  A    between atoms: N_11  and  C_19
REMARK    6  A    between atoms: C_16  and  C_18
REMARK    7  A    between atoms: C_17  and  C_19
REMARK    8  A    between atoms: C_18  and  C_20
REMARK    9  A    between atoms: C_21  and  C_23
REMARK   10  A    between atoms: C_22  and  C_24
REMARK                            x       y       z     vdW  Elec       q    Type
REMARK                         _______ _______ _______ _____ _____    ______ ____
ROOT
ATOM      4  O   UNL     1     -18.244   3.835  24.811  0.00  0.00    -0.366 OA
ATOM     14  C   UNL     1     -16.468   2.762  23.648  0.00  0.00    +0.175 C 
ATOM     15  C   UNL     1     -16.627   2.131  25.016  0.00  0.00    +0.176 C 
ATOM     16  C   UNL     1     -17.223   4.075  23.814  0.00  0.00    +0.159 C 
ATOM     17  C   UNL     1     -18.052   2.522  25.368  0.00  0.00    +0.167 C 
ENDROOT
BRANCH  14   5
ATOM      5  O   UNL     1     -17.144   1.984  22.662  0.00  0.00    -0.387 OA
ATOM     34  H   UNL     1     -16.493   1.372  22.276  0.00  0.00    +0.210 HD
ENDBRANCH  14   5
BRANCH  15   6
ATOM      6  O   UNL     1     -16.447   0.731  25.010  0.00  0.00    -0.387 OA
ATOM     35  H   UNL     1     -16.344   0.454  24.084  0.00  0.00    +0.210 HD
ENDBRANCH  15   6
BRANCH  16  18
ATOM     18  C   UNL     1     -16.343   5.212  24.315  0.00  0.00    +0.133 C 
BRANCH  18  20
ATOM      7  O   UNL     1     -14.100   4.696  23.509  0.00  0.00    -0.338 OA
ATOM     12  N   UNL     1     -15.090   6.398  22.441  0.00  0.00    -0.191 NA
ATOM     13  N   UNL     1     -13.182   5.138  22.548  0.00  0.00    -0.056 NA
ATOM     20  C   UNL     1     -15.194   5.490  23.379  0.00  0.00    +0.230 A 
ATOM     22  C   UNL     1     -13.838   6.143  21.960  0.00  0.00    +0.202 A 
BRANCH  22  24
ATOM     24  C   UNL     1     -13.272   6.911  20.889  0.00  0.00    +0.023 A 
ATOM     26  C   UNL     1     -14.083   7.360  19.846  0.00  0.00    +0.015 A 
ATOM     27  C   UNL     1     -11.909   7.209  20.890  0.00  0.00    +0.015 A 
ATOM     30  C   UNL     1     -13.532   8.105  18.805  0.00  0.00    +0.046 A 
ATOM     31  C   UNL     1     -11.358   7.956  19.849  0.00  0.00    +0.046 A 
ATOM     32  C   UNL     1     -12.169   8.403  18.806  0.00  0.00    +0.130 A 
BRANCH  32  10
ATOM     10  O   UNL     1     -11.630   9.131  17.790  0.00  0.00    -0.406 OA
BRANCH  10  33
ATOM      1  F   UNL     1     -10.380   9.081  15.911  0.00  0.00    -0.133 F 
ATOM      2  F   UNL     1      -9.343   9.181  17.833  0.00  0.00    -0.133 F 
ATOM      3  F   UNL     1     -10.359   7.320  17.206  0.00  0.00    -0.133 F 
ATOM     33  C   UNL     1     -10.420   8.669  17.199  0.00  0.00    +0.575 C 
ENDBRANCH  10  33
ENDBRANCH  32  10
ENDBRANCH  22  24
ENDBRANCH  18  20
ENDBRANCH  16  18
BRANCH  17  19
ATOM     19  C   UNL     1     -18.315   2.558  26.863  0.00  0.00    +0.138 C 
BRANCH  19  11
ATOM      8  O   UNL     1     -17.718   0.257  28.472  0.00  0.00    -0.267 OA
ATOM     11  N   UNL     1     -17.113   2.322  27.606  0.00  0.00    -0.306 N 
ATOM     21  C   UNL     1     -16.907   1.172  28.363  0.00  0.00    +0.279 C 
ATOM     36  H   UNL     1     -16.382   3.028  27.576  0.00  0.00    +0.149 HD
BRANCH  21  23
ATOM      9  O   UNL     1     -15.018  -0.125  29.194  0.00  0.00    -0.458 OA
ATOM     23  C   UNL     1     -15.617   1.090  29.096  0.00  0.00    +0.189 A 
ATOM     25  C   UNL     1     -14.866   2.052  29.731  0.00  0.00    +0.054 A 
ATOM     28  C   UNL     1     -13.730   1.385  30.251  0.00  0.00    +0.042 A 
ATOM     29  C   UNL     1     -13.870   0.062  29.897  0.00  0.00    +0.196 A 
ENDBRANCH  21  23
ENDBRANCH  19  11
ENDBRANCH  17  19
TORSDOF 10
ENDMDL
MODEL 2
REMARK VINA RESULT:      -7.6      5.932     10.790
REMARK  Name = 25390146
REMARK  10 active torsions:
REMARK  status: ('A' for Active; 'I' for Inactive)
REMARK    1  A    between atoms: O_5  and  C_14
REMARK    2  A    between atoms: O_6  and  C_15
REMARK    3  A    between atoms: O_10  and  C_32
REMARK    4  A    between atoms: O_10  and  C_33
REMARK    5  A    between atoms: N_11  and  C_19
REMARK    6  A    between atoms: C_16  and  C_18
REMARK    7  A    between atoms: C_17  and  C_19
REMARK    8  A    between atoms: C_18  and  C_20
REMARK    9  A    between atoms: C_21  and  C_23
REMARK   10  A    between atoms: C_22  and  C_24
REMARK                            x       y       z     vdW  Elec       q    Type
REMARK                         _______ _______ _______ _____ _____    ______ ____
ROOT
ATOM      4  O   UNL     1     -15.845   2.567  24.723  0.00  0.00    -0.366 OA
ATOM     14  C   UNL     1     -17.736   2.107  23.356  0.00  0.00    +0.175 C 
ATOM     15  C   UNL     1     -17.290   3.537  23.133  0.00  0.00    +0.176 C 
ATOM     16  C   UNL     1     -17.044   1.760  24.669  0.00  0.00    +0.159 C 
ATOM     17  C   UNL     1     -15.851   3.486  23.616  0.00  0.00    +0.167 C 
ENDROOT
BRANCH  14   5
ATOM      5  O   UNL     1     -17.207   1.259  22.339  0.00  0.00    -0.387 OA
ATOM     34  H   UNL     1     -16.510   1.756  21.877  0.00  0.00    +0.210 HD
ENDBRANCH  14   5
BRANCH  15   6
ATOM      6  O   UNL     1     -17.382   3.948  21.785  0.00  0.00    -0.387 OA
ATOM     35  H   UNL     1     -18.324   4.083  21.585  0.00  0.00    +0.210 HD
ENDBRANCH  15   6
BRANCH  16  18
ATOM     18  C   UNL     1     -17.885   2.094  25.894  0.00  0.00    +0.133 C 
BRANCH  18  20
ATOM      7  O   UNL     1     -16.801   0.578  27.466  0.00  0.00    -0.338 OA
ATOM     12  N   UNL     1     -16.730   2.733  28.072  0.00  0.00    -0.191 NA
ATOM     13  N   UNL     1     -16.113   0.617  28.686  0.00  0.00    -0.056 NA
ATOM     20  C   UNL     1     -17.128   1.864  27.177  0.00  0.00    +0.230 A 
ATOM     22  C   UNL     1     -16.113   1.921  28.978  0.00  0.00    +0.202 A 
BRANCH  22  24
ATOM     24  C   UNL     1     -15.504   2.444  30.167  0.00  0.00    +0.023 A 
ATOM     26  C   UNL     1     -15.305   3.818  30.304  0.00  0.00    +0.015 A 
ATOM     27  C   UNL     1     -15.110   1.577  31.187  0.00  0.00    +0.015 A 
ATOM     30  C   UNL     1     -14.712   4.325  31.459  0.00  0.00    +0.046 A 
ATOM     31  C   UNL     1     -14.517   2.085  32.343  0.00  0.00    +0.046 A 
ATOM     32  C   UNL     1     -14.318   3.458  32.479  0.00  0.00    +0.130 A 
BRANCH  32  10
ATOM     10  O   UNL     1     -13.739   3.953  33.607  0.00  0.00    -0.406 OA
BRANCH  10  33
ATOM      1  F   UNL     1     -14.395   5.987  34.334  0.00  0.00    -0.133 F 
ATOM      2  F   UNL     1     -15.865   4.369  34.342  0.00  0.00    -0.133 F 
ATOM      3  F   UNL     1     -14.208   4.381  35.805  0.00  0.00    -0.133 F 
ATOM     33  C   UNL     1     -14.560   4.659  34.532  0.00  0.00    +0.575 C 
ENDBRANCH  10  33
ENDBRANCH  32  10
ENDBRANCH  22  24
ENDBRANCH  18  20
ENDBRANCH  16  18
BRANCH  17  19
ATOM     19  C   UNL     1     -15.320   4.835  24.069  0.00  0.00    +0.138 C 
BRANCH  19  11
ATOM      8  O   UNL     1     -15.807   6.574  21.838  0.00  0.00    -0.267 OA
ATOM     11  N   UNL     1     -14.344   5.342  23.151  0.00  0.00    -0.306 N 
ATOM     21  C   UNL     1     -14.670   6.185  22.092  0.00  0.00    +0.279 C 
ATOM     36  H   UNL     1     -13.373   5.072  23.283  0.00  0.00    +0.149 HD
BRANCH  21  23
ATOM      9  O   UNL     1     -13.815   7.480  20.213  0.00  0.00    -0.458 OA
ATOM     23  C   UNL     1     -13.547   6.603  21.214  0.00  0.00    +0.189 A 
ATOM     25  C   UNL     1     -12.214   6.261  21.214  0.00  0.00    +0.054 A 
ATOM     28  C   UNL     1     -11.625   6.976  20.142  0.00  0.00    +0.042 A 
ATOM     29  C   UNL     1     -12.641   7.703  19.566  0.00  0.00    +0.196 A 
ENDBRANCH  21  23
ENDBRANCH  19  11
ENDBRANCH  17  19
TORSDOF 10
ENDMDL
MODEL 3
REMARK VINA RESULT:      -7.4      6.974     10.901
REMARK  Name = 25390146
REMARK  10 active torsions:
REMARK  status: ('A' for Active; 'I' for Inactive)
REMARK    1  A    between atoms: O_5  and  C_14
REMARK    2  A    between atoms: O_6  and  C_15
REMARK    3  A    between atoms: O_10  and  C_32
REMARK    4  A    between atoms: O_10  and  C_33
REMARK    5  A    between atoms: N_11  and  C_19
REMARK    6  A    between atoms: C_16  and  C_18
REMARK    7  A    between atoms: C_17  and  C_19
REMARK    8  A    between atoms: C_18  and  C_20
REMARK    9  A    between atoms: C_21  and  C_23
REMARK   10  A    between atoms: C_22  and  C_24
REMARK                            x       y       z     vdW  Elec       q    Type
REMARK                         _______ _______ _______ _____ _____    ______ ____
ROOT
ATOM      4  O   UNL     1     -13.938   2.265  30.998  0.00  0.00    -0.366 OA
ATOM     14  C   UNL     1     -15.043   0.163  31.133  0.00  0.00    +0.175 C 
ATOM     15  C   UNL     1     -15.748   1.039  30.118  0.00  0.00    +0.176 C 
ATOM     16  C   UNL     1     -14.221   1.182  31.914  0.00  0.00    +0.159 C 
ATOM     17  C   UNL     1     -14.662   2.044  29.775  0.00  0.00    +0.167 C 
ENDROOT
BRANCH  14   5
ATOM      5  O   UNL     1     -14.139  -0.725  30.477  0.00  0.00    -0.387 OA
ATOM     34  H   UNL     1     -14.585  -1.059  29.680  0.00  0.00    +0.210 HD
ENDBRANCH  14   5
BRANCH  15   6
ATOM      6  O   UNL     1     -16.192   0.330  28.981  0.00  0.00    -0.387 OA
ATOM     35  H   UNL     1     -15.568   0.515  28.259  0.00  0.00    +0.210 HD
ENDBRANCH  15   6
BRANCH  16  18
ATOM     18  C   UNL     1     -14.969   1.764  33.106  0.00  0.00    +0.133 C 
BRANCH  18  20
ATOM      7  O   UNL     1     -16.020   3.920  32.671  0.00  0.00    -0.338 OA
ATOM     12  N   UNL     1     -13.949   4.063  33.512  0.00  0.00    -0.191 NA
ATOM     13  N   UNL     1     -15.738   5.288  32.780  0.00  0.00    -0.056 NA
ATOM     20  C   UNL     1     -14.917   3.271  33.122  0.00  0.00    +0.230 A 
ATOM     22  C   UNL     1     -14.500   5.290  33.283  0.00  0.00    +0.202 A 
BRANCH  22  24
ATOM     24  C   UNL     1     -13.786   6.501  33.569  0.00  0.00    +0.023 A 
ATOM     26  C   UNL     1     -13.389   7.341  32.529  0.00  0.00    +0.015 A 
ATOM     27  C   UNL     1     -13.488   6.839  34.889  0.00  0.00    +0.015 A 
ATOM     30  C   UNL     1     -12.694   8.517  32.807  0.00  0.00    +0.046 A 
ATOM     31  C   UNL     1     -12.793   8.016  35.169  0.00  0.00    +0.046 A 
ATOM     32  C   UNL     1     -12.396   8.854  34.128  0.00  0.00    +0.130 A 
BRANCH  32  10
ATOM     10  O   UNL     1     -11.717  10.002  34.400  0.00  0.00    -0.406 OA
BRANCH  10  33
ATOM      1  F   UNL     1      -9.821  11.219  34.540  0.00  0.00    -0.133 F 
ATOM      2  F   UNL     1      -9.833   9.228  35.441  0.00  0.00    -0.133 F 
ATOM      3  F   UNL     1      -9.820   9.459  33.243  0.00  0.00    -0.133 F 
ATOM     33  C   UNL     1     -10.294   9.959  34.404  0.00  0.00    +0.575 C 
ENDBRANCH  10  33
ENDBRANCH  32  10
ENDBRANCH  22  24
ENDBRANCH  18  20
ENDBRANCH  16  18
BRANCH  17  19
ATOM     19  C   UNL     1     -15.205   3.364  29.258  0.00  0.00    +0.138 C 
BRANCH  19  11
ATOM      8  O   UNL     1     -17.619   2.888  27.779  0.00  0.00    -0.267 OA
ATOM     11  N   UNL     1     -15.345   3.344  27.832  0.00  0.00    -0.306 N 
ATOM     21  C   UNL     1     -16.560   3.104  27.196  0.00  0.00    +0.279 C 
ATOM     36  H   UNL     1     -14.518   3.513  27.266  0.00  0.00    +0.149 HD
BRANCH  21  23
ATOM      9  O   UNL     1     -15.596   3.850  25.085  0.00  0.00    -0.458 OA
ATOM     23  C   UNL     1     -16.532   3.090  25.710  0.00  0.00    +0.189 A 
ATOM     25  C   UNL     1     -17.309   2.425  24.790  0.00  0.00    +0.054 A 
ATOM     28  C   UNL     1     -16.816   2.799  23.516  0.00  0.00    +0.042 A 
ATOM     29  C   UNL     1     -15.774   3.666  23.750  0.00  0.00    +0.196 A 
ENDBRANCH  21  23
ENDBRANCH  19  11
ENDBRANCH  17  19
TORSDOF 10
ENDMDL
MODEL 4
REMARK VINA RESULT:      -7.3     17.275     19.256
REMARK  Name = 25390146
REMARK  10 active torsions:
REMARK  status: ('A' for Active; 'I' for Inactive)
REMARK    1  A    between atoms: O_5  and  C_14
REMARK    2  A    between atoms: O_6  and  C_15
REMARK    3  A    between atoms: O_10  and  C_32
REMARK    4  A    between atoms: O_10  and  C_33
REMARK    5  A    between atoms: N_11  and  C_19
REMARK    6  A    between atoms: C_16  and  C_18
REMARK    7  A    between atoms: C_17  and  C_19
REMARK    8  A    between atoms: C_18  and  C_20
REMARK    9  A    between atoms: C_21  and  C_23
REMARK   10  A    between atoms: C_22  and  C_24
REMARK                            x       y       z     vdW  Elec       q    Type
REMARK                         _______ _______ _______ _____ _____    ______ ____
ROOT
ATOM      4  O   UNL     1      -5.908 -10.545  18.552  0.00  0.00    -0.366 OA
ATOM     14  C   UNL     1      -4.710 -12.599  18.582  0.00  0.00    +0.175 C 
ATOM     15  C   UNL     1      -4.673 -12.016  17.185  0.00  0.00    +0.176 C 
ATOM     16  C   UNL     1      -5.861 -11.828  19.218  0.00  0.00    +0.159 C 
ATOM     17  C   UNL     1      -4.973 -10.552  17.458  0.00  0.00    +0.167 C 
ENDROOT
BRANCH  14   5
ATOM      5  O   UNL     1      -3.514 -12.271  19.289  0.00  0.00    -0.387 OA
ATOM     34  H   UNL     1      -3.505 -11.307  19.414  0.00  0.00    +0.210 HD
ENDBRANCH  14   5
BRANCH  15   6
ATOM      6  O   UNL     1      -3.429 -12.190  16.540  0.00  0.00    -0.387 OA
ATOM     35  H   UNL     1      -3.583 -12.111  15.583  0.00  0.00    +0.210 HD
ENDBRANCH  15   6
BRANCH  16  18
ATOM     18  C   UNL     1      -7.212 -12.503  19.023  0.00  0.00    +0.133 C 
BRANCH  18  20
ATOM      7  O   UNL     1      -9.044 -11.314  20.108  0.00  0.00    -0.338 OA
ATOM     12  N   UNL     1      -8.747 -10.773  17.955  0.00  0.00    -0.191 NA
ATOM     13  N   UNL     1     -10.020 -10.355  19.809  0.00  0.00    -0.056 NA
ATOM     20  C   UNL     1      -8.338 -11.502  18.963  0.00  0.00    +0.230 A 
ATOM     22  C   UNL     1      -9.780 -10.086  18.522  0.00  0.00    +0.202 A 
BRANCH  22  24
ATOM     24  C   UNL     1     -10.554  -9.137  17.776  0.00  0.00    +0.023 A 
ATOM     26  C   UNL     1     -11.890  -9.405  17.476  0.00  0.00    +0.015 A 
ATOM     27  C   UNL     1      -9.970  -7.944  17.349  0.00  0.00    +0.015 A 
ATOM     30  C   UNL     1     -12.641  -8.483  16.749  0.00  0.00    +0.046 A 
ATOM     31  C   UNL     1     -10.722  -7.020  16.623  0.00  0.00    +0.046 A 
ATOM     32  C   UNL     1     -12.057  -7.290  16.322  0.00  0.00    +0.130 A 
BRANCH  32  10
ATOM     10  O   UNL     1     -12.789  -6.388  15.613  0.00  0.00    -0.406 OA
BRANCH  10  33
ATOM      1  F   UNL     1     -13.640  -5.900  13.580  0.00  0.00    -0.133 F 
ATOM      2  F   UNL     1     -11.611  -5.224  14.035  0.00  0.00    -0.133 F 
ATOM      3  F   UNL     1     -12.025  -7.369  13.693  0.00  0.00    -0.133 F 
ATOM     33  C   UNL     1     -12.498  -6.224  14.229  0.00  0.00    +0.575 C 
ENDBRANCH  10  33
ENDBRANCH  32  10
ENDBRANCH  22  24
ENDBRANCH  18  20
ENDBRANCH  16  18
BRANCH  17  19
ATOM     19  C   UNL     1      -5.576  -9.829  16.267  0.00  0.00    +0.138 C 
BRANCH  19  11
ATOM      8  O   UNL     1      -6.332 -10.634  13.617  0.00  0.00    -0.267 OA
ATOM     11  N   UNL     1      -4.720  -9.914  15.121  0.00  0.00    -0.306 N 
ATOM     21  C   UNL     1      -5.173 -10.317  13.868  0.00  0.00    +0.279 C 
ATOM     36  H   UNL     1      -3.740  -9.670  15.235  0.00  0.00    +0.149 HD
BRANCH  21  23
ATOM      9  O   UNL     1      -2.851 -10.509  13.152  0.00  0.00    -0.458 OA
ATOM     23  C   UNL     1      -4.153 -10.378  12.789  0.00  0.00    +0.189 A 
ATOM     25  C   UNL     1      -4.271 -10.327  11.419  0.00  0.00    +0.054 A 
ATOM     28  C   UNL     1      -2.955 -10.434  10.907  0.00  0.00    +0.042 A 
ATOM     29  C   UNL     1      -2.128 -10.544  12.001  0.00  0.00    +0.196 A 
ENDBRANCH  21  23
ENDBRANCH  19  11
ENDBRANCH  17  19
TORSDOF 10
ENDMDL
MODEL 5
REMARK VINA RESULT:      -7.2     19.838     21.211
REMARK  Name = 25390146
REMARK  10 active torsions:
REMARK  status: ('A' for Active; 'I' for Inactive)
REMARK    1  A    between atoms: O_5  and  C_14
REMARK    2  A    between atoms: O_6  and  C_15
REMARK    3  A    between atoms: O_10  and  C_32
REMARK    4  A    between atoms: O_10  and  C_33
REMARK    5  A    between atoms: N_11  and  C_19
REMARK    6  A    between atoms: C_16  and  C_18
REMARK    7  A    between atoms: C_17  and  C_19
REMARK    8  A    between atoms: C_18  and  C_20
REMARK    9  A    between atoms: C_21  and  C_23
REMARK   10  A    between atoms: C_22  and  C_24
REMARK                            x       y       z     vdW  Elec       q    Type
REMARK                         _______ _______ _______ _____ _____    ______ ____
ROOT
ATOM      4  O   UNL     1      -5.435 -11.383  16.156  0.00  0.00    -0.366 OA
ATOM     14  C   UNL     1      -4.219 -11.748  18.167  0.00  0.00    +0.175 C 
ATOM     15  C   UNL     1      -5.273 -10.686  18.402  0.00  0.00    +0.176 C 
ATOM     16  C   UNL     1      -4.132 -11.778  16.645  0.00  0.00    +0.159 C 
ATOM     17  C   UNL     1      -6.245 -10.966  17.269  0.00  0.00    +0.167 C 
ENDROOT
BRANCH  14   5
ATOM      5  O   UNL     1      -4.690 -13.020  18.609  0.00  0.00    -0.387 OA
ATOM     34  H   UNL     1      -5.090 -13.465  17.842  0.00  0.00    +0.210 HD
ENDBRANCH  14   5
BRANCH  15   6
ATOM      6  O   UNL     1      -5.891 -10.783  19.667  0.00  0.00    -0.387 OA
ATOM     35  H   UNL     1      -6.837 -10.594  19.545  0.00  0.00    +0.210 HD
ENDBRANCH  15   6
BRANCH  16  18
ATOM     18  C   UNL     1      -3.109 -10.799  16.085  0.00  0.00    +0.133 C 
BRANCH  18  20
ATOM      7  O   UNL     1      -1.861 -11.603  14.151  0.00  0.00    -0.338 OA
ATOM     12  N   UNL     1      -3.740 -10.496  13.636  0.00  0.00    -0.191 NA
ATOM     13  N   UNL     1      -1.940 -11.598  12.752  0.00  0.00    -0.056 NA
ATOM     20  C   UNL     1      -2.958 -10.935  14.592  0.00  0.00    +0.230 A 
ATOM     22  C   UNL     1      -3.073 -10.928  12.526  0.00  0.00    +0.202 A 
BRANCH  22  24
ATOM     24  C   UNL     1      -3.567 -10.673  11.205  0.00  0.00    +0.023 A 
ATOM     26  C   UNL     1      -4.223 -11.680  10.496  0.00  0.00    +0.015 A 
ATOM     27  C   UNL     1      -3.392  -9.415  10.625  0.00  0.00    +0.015 A 
ATOM     30  C   UNL     1      -4.702 -11.432   9.211  0.00  0.00    +0.046 A 
ATOM     31  C   UNL     1      -3.872  -9.166   9.340  0.00  0.00    +0.046 A 
ATOM     32  C   UNL     1      -4.526 -10.175   8.632  0.00  0.00    +0.130 A 
BRANCH  32  10
ATOM     10  O   UNL     1      -4.993  -9.932   7.377  0.00  0.00    -0.406 OA
BRANCH  10  33
ATOM      1  F   UNL     1      -6.519  -8.995   6.001  0.00  0.00    -0.133 F 
ATOM      2  F   UNL     1      -7.181 -10.599   7.331  0.00  0.00    -0.133 F 
ATOM      3  F   UNL     1      -6.690  -8.603   8.145  0.00  0.00    -0.133 F 
ATOM     33  C   UNL     1      -6.354  -9.537   7.230  0.00  0.00    +0.575 C 
ENDBRANCH  10  33
ENDBRANCH  32  10
ENDBRANCH  22  24
ENDBRANCH  18  20
ENDBRANCH  16  18
BRANCH  17  19
ATOM     19  C   UNL     1      -7.073  -9.755  16.873  0.00  0.00    +0.138 C 
BRANCH  19  11
ATOM      8  O   UNL     1      -9.176 -10.471  15.055  0.00  0.00    -0.267 OA
ATOM     11  N   UNL     1      -7.075  -9.572  15.452  0.00  0.00    -0.306 N 
ATOM     21  C   UNL     1      -8.143  -9.950  14.643  0.00  0.00    +0.279 C 
ATOM     36  H   UNL     1      -6.259  -9.147  15.021  0.00  0.00    +0.149 HD
BRANCH  21  23
ATOM      9  O   UNL     1      -9.057  -9.916  12.384  0.00  0.00    -0.458 OA
ATOM     23  C   UNL     1      -7.979  -9.716  13.185  0.00  0.00    +0.189 A 
ATOM     25  C   UNL     1      -6.893  -9.313  12.443  0.00  0.00    +0.054 A 
ATOM     28  C   UNL     1      -7.333  -9.261  11.098  0.00  0.00    +0.042 A 
ATOM     29  C   UNL     1      -8.657  -9.636  11.116  0.00  0.00    +0.196 A 
ENDBRANCH  21  23
ENDBRANCH  19  11
ENDBRANCH  17  19
TORSDOF 10
ENDMDL
MODEL 6
REMARK VINA RESULT:      -7.2      1.774      2.276
REMARK  Name = 25390146
REMARK  10 active torsions:
REMARK  status: ('A' for Active; 'I' for Inactive)
REMARK    1  A    between atoms: O_5  and  C_14
REMARK    2  A    between atoms: O_6  and  C_15
REMARK    3  A    between atoms: O_10  and  C_32
REMARK    4  A    between atoms: O_10  and  C_33
REMARK    5  A    between atoms: N_11  and  C_19
REMARK    6  A    between atoms: C_16  and  C_18
REMARK    7  A    between atoms: C_17  and  C_19
REMARK    8  A    between atoms: C_18  and  C_20
REMARK    9  A    between atoms: C_21  and  C_23
REMARK   10  A    between atoms: C_22  and  C_24
REMARK                            x       y       z     vdW  Elec       q    Type
REMARK                         _______ _______ _______ _____ _____    ______ ____
ROOT
ATOM      4  O   UNL     1     -17.987   3.185  25.615  0.00  0.00    -0.366 OA
ATOM     14  C   UNL     1     -16.761   1.152  25.483  0.00  0.00    +0.175 C 
ATOM     15  C   UNL     1     -17.193   1.387  26.916  0.00  0.00    +0.176 C 
ATOM     16  C   UNL     1     -16.932   2.536  24.869  0.00  0.00    +0.159 C 
ATOM     17  C   UNL     1     -18.350   2.353  26.731  0.00  0.00    +0.167 C 
ENDROOT
BRANCH  14   5
ATOM      5  O   UNL     1     -17.668   0.263  24.832  0.00  0.00    -0.387 OA
ATOM     34  H   UNL     1     -18.475   0.221  25.375  0.00  0.00    +0.210 HD
ENDBRANCH  14   5
BRANCH  15   6
ATOM      6  O   UNL     1     -17.588   0.207  27.582  0.00  0.00    -0.387 OA
ATOM     35  H   UNL     1     -17.940   0.466  28.451  0.00  0.00    +0.210 HD
ENDBRANCH  15   6
BRANCH  16  18
ATOM     18  C   UNL     1     -15.682   3.399  24.984  0.00  0.00    +0.133 C 
BRANCH  18  20
ATOM      7  O   UNL     1     -16.248   3.932  22.673  0.00  0.00    -0.338 OA
ATOM     12  N   UNL     1     -14.381   4.923  23.412  0.00  0.00    -0.191 NA
ATOM     13  N   UNL     1     -15.762   4.694  21.603  0.00  0.00    -0.056 NA
ATOM     20  C   UNL     1     -15.377   4.123  23.697  0.00  0.00    +0.230 A 
ATOM     22  C   UNL     1     -14.660   5.248  22.117  0.00  0.00    +0.202 A 
BRANCH  22  24
ATOM     24  C   UNL     1     -13.817   6.130  21.363  0.00  0.00    +0.023 A 
ATOM     26  C   UNL     1     -14.377   7.010  20.436  0.00  0.00    +0.015 A 
ATOM     27  C   UNL     1     -12.436   6.107  21.555  0.00  0.00    +0.015 A 
ATOM     30  C   UNL     1     -13.557   7.866  19.703  0.00  0.00    +0.046 A 
ATOM     31  C   UNL     1     -11.615   6.964  20.822  0.00  0.00    +0.046 A 
ATOM     32  C   UNL     1     -12.176   7.843  19.895  0.00  0.00    +0.130 A 
BRANCH  32  10
ATOM     10  O   UNL     1     -11.375   8.679  19.179  0.00  0.00    -0.406 OA
BRANCH  10  33
ATOM      1  F   UNL     1      -9.750   8.850  17.621  0.00  0.00    -0.133 F 
ATOM      2  F   UNL     1     -10.741   6.916  17.867  0.00  0.00    -0.133 F 
ATOM      3  F   UNL     1     -11.812   8.611  16.935  0.00  0.00    -0.133 F 
ATOM     33  C   UNL     1     -10.933   8.252  17.895  0.00  0.00    +0.575 C 
ENDBRANCH  10  33
ENDBRANCH  32  10
ENDBRANCH  22  24
ENDBRANCH  18  20
ENDBRANCH  16  18
BRANCH  17  19
ATOM     19  C   UNL     1     -18.613   3.219  27.950  0.00  0.00    +0.138 C 
BRANCH  19  11
ATOM      8  O   UNL     1     -16.469   4.987  28.672  0.00  0.00    -0.267 OA
ATOM     11  N   UNL     1     -17.626   2.997  28.965  0.00  0.00    -0.306 N 
ATOM     21  C   UNL     1     -16.617   3.913  29.249  0.00  0.00    +0.279 C 
ATOM     36  H   UNL     1     -17.670   2.133  29.496  0.00  0.00    +0.149 HD
BRANCH  21  23
ATOM      9  O   UNL     1     -16.089   3.549  31.601  0.00  0.00    -0.458 OA
ATOM     23  C   UNL     1     -15.656   3.523  30.314  0.00  0.00    +0.189 A 
ATOM     25  C   UNL     1     -14.344   3.116  30.253  0.00  0.00    +0.054 A 
ATOM     28  C   UNL     1     -13.943   2.877  31.590  0.00  0.00    +0.042 A 
ATOM     29  C   UNL     1     -15.041   3.154  32.371  0.00  0.00    +0.196 A 
ENDBRANCH  21  23
ENDBRANCH  19  11
ENDBRANCH  17  19
TORSDOF 10
ENDMDL
MODEL 7
REMARK VINA RESULT:      -7.2      1.542      2.078
REMARK  Name = 25390146
REMARK  10 active torsions:
REMARK  status: ('A' for Active; 'I' for Inactive)
REMARK    1  A    between atoms: O_5  and  C_14
REMARK    2  A    between atoms: O_6  and  C_15
REMARK    3  A    between atoms: O_10  and  C_32
REMARK    4  A    between atoms: O_10  and  C_33
REMARK    5  A    between atoms: N_11  and  C_19
REMARK    6  A    between atoms: C_16  and  C_18
REMARK    7  A    between atoms: C_17  and  C_19
REMARK    8  A    between atoms: C_18  and  C_20
REMARK    9  A    between atoms: C_21  and  C_23
REMARK   10  A    between atoms: C_22  and  C_24
REMARK                            x       y       z     vdW  Elec       q    Type
REMARK                         _______ _______ _______ _____ _____    ______ ____
ROOT
ATOM      4  O   UNL     1     -16.532   3.283  26.651  0.00  0.00    -0.366 OA
ATOM     14  C   UNL     1     -17.856   3.070  24.687  0.00  0.00    +0.175 C 
ATOM     15  C   UNL     1     -17.798   1.736  25.402  0.00  0.00    +0.176 C 
ATOM     16  C   UNL     1     -16.687   3.819  25.316  0.00  0.00    +0.159 C 
ATOM     17  C   UNL     1     -17.419   2.161  26.810  0.00  0.00    +0.167 C 
ENDROOT
BRANCH  14   5
ATOM      5  O   UNL     1     -19.058   3.761  25.024  0.00  0.00    -0.387 OA
ATOM     34  H   UNL     1     -18.833   4.701  25.134  0.00  0.00    +0.210 HD
ENDBRANCH  14   5
BRANCH  15   6
ATOM      6  O   UNL     1     -19.022   1.032  25.372  0.00  0.00    -0.387 OA
ATOM     35  H   UNL     1     -19.725   1.677  25.185  0.00  0.00    +0.210 HD
ENDBRANCH  15   6
BRANCH  16  18
ATOM     18  C   UNL     1     -15.374   3.607  24.575  0.00  0.00    +0.133 C 
BRANCH  18  20
ATOM      7  O   UNL     1     -15.818   5.872  23.790  0.00  0.00    -0.338 OA
ATOM     12  N   UNL     1     -14.136   4.846  22.726  0.00  0.00    -0.191 NA
ATOM     13  N   UNL     1     -15.341   6.787  22.843  0.00  0.00    -0.056 NA
ATOM     20  C   UNL     1     -15.055   4.757  23.655  0.00  0.00    +0.230 A 
ATOM     22  C   UNL     1     -14.351   6.109  22.256  0.00  0.00    +0.202 A 
BRANCH  22  24
ATOM     24  C   UNL     1     -13.558   6.664  21.198  0.00  0.00    +0.023 A 
ATOM     26  C   UNL     1     -14.155   7.461  20.221  0.00  0.00    +0.015 A 
ATOM     27  C   UNL     1     -12.188   6.407  21.146  0.00  0.00    +0.015 A 
ATOM     30  C   UNL     1     -13.383   7.999  19.192  0.00  0.00    +0.046 A 
ATOM     31  C   UNL     1     -11.415   6.946  20.117  0.00  0.00    +0.046 A 
ATOM     32  C   UNL     1     -12.013   7.742  19.140  0.00  0.00    +0.130 A 
BRANCH  32  10
ATOM     10  O   UNL     1     -11.259   8.267  18.136  0.00  0.00    -0.406 OA
BRANCH  10  33
ATOM      1  F   UNL     1     -10.400   9.728  19.628  0.00  0.00    -0.133 F 
ATOM      2  F   UNL     1      -9.567   9.713  17.607  0.00  0.00    -0.133 F 
ATOM      3  F   UNL     1     -11.589  10.525  17.976  0.00  0.00    -0.133 F 
ATOM     33  C   UNL     1     -10.704   9.566  18.320  0.00  0.00    +0.575 C 
ENDBRANCH  10  33
ENDBRANCH  32  10
ENDBRANCH  22  24
ENDBRANCH  18  20
ENDBRANCH  16  18
BRANCH  17  19
ATOM     19  C   UNL     1     -16.722   1.068  27.602  0.00  0.00    +0.138 C 
BRANCH  19  11
ATOM      8  O   UNL     1     -15.908  -0.241  30.024  0.00  0.00    -0.267 OA
ATOM     11  N   UNL     1     -15.906   1.622  28.641  0.00  0.00    -0.306 N 
ATOM     21  C   UNL     1     -15.558   0.912  29.787  0.00  0.00    +0.279 C 
ATOM     36  H   UNL     1     -15.569   2.574  28.532  0.00  0.00    +0.149 HD
BRANCH  21  23
ATOM      9  O   UNL     1     -14.969   1.409  32.100  0.00  0.00    -0.458 OA
ATOM     23  C   UNL     1     -14.727   1.637  30.783  0.00  0.00    +0.189 A 
ATOM     25  C   UNL     1     -13.703   2.543  30.629  0.00  0.00    +0.054 A 
ATOM     28  C   UNL     1     -13.289   2.894  31.937  0.00  0.00    +0.042 A 
ATOM     29  C   UNL     1     -14.090   2.176  32.795  0.00  0.00    +0.196 A 
ENDBRANCH  21  23
ENDBRANCH  19  11
ENDBRANCH  17  19
TORSDOF 10
ENDMDL
MODEL 8
REMARK VINA RESULT:      -7.1     30.420     34.617
REMARK  Name = 25390146
REMARK  10 active torsions:
REMARK  status: ('A' for Active; 'I' for Inactive)
REMARK    1  A    between atoms: O_5  and  C_14
REMARK    2  A    between atoms: O_6  and  C_15
REMARK    3  A    between atoms: O_10  and  C_32
REMARK    4  A    between atoms: O_10  and  C_33
REMARK    5  A    between atoms: N_11  and  C_19
REMARK    6  A    between atoms: C_16  and  C_18
REMARK    7  A    between atoms: C_17  and  C_19
REMARK    8  A    between atoms: C_18  and  C_20
REMARK    9  A    between atoms: C_21  and  C_23
REMARK   10  A    between atoms: C_22  and  C_24
REMARK                            x       y       z     vdW  Elec       q    Type
REMARK                         _______ _______ _______ _____ _____    ______ ____
ROOT
ATOM      4  O   UNL     1      12.668   3.801   0.899  0.00  0.00    -0.366 OA
ATOM     14  C   UNL     1      15.027   4.082   1.008  0.00  0.00    +0.175 C 
ATOM     15  C   UNL     1      14.349   5.254   1.687  0.00  0.00    +0.176 C 
ATOM     16  C   UNL     1      13.889   3.487   0.188  0.00  0.00    +0.159 C 
ATOM     17  C   UNL     1      12.980   4.675   1.998  0.00  0.00    +0.167 C 
ENDROOT
BRANCH  14   5
ATOM      5  O   UNL     1      15.429   3.113   1.976  0.00  0.00    -0.387 OA
ATOM     34  H   UNL     1      15.238   2.234   1.606  0.00  0.00    +0.210 HD
ENDBRANCH  14   5
BRANCH  15   6
ATOM      6  O   UNL     1      15.018   5.689   2.851  0.00  0.00    -0.387 OA
ATOM     35  H   UNL     1      14.352   6.080   3.442  0.00  0.00    +0.210 HD
ENDBRANCH  15   6
BRANCH  16  18
ATOM     18  C   UNL     1      13.781   4.087  -1.208  0.00  0.00    +0.133 C 
BRANCH  18  20
ATOM      7  O   UNL     1      11.815   2.827  -1.910  0.00  0.00    -0.338 OA
ATOM     12  N   UNL     1      11.574   5.051  -2.035  0.00  0.00    -0.191 NA
ATOM     13  N   UNL     1      10.519   3.051  -2.390  0.00  0.00    -0.056 NA
ATOM     20  C   UNL     1      12.367   4.055  -1.727  0.00  0.00    +0.230 A 
ATOM     22  C   UNL     1      10.452   4.385  -2.437  0.00  0.00    +0.202 A 
BRANCH  22  24
ATOM     24  C   UNL     1       9.280   5.083  -2.879  0.00  0.00    +0.023 A 
ATOM     26  C   UNL     1       8.589   4.645  -4.009  0.00  0.00    +0.015 A 
ATOM     27  C   UNL     1       8.830   6.203  -2.178  0.00  0.00    +0.015 A 
ATOM     30  C   UNL     1       7.451   5.325  -4.439  0.00  0.00    +0.046 A 
ATOM     31  C   UNL     1       7.690   6.883  -2.608  0.00  0.00    +0.046 A 
ATOM     32  C   UNL     1       7.001   6.445  -3.738  0.00  0.00    +0.130 A 
BRANCH  32  10
ATOM     10  O   UNL     1       5.890   7.109  -4.157  0.00  0.00    -0.406 OA
BRANCH  10  33
ATOM      1  F   UNL     1       4.655   6.416  -2.399  0.00  0.00    -0.133 F 
ATOM      2  F   UNL     1       3.648   7.532  -3.987  0.00  0.00    -0.133 F 
ATOM      3  F   UNL     1       4.320   5.454  -4.334  0.00  0.00    -0.133 F 
ATOM     33  C   UNL     1       4.618   6.627  -3.735  0.00  0.00    +0.575 C 
ENDBRANCH  10  33
ENDBRANCH  32  10
ENDBRANCH  22  24
ENDBRANCH  18  20
ENDBRANCH  16  18
BRANCH  17  19
ATOM     19  C   UNL     1      11.897   5.730   2.134  0.00  0.00    +0.138 C 
BRANCH  19  11
ATOM      8  O   UNL     1      12.702   7.009   4.575  0.00  0.00    -0.267 OA
ATOM     11  N   UNL     1      11.241   5.639   3.405  0.00  0.00    -0.306 N 
ATOM     21  C   UNL     1      11.703   6.295   4.542  0.00  0.00    +0.279 C 
ATOM     36  H   UNL     1      10.403   5.068   3.473  0.00  0.00    +0.149 HD
BRANCH  21  23
ATOM      9  O   UNL     1      11.376   6.660   6.930  0.00  0.00    -0.458 OA
ATOM     23  C   UNL     1      10.925   6.077   5.789  0.00  0.00    +0.189 A 
ATOM     25  C   UNL     1       9.774   5.364   6.033  0.00  0.00    +0.054 A 
ATOM     28  C   UNL     1       9.499   5.520   7.413  0.00  0.00    +0.042 A 
ATOM     29  C   UNL     1      10.503   6.317   7.913  0.00  0.00    +0.196 A 
ENDBRANCH  21  23
ENDBRANCH  19  11
ENDBRANCH  17  19
TORSDOF 10
ENDMDL
MODEL 9
REMARK VINA RESULT:      -6.9      7.853     12.899
REMARK  Name = 25390146
REMARK  10 active torsions:
REMARK  status: ('A' for Active; 'I' for Inactive)
REMARK    1  A    between atoms: O_5  and  C_14
REMARK    2  A    between atoms: O_6  and  C_15
REMARK    3  A    between atoms: O_10  and  C_32
REMARK    4  A    between atoms: O_10  and  C_33
REMARK    5  A    between atoms: N_11  and  C_19
REMARK    6  A    between atoms: C_16  and  C_18
REMARK    7  A    between atoms: C_17  and  C_19
REMARK    8  A    between atoms: C_18  and  C_20
REMARK    9  A    between atoms: C_21  and  C_23
REMARK   10  A    between atoms: C_22  and  C_24
REMARK                            x       y       z     vdW  Elec       q    Type
REMARK                         _______ _______ _______ _____ _____    ______ ____
ROOT
ATOM      4  O   UNL     1     -10.659   9.509  18.509  0.00  0.00    -0.366 OA
ATOM     14  C   UNL     1     -11.309   8.338  16.544  0.00  0.00    +0.175 C 
ATOM     15  C   UNL     1     -11.047   9.789  16.201  0.00  0.00    +0.176 C 
ATOM     16  C   UNL     1     -11.461   8.392  18.060  0.00  0.00    +0.159 C 
ATOM     17  C   UNL     1     -10.167  10.223  17.361  0.00  0.00    +0.167 C 
ENDROOT
BRANCH  14   5
ATOM      5  O   UNL     1     -10.163   7.542  16.242  0.00  0.00    -0.387 OA
ATOM     34  H   UNL     1     -10.477   6.740  15.792  0.00  0.00    +0.210 HD
ENDBRANCH  14   5
BRANCH  15   6
ATOM      6  O   UNL     1     -10.405   9.962  14.956  0.00  0.00    -0.387 OA
ATOM     35  H   UNL     1      -9.934   9.136  14.752  0.00  0.00    +0.210 HD
ENDBRANCH  15   6
BRANCH  16  18
ATOM     18  C   UNL     1     -12.895   8.639  18.508  0.00  0.00    +0.133 C 
BRANCH  18  20
ATOM      7  O   UNL     1     -13.242  10.835  19.510  0.00  0.00    -0.338 OA
ATOM     12  N   UNL     1     -12.781   9.215  20.987  0.00  0.00    -0.191 NA
ATOM     13  N   UNL     1     -13.247  11.445  20.771  0.00  0.00    -0.056 NA
ATOM     20  C   UNL     1     -12.960   9.524  19.727  0.00  0.00    +0.230 A 
ATOM     22  C   UNL     1     -12.967  10.425  21.589  0.00  0.00    +0.202 A 
BRANCH  22  24
ATOM     24  C   UNL     1     -12.868  10.583  23.010  0.00  0.00    +0.023 A 
ATOM     26  C   UNL     1     -11.844  11.356  23.558  0.00  0.00    +0.015 A 
ATOM     27  C   UNL     1     -13.795   9.962  23.847  0.00  0.00    +0.015 A 
ATOM     30  C   UNL     1     -11.747  11.507  24.941  0.00  0.00    +0.046 A 
ATOM     31  C   UNL     1     -13.699  10.114  25.230  0.00  0.00    +0.046 A 
ATOM     32  C   UNL     1     -12.675  10.886  25.777  0.00  0.00    +0.130 A 
BRANCH  32  10
ATOM     10  O   UNL     1     -12.580  11.033  27.127  0.00  0.00    -0.406 OA
BRANCH  10  33
ATOM      1  F   UNL     1     -11.337   9.149  27.149  0.00  0.00    -0.133 F 
ATOM      2  F   UNL     1     -10.414  10.999  27.862  0.00  0.00    -0.133 F 
ATOM      3  F   UNL     1     -11.967   9.987  29.067  0.00  0.00    -0.133 F 
ATOM     33  C   UNL     1     -11.570  10.303  27.815  0.00  0.00    +0.575 C 
ENDBRANCH  10  33
ENDBRANCH  32  10
ENDBRANCH  22  24
ENDBRANCH  18  20
ENDBRANCH  16  18
BRANCH  17  19
ATOM     19  C   UNL     1     -10.215  11.717  17.629  0.00  0.00    +0.138 C 
BRANCH  19  11
ATOM      8  O   UNL     1      -9.582  13.063  15.173  0.00  0.00    -0.267 OA
ATOM     11  N   UNL     1      -8.972  12.344  17.293  0.00  0.00    -0.306 N 
ATOM     21  C   UNL     1      -8.751  12.977  16.073  0.00  0.00    +0.279 C 
ATOM     36  H   UNL     1      -8.222  12.322  17.979  0.00  0.00    +0.149 HD
BRANCH  21  23
ATOM      9  O   UNL     1      -6.716  13.981  16.965  0.00  0.00    -0.458 OA
ATOM     23  C   UNL     1      -7.397  13.556  15.869  0.00  0.00    +0.189 A 
ATOM     25  C   UNL     1      -6.655  13.759  14.729  0.00  0.00    +0.054 A 
ATOM     28  C   UNL     1      -5.437  14.346  15.152  0.00  0.00    +0.042 A 
ATOM     29  C   UNL     1      -5.524  14.459  16.520  0.00  0.00    +0.196 A 
ENDBRANCH  21  23
ENDBRANCH  19  11
ENDBRANCH  17  19
TORSDOF 10
ENDMDL
MODEL 10
REMARK VINA RESULT:      -6.9     16.419     18.650
REMARK  Name = 25390146
REMARK  10 active torsions:
REMARK  status: ('A' for Active; 'I' for Inactive)
REMARK    1  A    between atoms: O_5  and  C_14
REMARK    2  A    between atoms: O_6  and  C_15
REMARK    3  A    between atoms: O_10  and  C_32
REMARK    4  A    between atoms: O_10  and  C_33
REMARK    5  A    between atoms: N_11  and  C_19
REMARK    6  A    between atoms: C_16  and  C_18
REMARK    7  A    between atoms: C_17  and  C_19
REMARK    8  A    between atoms: C_18  and  C_20
REMARK    9  A    between atoms: C_21  and  C_23
REMARK   10  A    between atoms: C_22  and  C_24
REMARK                            x       y       z     vdW  Elec       q    Type
REMARK                         _______ _______ _______ _____ _____    ______ ____
ROOT
ATOM      4  O   UNL     1      -6.006 -10.647  18.143  0.00  0.00    -0.366 OA
ATOM     14  C   UNL     1      -4.559 -12.526  18.327  0.00  0.00    +0.175 C 
ATOM     15  C   UNL     1      -4.485 -11.969  16.921  0.00  0.00    +0.176 C 
ATOM     16  C   UNL     1      -5.848 -11.900  18.849  0.00  0.00    +0.159 C 
ATOM     17  C   UNL     1      -4.993 -10.552  17.126  0.00  0.00    +0.167 C 
ENDROOT
BRANCH  14   5
ATOM      5  O   UNL     1      -3.477 -12.031  19.114  0.00  0.00    -0.387 OA
ATOM     34  H   UNL     1      -3.685 -11.110  19.350  0.00  0.00    +0.210 HD
ENDBRANCH  14   5
BRANCH  15   6
ATOM      6  O   UNL     1      -3.181 -11.992  16.379  0.00  0.00    -0.387 OA
ATOM     35  H   UNL     1      -3.222 -12.481  15.540  0.00  0.00    +0.210 HD
ENDBRANCH  15   6
BRANCH  16  18
ATOM     18  C   UNL     1      -7.080 -12.750  18.569  0.00  0.00    +0.133 C 
BRANCH  18  20
ATOM      7  O   UNL     1      -8.400 -11.401  20.112  0.00  0.00    -0.338 OA
ATOM     12  N   UNL     1      -9.448 -11.890  18.194  0.00  0.00    -0.191 NA
ATOM     13  N   UNL     1      -9.664 -10.802  20.196  0.00  0.00    -0.056 NA
ATOM     20  C   UNL     1      -8.356 -12.020  18.904  0.00  0.00    +0.230 A 
ATOM     22  C   UNL     1     -10.222 -11.135  19.028  0.00  0.00    +0.202 A 
BRANCH  22  24
ATOM     24  C   UNL     1     -11.548 -10.730  18.664  0.00  0.00    +0.023 A 
ATOM     26  C   UNL     1     -12.340 -10.029  19.574  0.00  0.00    +0.015 A 
ATOM     27  C   UNL     1     -12.048 -11.039  17.399  0.00  0.00    +0.015 A 
ATOM     30  C   UNL     1     -13.629  -9.636  19.219  0.00  0.00    +0.046 A 
ATOM     31  C   UNL     1     -13.339 -10.646  17.044  0.00  0.00    +0.046 A 
ATOM     32  C   UNL     1     -14.130  -9.945  17.954  0.00  0.00    +0.130 A 
BRANCH  32  10
ATOM     10  O   UNL     1     -15.389  -9.562  17.608  0.00  0.00    -0.406 OA
BRANCH  10  33
ATOM      1  F   UNL     1     -14.431  -7.693  16.781  0.00  0.00    -0.133 F 
ATOM      2  F   UNL     1     -16.503  -8.117  16.228  0.00  0.00    -0.133 F 
ATOM      3  F   UNL     1     -16.004  -7.464  18.280  0.00  0.00    -0.133 F 
ATOM     33  C   UNL     1     -15.600  -8.206  17.227  0.00  0.00    +0.575 C 
ENDBRANCH  10  33
ENDBRANCH  32  10
ENDBRANCH  22  24
ENDBRANCH  18  20
ENDBRANCH  16  18
BRANCH  17  19
ATOM     19  C   UNL     1      -5.586  -9.938  15.871  0.00  0.00    +0.138 C 
BRANCH  19  11
ATOM      8  O   UNL     1      -8.243 -10.706  15.102  0.00  0.00    -0.267 OA
ATOM     11  N   UNL     1      -6.798  -9.232  16.162  0.00  0.00    -0.306 N 
ATOM     21  C   UNL     1      -8.050  -9.680  15.748  0.00  0.00    +0.279 C 
ATOM     36  H   UNL     1      -6.736  -8.369  16.694  0.00  0.00    +0.149 HD
BRANCH  21  23
ATOM      9  O   UNL     1     -10.203  -8.678  15.195  0.00  0.00    -0.458 OA
ATOM     23  C   UNL     1      -9.208  -8.820  16.109  0.00  0.00    +0.189 A 
ATOM     25  C   UNL     1      -9.489  -8.100  17.246  0.00  0.00    +0.054 A 
ATOM     28  C   UNL     1     -10.739  -7.475  17.017  0.00  0.00    +0.042 A 
ATOM     29  C   UNL     1     -11.132  -7.860  15.756  0.00  0.00    +0.196 A 
ENDBRANCH  21  23
ENDBRANCH  19  11
ENDBRANCH  17  19
TORSDOF 10
ENDMDL
