MODEL 1
REMARK VINA RESULT:      -7.4      0.000      0.000
REMARK  Name = 51137016
REMARK  3 active torsions:
REMARK  status: ('A' for Active; 'I' for Inactive)
REMARK    1  A    between atoms: C_8  and  C_12
REMARK    2  A    between atoms: C_13  and  C_16
REMARK    3  A    between atoms: C_19  and  C_23
REMARK                            x       y       z     vdW  Elec       q    Type
REMARK                         _______ _______ _______ _____ _____    ______ ____
ROOT
ATOM      6  N   UNL     1      15.215   8.954  20.001  0.00  0.00    -0.342 N 
ATOM      7  N   UNL     1      14.654   7.407  18.508  0.00  0.00    -0.232 NA
ATOM     12  C   UNL     1      14.307   8.545  19.064  0.00  0.00    +0.113 A 
ATOM     14  C   UNL     1      16.213   8.016  20.053  0.00  0.00    +0.067 A 
ATOM     15  C   UNL     1      15.841   7.062  19.112  0.00  0.00    +0.089 A 
ATOM     17  C   UNL     1      17.376   7.924  20.820  0.00  0.00    +0.040 A 
ATOM     18  C   UNL     1      16.665   5.941  18.910  0.00  0.00    +0.030 A 
ATOM     19  C   UNL     1      18.184   6.803  20.606  0.00  0.00    +0.057 A 
ATOM     20  C   UNL     1      17.836   5.828  19.668  0.00  0.00    +0.014 A 
ATOM     27  H   UNL     1      15.162   9.797  20.558  0.00  0.00    +0.167 HD
ENDROOT
BRANCH  12   8
ATOM      4  O   UNL     1      10.541   9.348  22.670  0.00  0.00    -0.270 OA
ATOM      5  N   UNL     1      11.698   9.664  20.681  0.00  0.00    -0.297 N 
ATOM      8  C   UNL     1      13.066   9.366  18.757  0.00  0.00    +0.074 C 
ATOM      9  C   UNL     1      11.815   8.480  18.643  0.00  0.00    +0.032 C 
ATOM     10  C   UNL     1      12.637  10.386  19.821  0.00  0.00    +0.119 C 
ATOM     11  C   UNL     1      11.286   8.410  20.070  0.00  0.00    +0.109 C 
ATOM     13  C   UNL     1      11.277  10.022  21.952  0.00  0.00    +0.247 C 
BRANCH  13  16
ATOM     16  C   UNL     1      11.759  11.304  22.492  0.00  0.00    +0.037 A 
ATOM     21  C   UNL     1      11.054  12.479  22.235  0.00  0.00    +0.013 A 
ATOM     22  C   UNL     1      12.921  11.341  23.263  0.00  0.00    +0.013 A 
ATOM     24  C   UNL     1      11.511  13.693  22.748  0.00  0.00    +0.001 A 
ATOM     25  C   UNL     1      13.378  12.555  23.777  0.00  0.00    +0.001 A 
ATOM     26  C   UNL     1      12.672  13.732  23.519  0.00  0.00    +0.000 A 
ENDBRANCH  13  16
ENDBRANCH  12   8
BRANCH  19  23
ATOM      1  F   UNL     1      19.227   6.423  22.725  0.00  0.00    -0.166 F 
ATOM      2  F   UNL     1      20.240   7.752  21.333  0.00  0.00    -0.166 F 
ATOM      3  F   UNL     1      20.221   5.606  20.979  0.00  0.00    -0.166 F 
ATOM     23  C   UNL     1      19.442   6.647  21.396  0.00  0.00    +0.417 C 
ENDBRANCH  19  23
TORSDOF 3
ENDMDL
MODEL 2
REMARK VINA RESULT:      -7.2      1.501      2.175
REMARK  Name = 51137016
REMARK  3 active torsions:
REMARK  status: ('A' for Active; 'I' for Inactive)
REMARK    1  A    between atoms: C_8  and  C_12
REMARK    2  A    between atoms: C_13  and  C_16
REMARK    3  A    between atoms: C_19  and  C_23
REMARK                            x       y       z     vdW  Elec       q    Type
REMARK                         _______ _______ _______ _____ _____    ______ ____
ROOT
ATOM      6  N   UNL     1      16.499   6.663  19.235  0.00  0.00    -0.342 N 
ATOM      7  N   UNL     1      16.471   8.390  20.633  0.00  0.00    -0.232 NA
ATOM     12  C   UNL     1      15.824   7.767  19.675  0.00  0.00    +0.113 A 
ATOM     14  C   UNL     1      17.660   6.567  19.958  0.00  0.00    +0.067 A 
ATOM     15  C   UNL     1      17.619   7.656  20.823  0.00  0.00    +0.089 A 
ATOM     17  C   UNL     1      18.711   5.649  19.930  0.00  0.00    +0.040 A 
ATOM     18  C   UNL     1      18.681   7.856  21.722  0.00  0.00    +0.030 A 
ATOM     19  C   UNL     1      19.759   5.864  20.830  0.00  0.00    +0.057 A 
ATOM     20  C   UNL     1      19.746   6.948  21.712  0.00  0.00    +0.014 A 
ATOM     27  H   UNL     1      16.198   6.028  18.507  0.00  0.00    +0.167 HD
ENDROOT
BRANCH  12   8
ATOM      4  O   UNL     1      11.514   8.391  22.653  0.00  0.00    -0.270 OA
ATOM      5  N   UNL     1      12.835   8.534  20.748  0.00  0.00    -0.297 N 
ATOM      8  C   UNL     1      14.485   8.165  19.075  0.00  0.00    +0.074 C 
ATOM      9  C   UNL     1      13.490   6.994  19.085  0.00  0.00    +0.032 C 
ATOM     10  C   UNL     1      13.700   9.257  19.814  0.00  0.00    +0.119 C 
ATOM     11  C   UNL     1      12.799   7.114  20.437  0.00  0.00    +0.109 C 
ATOM     13  C   UNL     1      12.174   9.049  21.852  0.00  0.00    +0.247 C 
BRANCH  13  16
ATOM     16  C   UNL     1      12.281  10.497  22.094  0.00  0.00    +0.037 A 
ATOM     21  C   UNL     1      11.330  11.366  21.559  0.00  0.00    +0.013 A 
ATOM     22  C   UNL     1      13.333  10.999  22.859  0.00  0.00    +0.013 A 
ATOM     24  C   UNL     1      11.432  12.738  21.789  0.00  0.00    +0.001 A 
ATOM     25  C   UNL     1      13.434  12.372  23.090  0.00  0.00    +0.001 A 
ATOM     26  C   UNL     1      12.483  13.241  22.555  0.00  0.00    +0.000 A 
ENDBRANCH  13  16
ENDBRANCH  12   8
BRANCH  19  23
ATOM      1  F   UNL     1      21.506   4.802  22.074  0.00  0.00    -0.166 F 
ATOM      2  F   UNL     1      21.908   5.285  19.992  0.00  0.00    -0.166 F 
ATOM      3  F   UNL     1      20.576   3.641  20.496  0.00  0.00    -0.166 F 
ATOM     23  C   UNL     1      20.913   4.916  20.849  0.00  0.00    +0.417 C 
ENDBRANCH  19  23
TORSDOF 3
ENDMDL
MODEL 3
REMARK VINA RESULT:      -7.1     16.084     18.828
REMARK  Name = 51137016
REMARK  3 active torsions:
REMARK  status: ('A' for Active; 'I' for Inactive)
REMARK    1  A    between atoms: C_8  and  C_12
REMARK    2  A    between atoms: C_13  and  C_16
REMARK    3  A    between atoms: C_19  and  C_23
REMARK                            x       y       z     vdW  Elec       q    Type
REMARK                         _______ _______ _______ _____ _____    ______ ____
ROOT
ATOM      6  N   UNL     1       9.341   6.172   4.425  0.00  0.00    -0.342 N 
ATOM      7  N   UNL     1       8.778   8.295   4.769  0.00  0.00    -0.232 NA
ATOM     12  C   UNL     1       9.053   7.385   3.862  0.00  0.00    +0.113 A 
ATOM     14  C   UNL     1       9.245   6.310   5.786  0.00  0.00    +0.067 A 
ATOM     15  C   UNL     1       8.892   7.642   5.975  0.00  0.00    +0.089 A 
ATOM     17  C   UNL     1       9.431   5.409   6.836  0.00  0.00    +0.040 A 
ATOM     18  C   UNL     1       8.710   8.124   7.283  0.00  0.00    +0.030 A 
ATOM     19  C   UNL     1       9.246   5.905   8.130  0.00  0.00    +0.057 A 
ATOM     20  C   UNL     1       8.891   7.238   8.352  0.00  0.00    +0.014 A 
ATOM     27  H   UNL     1       9.581   5.324   3.928  0.00  0.00    +0.167 HD
ENDROOT
BRANCH  12   8
ATOM      4  O   UNL     1      13.566   7.846   1.169  0.00  0.00    -0.270 OA
ATOM      5  N   UNL     1      11.283   7.552   1.480  0.00  0.00    -0.297 N 
ATOM      8  C   UNL     1       9.071   7.579   2.355  0.00  0.00    +0.074 C 
ATOM      9  C   UNL     1       9.492   9.007   1.973  0.00  0.00    +0.032 C 
ATOM     10  C   UNL     1      10.076   6.729   1.566  0.00  0.00    +0.119 C 
ATOM     11  C   UNL     1      11.010   8.925   1.874  0.00  0.00    +0.109 C 
ATOM     13  C   UNL     1      12.565   7.133   1.158  0.00  0.00    +0.247 C 
BRANCH  13  16
ATOM     16  C   UNL     1      12.745   5.721   0.787  0.00  0.00    +0.037 A 
ATOM     21  C   UNL     1      12.611   5.326  -0.543  0.00  0.00    +0.013 A 
ATOM     22  C   UNL     1      13.051   4.777   1.767  0.00  0.00    +0.013 A 
ATOM     24  C   UNL     1      12.784   3.987  -0.895  0.00  0.00    +0.001 A 
ATOM     25  C   UNL     1      13.224   3.438   1.416  0.00  0.00    +0.001 A 
ATOM     26  C   UNL     1      13.090   3.043   0.085  0.00  0.00    +0.000 A 
ENDBRANCH  13  16
ENDBRANCH  12   8
BRANCH  19  23
ATOM      1  F   UNL     1      10.528   5.286  10.053  0.00  0.00    -0.166 F 
ATOM      2  F   UNL     1       9.582   3.688   8.922  0.00  0.00    -0.166 F 
ATOM      3  F   UNL     1       8.380   5.003  10.169  0.00  0.00    -0.166 F 
ATOM     23  C   UNL     1       9.430   4.991   9.297  0.00  0.00    +0.417 C 
ENDBRANCH  19  23
TORSDOF 3
ENDMDL
MODEL 4
REMARK VINA RESULT:      -7.0      2.653      4.052
REMARK  Name = 51137016
REMARK  3 active torsions:
REMARK  status: ('A' for Active; 'I' for Inactive)
REMARK    1  A    between atoms: C_8  and  C_12
REMARK    2  A    between atoms: C_13  and  C_16
REMARK    3  A    between atoms: C_19  and  C_23
REMARK                            x       y       z     vdW  Elec       q    Type
REMARK                         _______ _______ _______ _____ _____    ______ ____
ROOT
ATOM      6  N   UNL     1      18.532   8.142  22.207  0.00  0.00    -0.342 N 
ATOM      7  N   UNL     1      17.194   7.698  20.489  0.00  0.00    -0.232 NA
ATOM     12  C   UNL     1      17.422   8.507  21.498  0.00  0.00    +0.113 A 
ATOM     14  C   UNL     1      19.055   7.021  21.616  0.00  0.00    +0.067 A 
ATOM     15  C   UNL     1      18.203   6.765  20.546  0.00  0.00    +0.089 A 
ATOM     17  C   UNL     1      20.168   6.233  21.916  0.00  0.00    +0.040 A 
ATOM     18  C   UNL     1      18.461   5.661  19.715  0.00  0.00    +0.030 A 
ATOM     19  C   UNL     1      20.409   5.140  21.079  0.00  0.00    +0.057 A 
ATOM     20  C   UNL     1      19.571   4.857  19.997  0.00  0.00    +0.014 A 
ATOM     27  H   UNL     1      18.904   8.612  23.022  0.00  0.00    +0.167 HD
ENDROOT
BRANCH  12   8
ATOM      4  O   UNL     1      13.163   9.992  18.761  0.00  0.00    -0.270 OA
ATOM      5  N   UNL     1      14.655   9.957  20.540  0.00  0.00    -0.297 N 
ATOM      8  C   UNL     1      16.597   9.721  21.894  0.00  0.00    +0.074 C 
ATOM      9  C   UNL     1      16.793  10.884  20.909  0.00  0.00    +0.032 C 
ATOM     10  C   UNL     1      15.072   9.548  21.882  0.00  0.00    +0.119 C 
ATOM     11  C   UNL     1      15.731  10.643  19.844  0.00  0.00    +0.109 C 
ATOM     13  C   UNL     1      13.445   9.690  19.918  0.00  0.00    +0.247 C 
BRANCH  13  16
ATOM     16  C   UNL     1      12.422   8.977  20.700  0.00  0.00    +0.037 A 
ATOM     21  C   UNL     1      11.525   9.693  21.493  0.00  0.00    +0.013 A 
ATOM     22  C   UNL     1      12.349   7.586  20.646  0.00  0.00    +0.013 A 
ATOM     24  C   UNL     1      10.555   9.017  22.232  0.00  0.00    +0.001 A 
ATOM     25  C   UNL     1      11.378   6.909  21.385  0.00  0.00    +0.001 A 
ATOM     26  C   UNL     1      10.480   7.625  22.179  0.00  0.00    +0.000 A 
ENDBRANCH  13  16
ENDBRANCH  12   8
BRANCH  19  23
ATOM      1  F   UNL     1      21.470   3.013  20.798  0.00  0.00    -0.166 F 
ATOM      2  F   UNL     1      21.792   4.054  22.680  0.00  0.00    -0.166 F 
ATOM      3  F   UNL     1      22.759   4.756  20.863  0.00  0.00    -0.166 F 
ATOM     23  C   UNL     1      21.585   4.258  21.347  0.00  0.00    +0.417 C 
ENDBRANCH  19  23
TORSDOF 3
ENDMDL
MODEL 5
REMARK VINA RESULT:      -7.0     17.104     19.780
REMARK  Name = 51137016
REMARK  3 active torsions:
REMARK  status: ('A' for Active; 'I' for Inactive)
REMARK    1  A    between atoms: C_8  and  C_12
REMARK    2  A    between atoms: C_13  and  C_16
REMARK    3  A    between atoms: C_19  and  C_23
REMARK                            x       y       z     vdW  Elec       q    Type
REMARK                         _______ _______ _______ _____ _____    ______ ____
ROOT
ATOM      6  N   UNL     1      12.220   7.080   4.627  0.00  0.00    -0.342 N 
ATOM      7  N   UNL     1      11.370   5.577   3.227  0.00  0.00    -0.232 NA
ATOM     12  C   UNL     1      12.194   6.593   3.349  0.00  0.00    +0.113 A 
ATOM     14  C   UNL     1      11.354   6.328   5.378  0.00  0.00    +0.067 A 
ATOM     15  C   UNL     1      10.837   5.398   4.482  0.00  0.00    +0.089 A 
ATOM     17  C   UNL     1      10.989   6.381   6.724  0.00  0.00    +0.040 A 
ATOM     18  C   UNL     1       9.899   4.455   4.938  0.00  0.00    +0.030 A 
ATOM     19  C   UNL     1      10.056   5.437   7.161  0.00  0.00    +0.057 A 
ATOM     20  C   UNL     1       9.519   4.489   6.285  0.00  0.00    +0.014 A 
ATOM     27  H   UNL     1      12.777   7.856   4.960  0.00  0.00    +0.167 HD
ENDROOT
BRANCH  12   8
ATOM      4  O   UNL     1      15.827   3.790   0.746  0.00  0.00    -0.270 OA
ATOM      5  N   UNL     1      14.429   5.591   1.186  0.00  0.00    -0.297 N 
ATOM      8  C   UNL     1      13.048   7.209   2.253  0.00  0.00    +0.074 C 
ATOM      9  C   UNL     1      14.504   7.395   2.706  0.00  0.00    +0.032 C 
ATOM     10  C   UNL     1      13.217   6.383   0.970  0.00  0.00    +0.119 C 
ATOM     11  C   UNL     1      15.172   6.076   2.339  0.00  0.00    +0.109 C 
ATOM     13  C   UNL     1      14.836   4.468   0.483  0.00  0.00    +0.247 C 
BRANCH  13  16
ATOM     16  C   UNL     1      14.011   4.045  -0.659  0.00  0.00    +0.037 A 
ATOM     21  C   UNL     1      12.904   3.222  -0.453  0.00  0.00    +0.013 A 
ATOM     22  C   UNL     1      14.335   4.469  -1.948  0.00  0.00    +0.013 A 
ATOM     24  C   UNL     1      12.121   2.822  -1.536  0.00  0.00    +0.001 A 
ATOM     25  C   UNL     1      13.552   4.069  -3.031  0.00  0.00    +0.001 A 
ATOM     26  C   UNL     1      12.444   3.245  -2.825  0.00  0.00    +0.000 A 
ENDBRANCH  13  16
ENDBRANCH  12   8
BRANCH  19  23
ATOM      1  F   UNL     1       9.110   4.248   9.010  0.00  0.00    -0.166 F 
ATOM      2  F   UNL     1       8.657   6.368   8.844  0.00  0.00    -0.166 F 
ATOM      3  F   UNL     1      10.638   5.719   9.463  0.00  0.00    -0.166 F 
ATOM     23  C   UNL     1       9.625   5.441   8.591  0.00  0.00    +0.417 C 
ENDBRANCH  19  23
TORSDOF 3
ENDMDL
MODEL 6
REMARK VINA RESULT:      -6.9     27.910     29.294
REMARK  Name = 51137016
REMARK  3 active torsions:
REMARK  status: ('A' for Active; 'I' for Inactive)
REMARK    1  A    between atoms: C_8  and  C_12
REMARK    2  A    between atoms: C_13  and  C_16
REMARK    3  A    between atoms: C_19  and  C_23
REMARK                            x       y       z     vdW  Elec       q    Type
REMARK                         _______ _______ _______ _____ _____    ______ ____
ROOT
ATOM      6  N   UNL     1      -5.529 -11.867  14.154  0.00  0.00    -0.342 N 
ATOM      7  N   UNL     1      -3.679 -12.820  14.935  0.00  0.00    -0.232 NA
ATOM     12  C   UNL     1      -4.978 -12.697  15.090  0.00  0.00    +0.113 A 
ATOM     14  C   UNL     1      -4.518 -11.424  13.341  0.00  0.00    +0.067 A 
ATOM     15  C   UNL     1      -3.374 -12.033  13.849  0.00  0.00    +0.089 A 
ATOM     17  C   UNL     1      -4.506 -10.568  12.238  0.00  0.00    +0.040 A 
ATOM     18  C   UNL     1      -2.136 -11.786  13.232  0.00  0.00    +0.030 A 
ATOM     19  C   UNL     1      -3.265 -10.334  11.637  0.00  0.00    +0.057 A 
ATOM     20  C   UNL     1      -2.100 -10.931  12.124  0.00  0.00    +0.014 A 
ATOM     27  H   UNL     1      -6.507 -11.622  14.073  0.00  0.00    +0.167 HD
ENDROOT
BRANCH  12   8
ATOM      4  O   UNL     1      -6.114 -10.298  19.650  0.00  0.00    -0.270 OA
ATOM      5  N   UNL     1      -6.283 -11.902  17.978  0.00  0.00    -0.297 N 
ATOM      8  C   UNL     1      -5.833 -13.363  16.155  0.00  0.00    +0.074 C 
ATOM      9  C   UNL     1      -4.996 -13.784  17.373  0.00  0.00    +0.032 C 
ATOM     10  C   UNL     1      -6.922 -12.495  16.803  0.00  0.00    +0.119 C 
ATOM     11  C   UNL     1      -5.018 -12.557  18.274  0.00  0.00    +0.109 C 
ATOM     13  C   UNL     1      -6.720 -10.809  18.711  0.00  0.00    +0.247 C 
BRANCH  13  16
ATOM     16  C   UNL     1      -8.006 -10.204  18.327  0.00  0.00    +0.037 A 
ATOM     21  C   UNL     1      -9.190 -10.656  18.907  0.00  0.00    +0.013 A 
ATOM     22  C   UNL     1      -8.037  -9.177  17.384  0.00  0.00    +0.013 A 
ATOM     24  C   UNL     1     -10.409 -10.081  18.543  0.00  0.00    +0.001 A 
ATOM     25  C   UNL     1      -9.256  -8.602  17.021  0.00  0.00    +0.001 A 
ATOM     26  C   UNL     1     -10.442  -9.054  17.601  0.00  0.00    +0.000 A 
ENDBRANCH  13  16
ENDBRANCH  12   8
BRANCH  19  23
ATOM      1  F   UNL     1      -1.934  -8.932  10.227  0.00  0.00    -0.166 F 
ATOM      2  F   UNL     1      -3.997  -8.337  10.572  0.00  0.00    -0.166 F 
ATOM      3  F   UNL     1      -3.549 -10.029   9.282  0.00  0.00    -0.166 F 
ATOM     23  C   UNL     1      -3.187  -9.428  10.452  0.00  0.00    +0.417 C 
ENDBRANCH  19  23
TORSDOF 3
ENDMDL
MODEL 7
REMARK VINA RESULT:      -6.8     27.755     29.406
REMARK  Name = 51137016
REMARK  3 active torsions:
REMARK  status: ('A' for Active; 'I' for Inactive)
REMARK    1  A    between atoms: C_8  and  C_12
REMARK    2  A    between atoms: C_13  and  C_16
REMARK    3  A    between atoms: C_19  and  C_23
REMARK                            x       y       z     vdW  Elec       q    Type
REMARK                         _______ _______ _______ _____ _____    ______ ____
ROOT
ATOM      6  N   UNL     1      -4.649 -10.428  15.612  0.00  0.00    -0.342 N 
ATOM      7  N   UNL     1      -3.211 -11.206  17.117  0.00  0.00    -0.232 NA
ATOM     12  C   UNL     1      -3.353 -10.766  15.888  0.00  0.00    +0.113 A 
ATOM     14  C   UNL     1      -5.392 -10.667  16.739  0.00  0.00    +0.067 A 
ATOM     15  C   UNL     1      -4.473 -11.151  17.663  0.00  0.00    +0.089 A 
ATOM     17  C   UNL     1      -6.750 -10.504  17.020  0.00  0.00    +0.040 A 
ATOM     18  C   UNL     1      -4.915 -11.499  18.951  0.00  0.00    +0.030 A 
ATOM     19  C   UNL     1      -7.172 -10.856  18.305  0.00  0.00    +0.057 A 
ATOM     20  C   UNL     1      -6.273 -11.345  19.256  0.00  0.00    +0.014 A 
ATOM     27  H   UNL     1      -4.999 -10.066  14.734  0.00  0.00    +0.167 HD
ENDROOT
BRANCH  12   8
ATOM      4  O   UNL     1      -3.779 -12.944  11.101  0.00  0.00    -0.270 OA
ATOM      5  N   UNL     1      -2.895 -11.574  12.755  0.00  0.00    -0.297 N 
ATOM      8  C   UNL     1      -2.260 -10.623  14.841  0.00  0.00    +0.074 C 
ATOM      9  C   UNL     1      -1.506 -11.944  14.626  0.00  0.00    +0.032 C 
ATOM     10  C   UNL     1      -2.716 -10.280  13.416  0.00  0.00    +0.119 C 
ATOM     11  C   UNL     1      -2.307 -12.649  13.538  0.00  0.00    +0.109 C 
ATOM     13  C   UNL     1      -3.592 -11.830  11.584  0.00  0.00    +0.247 C 
BRANCH  13  16
ATOM     16  C   UNL     1      -4.165 -10.678  10.868  0.00  0.00    +0.037 A 
ATOM     21  C   UNL     1      -3.384  -9.960   9.964  0.00  0.00    +0.013 A 
ATOM     22  C   UNL     1      -5.490 -10.307  11.095  0.00  0.00    +0.013 A 
ATOM     24  C   UNL     1      -3.928  -8.869   9.285  0.00  0.00    +0.001 A 
ATOM     25  C   UNL     1      -6.034  -9.217  10.416  0.00  0.00    +0.001 A 
ATOM     26  C   UNL     1      -5.253  -8.498   9.510  0.00  0.00    +0.000 A 
ENDBRANCH  13  16
ENDBRANCH  12   8
BRANCH  19  23
ATOM      1  F   UNL     1      -8.840 -10.699  20.015  0.00  0.00    -0.166 F 
ATOM      2  F   UNL     1      -9.387 -11.713  18.170  0.00  0.00    -0.166 F 
ATOM      3  F   UNL     1      -9.173  -9.549  18.206  0.00  0.00    -0.166 F 
ATOM     23  C   UNL     1      -8.614 -10.705  18.668  0.00  0.00    +0.417 C 
ENDBRANCH  19  23
TORSDOF 3
ENDMDL
MODEL 8
REMARK VINA RESULT:      -6.6      5.266     10.148
REMARK  Name = 51137016
REMARK  3 active torsions:
REMARK  status: ('A' for Active; 'I' for Inactive)
REMARK    1  A    between atoms: C_8  and  C_12
REMARK    2  A    between atoms: C_13  and  C_16
REMARK    3  A    between atoms: C_19  and  C_23
REMARK                            x       y       z     vdW  Elec       q    Type
REMARK                         _______ _______ _______ _____ _____    ______ ____
ROOT
ATOM      6  N   UNL     1      19.134   7.890  21.897  0.00  0.00    -0.342 N 
ATOM      7  N   UNL     1      19.955   6.395  20.472  0.00  0.00    -0.232 NA
ATOM     12  C   UNL     1      20.242   7.226  21.448  0.00  0.00    +0.113 A 
ATOM     14  C   UNL     1      18.061   7.459  21.160  0.00  0.00    +0.067 A 
ATOM     15  C   UNL     1      18.599   6.527  20.279  0.00  0.00    +0.089 A 
ATOM     17  C   UNL     1      16.707   7.794  21.189  0.00  0.00    +0.040 A 
ATOM     18  C   UNL     1      17.751   5.880  19.364  0.00  0.00    +0.030 A 
ATOM     19  C   UNL     1      15.877   7.142  20.272  0.00  0.00    +0.057 A 
ATOM     20  C   UNL     1      16.388   6.201  19.374  0.00  0.00    +0.014 A 
ATOM     27  H   UNL     1      19.108   8.577  22.640  0.00  0.00    +0.167 HD
ENDROOT
BRANCH  12   8
ATOM      4  O   UNL     1      22.489   3.773  24.744  0.00  0.00    -0.270 OA
ATOM      5  N   UNL     1      22.369   5.614  23.333  0.00  0.00    -0.297 N 
ATOM      8  C   UNL     1      21.612   7.475  22.058  0.00  0.00    +0.074 C 
ATOM      9  C   UNL     1      21.514   7.801  23.556  0.00  0.00    +0.032 C 
ATOM     10  C   UNL     1      22.589   6.291  22.054  0.00  0.00    +0.119 C 
ATOM     11  C   UNL     1      21.578   6.438  24.232  0.00  0.00    +0.109 C 
ATOM     13  C   UNL     1      22.759   4.330  23.682  0.00  0.00    +0.247 C 
BRANCH  13  16
ATOM     16  C   UNL     1      23.544   3.567  22.699  0.00  0.00    +0.037 A 
ATOM     21  C   UNL     1      22.896   2.774  21.753  0.00  0.00    +0.013 A 
ATOM     22  C   UNL     1      24.937   3.639  22.714  0.00  0.00    +0.013 A 
ATOM     24  C   UNL     1      23.642   2.052  20.820  0.00  0.00    +0.001 A 
ATOM     25  C   UNL     1      25.682   2.916  21.781  0.00  0.00    +0.001 A 
ATOM     26  C   UNL     1      25.034   2.123  20.834  0.00  0.00    +0.000 A 
ENDBRANCH  13  16
ENDBRANCH  12   8
BRANCH  19  23
ATOM      1  F   UNL     1      14.120   8.627  19.614  0.00  0.00    -0.166 F 
ATOM      2  F   UNL     1      13.892   7.579  21.506  0.00  0.00    -0.166 F 
ATOM      3  F   UNL     1      13.663   6.507  19.627  0.00  0.00    -0.166 F 
ATOM     23  C   UNL     1      14.417   7.457  20.253  0.00  0.00    +0.417 C 
ENDBRANCH  19  23
TORSDOF 3
ENDMDL
MODEL 9
REMARK VINA RESULT:      -6.6     28.085     29.665
REMARK  Name = 51137016
REMARK  3 active torsions:
REMARK  status: ('A' for Active; 'I' for Inactive)
REMARK    1  A    between atoms: C_8  and  C_12
REMARK    2  A    between atoms: C_13  and  C_16
REMARK    3  A    between atoms: C_19  and  C_23
REMARK                            x       y       z     vdW  Elec       q    Type
REMARK                         _______ _______ _______ _____ _____    ______ ____
ROOT
ATOM      6  N   UNL     1      -3.155 -11.161  15.152  0.00  0.00    -0.342 N 
ATOM      7  N   UNL     1      -4.785 -10.131  14.047  0.00  0.00    -0.232 NA
ATOM     12  C   UNL     1      -3.578 -10.642  13.960  0.00  0.00    +0.113 A 
ATOM     14  C   UNL     1      -4.157 -10.971  16.069  0.00  0.00    +0.067 A 
ATOM     15  C   UNL     1      -5.162 -10.328  15.355  0.00  0.00    +0.089 A 
ATOM     17  C   UNL     1      -4.265 -11.298  17.422  0.00  0.00    +0.040 A 
ATOM     18  C   UNL     1      -6.355  -9.981  16.013  0.00  0.00    +0.030 A 
ATOM     19  C   UNL     1      -5.459 -10.947  18.060  0.00  0.00    +0.057 A 
ATOM     20  C   UNL     1      -6.487 -10.300  17.370  0.00  0.00    +0.014 A 
ATOM     27  H   UNL     1      -2.264 -11.606  15.328  0.00  0.00    +0.167 HD
ENDROOT
BRANCH  12   8
ATOM      4  O   UNL     1      -4.848 -13.552   9.746  0.00  0.00    -0.270 OA
ATOM      5  N   UNL     1      -3.692 -11.950  10.968  0.00  0.00    -0.297 N 
ATOM      8  C   UNL     1      -2.697 -10.688  12.722  0.00  0.00    +0.074 C 
ATOM      9  C   UNL     1      -1.980 -12.039  12.588  0.00  0.00    +0.032 C 
ATOM     10  C   UNL     1      -3.410 -10.570  11.368  0.00  0.00    +0.119 C 
ATOM     11  C   UNL     1      -2.958 -12.895  11.793  0.00  0.00    +0.109 C 
ATOM     13  C   UNL     1      -4.588 -12.378  10.000  0.00  0.00    +0.247 C 
BRANCH  13  16
ATOM     16  C   UNL     1      -5.297 -11.346   9.226  0.00  0.00    +0.037 A 
ATOM     21  C   UNL     1      -4.770 -10.899   8.015  0.00  0.00    +0.013 A 
ATOM     22  C   UNL     1      -6.495 -10.817   9.704  0.00  0.00    +0.013 A 
ATOM     24  C   UNL     1      -5.443  -9.922   7.280  0.00  0.00    +0.001 A 
ATOM     25  C   UNL     1      -7.168  -9.840   8.969  0.00  0.00    +0.001 A 
ATOM     26  C   UNL     1      -6.642  -9.392   7.757  0.00  0.00    +0.000 A 
ENDBRANCH  13  16
ENDBRANCH  12   8
BRANCH  19  23
ATOM      1  F   UNL     1      -6.626 -12.180  19.746  0.00  0.00    -0.166 F 
ATOM      2  F   UNL     1      -5.957 -10.174  20.253  0.00  0.00    -0.166 F 
ATOM      3  F   UNL     1      -4.519 -11.797  20.089  0.00  0.00    -0.166 F 
ATOM     23  C   UNL     1      -5.636 -11.270  19.508  0.00  0.00    +0.417 C 
ENDBRANCH  19  23
TORSDOF 3
ENDMDL
MODEL 10
REMARK VINA RESULT:      -6.5     28.474     30.451
REMARK  Name = 51137016
REMARK  3 active torsions:
REMARK  status: ('A' for Active; 'I' for Inactive)
REMARK    1  A    between atoms: C_8  and  C_12
REMARK    2  A    between atoms: C_13  and  C_16
REMARK    3  A    between atoms: C_19  and  C_23
REMARK                            x       y       z     vdW  Elec       q    Type
REMARK                         _______ _______ _______ _____ _____    ______ ____
ROOT
ATOM      6  N   UNL     1      -7.052  -9.307  17.190  0.00  0.00    -0.342 N 
ATOM      7  N   UNL     1      -7.739 -10.783  18.704  0.00  0.00    -0.232 NA
ATOM     12  C   UNL     1      -6.701 -10.309  18.053  0.00  0.00    +0.113 A 
ATOM     14  C   UNL     1      -8.407  -9.124  17.291  0.00  0.00    +0.067 A 
ATOM     15  C   UNL     1      -8.812 -10.056  18.241  0.00  0.00    +0.089 A 
ATOM     17  C   UNL     1      -9.286  -8.249  16.651  0.00  0.00    +0.040 A 
ATOM     18  C   UNL     1     -10.172 -10.134  18.588  0.00  0.00    +0.030 A 
ATOM     19  C   UNL     1     -10.635  -8.341  17.008  0.00  0.00    +0.057 A 
ATOM     20  C   UNL     1     -11.072  -9.266  17.959  0.00  0.00    +0.014 A 
ATOM     27  H   UNL     1      -6.426  -8.792  16.585  0.00  0.00    +0.167 HD
ENDROOT
BRANCH  12   8
ATOM      4  O   UNL     1      -4.676 -14.078  14.967  0.00  0.00    -0.270 OA
ATOM      5  N   UNL     1      -4.661 -12.336  16.503  0.00  0.00    -0.297 N 
ATOM      8  C   UNL     1      -5.258 -10.765  18.187  0.00  0.00    +0.074 C 
ATOM      9  C   UNL     1      -5.163 -12.169  18.802  0.00  0.00    +0.032 C 
ATOM     10  C   UNL     1      -4.468 -10.935  16.881  0.00  0.00    +0.119 C 
ATOM     11  C   UNL     1      -5.234 -13.101  17.599  0.00  0.00    +0.109 C 
ATOM     13  C   UNL     1      -4.431 -12.911  15.262  0.00  0.00    +0.247 C 
BRANCH  13  16
ATOM     16  C   UNL     1      -3.863 -12.052  14.210  0.00  0.00    +0.037 A 
ATOM     21  C   UNL     1      -2.481 -11.954  14.061  0.00  0.00    +0.013 A 
ATOM     22  C   UNL     1      -4.709 -11.339  13.362  0.00  0.00    +0.013 A 
ATOM     24  C   UNL     1      -1.943 -11.141  13.063  0.00  0.00    +0.001 A 
ATOM     25  C   UNL     1      -4.172 -10.526  12.363  0.00  0.00    +0.001 A 
ATOM     26  C   UNL     1      -2.787 -10.427  12.214  0.00  0.00    +0.000 A 
ENDBRANCH  13  16
ENDBRANCH  12   8
BRANCH  19  23
ATOM      1  F   UNL     1     -11.449  -6.115  16.676  0.00  0.00    -0.166 F 
ATOM      2  F   UNL     1     -12.912  -7.723  16.709  0.00  0.00    -0.166 F 
ATOM      3  F   UNL     1     -11.596  -7.478  14.995  0.00  0.00    -0.166 F 
ATOM     23  C   UNL     1     -11.627  -7.432  16.359  0.00  0.00    +0.417 C 
ENDBRANCH  19  23
TORSDOF 3
ENDMDL
