REMARK  Name = 11884110
REMARK  9 active torsions:
REMARK  status: ('A' for Active; 'I' for Inactive)
REMARK    1  A    between atoms: S_2  and  N_9
REMARK    2  A    between atoms: S_2  and  C_17
REMARK    3  A    between atoms: O_5  and  C_14
REMARK    4  A    between atoms: O_5  and  C_18
REMARK    5  A    between atoms: N_9  and  C_13
REMARK    6  A    between atoms: N_10  and  C_21
REMARK    7  A    between atoms: C_27  and  C_28
REMARK    8  A    between atoms: C_28  and  C_31
REMARK    9  A    between atoms: C_28  and  C_32
REMARK                            x       y       z     vdW  Elec       q    Type
REMARK                         _______ _______ _______ _____ _____    ______ ____
ROOT
ATOM      3  O   UNL     1       0.261   0.176   1.506  0.00  0.00    -0.369 OA
ATOM      4  O   UNL     1       2.222  -2.030   0.639  0.00  0.00    -0.368 OA
ATOM     11  C   UNL     1       2.034  -0.675   0.178  0.00  0.00    +0.171 C 
ATOM     12  C   UNL     1       0.544  -0.399   0.220  0.00  0.00    +0.191 C 
ATOM     13  C   UNL     1       2.612   0.294   1.179  0.00  0.00    +0.133 C 
ATOM     14  C   UNL     1      -0.050  -1.781   0.083  0.00  0.00    +0.235 C 
ATOM     15  C   UNL     1       1.494   0.437   2.194  0.00  0.00    +0.183 C 
ATOM     16  C   UNL     1       0.936  -2.629   0.854  0.00  0.00    +0.207 C 
ENDROOT
BRANCH  13   9
ATOM      9  N   UNL     1       2.869   1.601   0.529  0.00  0.00    -0.182 NA
ATOM     33  H   UNL     1       2.180   1.938  -0.154  0.00  0.00    +0.148 HD
BRANCH   9   2
ATOM      2  S   UNL     1       4.417   2.293   0.607  0.00  0.00    +0.059 S 
ATOM      6  O   UNL     1       4.836   2.384   1.993  0.00  0.00    -0.153 OA
ATOM      7  O   UNL     1       4.447   3.468  -0.243  0.00  0.00    -0.153 OA
BRANCH   2  17
ATOM      1 CL   UNL     1       7.926  -2.068  -2.187  0.00  0.00    -0.084 Cl
ATOM     17  C   UNL     1       5.409   1.061  -0.182  0.00  0.00    +0.105 A 
ATOM     19  C   UNL     1       5.602   1.125  -1.551  0.00  0.00    +0.030 A 
ATOM     20  C   UNL     1       5.973   0.055   0.583  0.00  0.00    +0.030 A 
ATOM     22  C   UNL     1       6.385   0.152  -2.174  0.00  0.00    +0.022 A 
ATOM     23  C   UNL     1       6.755  -0.917  -0.040  0.00  0.00    +0.022 A 
ATOM     24  C   UNL     1       6.961  -0.869  -1.418  0.00  0.00    +0.041 A 
ENDBRANCH   2  17
ENDBRANCH   9   2
ENDBRANCH  13   9
BRANCH  14   5
ATOM      5  O   UNL     1      -1.357  -1.885   0.599  0.00  0.00    -0.442 OA
BRANCH   5  18
ATOM      8  O   UNL     1      -2.095  -0.375  -0.951  0.00  0.00    -0.226 OA
ATOM     10  N   UNL     1      -3.545  -1.337   0.614  0.00  0.00    -0.251 N 
ATOM     18  C   UNL     1      -2.331  -1.119  -0.007  0.00  0.00    +0.405 C 
ATOM     34  H   UNL     1      -3.541  -1.998   1.387  0.00  0.00    +0.158 HD
BRANCH  10  21
ATOM     21  C   UNL     1      -4.797  -0.756   0.308  0.00  0.00    +0.036 A 
ATOM     25  C   UNL     1      -5.910  -1.108   1.054  0.00  0.00    +0.024 A 
ATOM     26  C   UNL     1      -4.886   0.155  -0.733  0.00  0.00    +0.024 A 
ATOM     27  C   UNL     1      -7.251   0.384  -0.292  0.00  0.00    -0.045 A 
ATOM     29  C   UNL     1      -7.145  -0.534   0.752  0.00  0.00    +0.006 A 
ATOM     30  C   UNL     1      -6.121   0.729  -1.035  0.00  0.00    +0.006 A 
BRANCH  27  28
ATOM     28  C   UNL     1      -8.571   0.998  -0.615  0.00  0.00    +0.013 C 
ATOM     31  C   UNL     1      -8.571   2.527  -0.429  0.00  0.00    +0.012 C 
ATOM     32  C   UNL     1      -9.053   0.644  -2.035  0.00  0.00    +0.012 C 
ENDBRANCH  27  28
ENDBRANCH  10  21
ENDBRANCH   5  18
ENDBRANCH  14   5
TORSDOF 7
