REMARK  Name = 45783728
REMARK  6 active torsions:
REMARK  status: ('A' for Active; 'I' for Inactive)
REMARK    1  A    between atoms: O_2  and  C_26
REMARK    2  A    between atoms: N_4  and  C_14
REMARK    3  A    between atoms: C_10  and  C_15
REMARK    4  A    between atoms: C_14  and  C_16
REMARK    5  A    between atoms: C_19  and  C_23
REMARK    6  A    between atoms: C_22  and  C_26
REMARK                            x       y       z     vdW  Elec       q    Type
REMARK                         _______ _______ _______ _____ _____    ______ ____
ROOT
ATOM      4  N   UNL     1      -3.211  -0.485  -0.545  0.00  0.00    -0.287 NA
ATOM     10  C   UNL     1      -2.796  -1.297   0.617  0.00  0.00    +0.146 C 
ATOM     11  C   UNL     1      -3.344  -2.706   0.326  0.00  0.00    +0.030 C 
ATOM     12  C   UNL     1      -4.101  -2.574  -0.988  0.00  0.00    +0.017 C 
ATOM     13  C   UNL     1      -4.435  -1.098  -1.062  0.00  0.00    +0.085 C 
ENDROOT
BRANCH  10  15
ATOM      1  O   UNL     1      -0.862  -0.852   2.043  0.00  0.00    -0.336 OA
ATOM      5  N   UNL     1      -0.339  -1.633   0.010  0.00  0.00    -0.190 NA
ATOM      6  N   UNL     1       0.536  -0.929   2.003  0.00  0.00    -0.056 NA
ATOM     15  C   UNL     1      -1.297  -1.285   0.831  0.00  0.00    +0.245 A 
ATOM     19  C   UNL     1       0.768  -1.398   0.773  0.00  0.00    +0.207 A 
BRANCH  19  23
ATOM      7  N   UNL     1       3.687  -1.775  -1.520  0.00  0.00    -0.220 NA
ATOM      8  N   UNL     1       1.447  -1.180  -1.995  0.00  0.00    -0.342 N 
ATOM      9  N   UNL     1       4.374  -2.248   0.741  0.00  0.00    -0.243 NA
ATOM     23  C   UNL     1       2.091  -1.643   0.277  0.00  0.00    +0.080 A 
ATOM     24  C   UNL     1       2.442  -1.544  -1.054  0.00  0.00    +0.130 A 
ATOM     25  C   UNL     1       3.108  -2.002   1.138  0.00  0.00    +0.127 A 
ATOM     27  C   UNL     1       4.590  -2.118  -0.582  0.00  0.00    +0.223 A 
ATOM     28  H   UNL     1       1.748  -1.107  -2.960  0.00  0.00    +0.144 HD
ATOM     29  H   UNL     1       0.490  -1.462  -1.829  0.00  0.00    +0.144 HD
ENDBRANCH  19  23
ENDBRANCH  10  15
BRANCH   4  14
ATOM     14  C   UNL     1      -3.396   0.924  -0.225  0.00  0.00    +0.120 C 
BRANCH  14  16
ATOM     16  C   UNL     1      -2.085   1.662  -0.163  0.00  0.00    -0.033 A 
ATOM     17  C   UNL     1      -1.708   2.317   1.009  0.00  0.00    +0.006 A 
ATOM     18  C   UNL     1      -1.247   1.691  -1.279  0.00  0.00    +0.006 A 
ATOM     20  C   UNL     1      -0.493   3.000   1.067  0.00  0.00    +0.015 A 
ATOM     21  C   UNL     1      -0.033   2.375  -1.221  0.00  0.00    +0.015 A 
ATOM     22  C   UNL     1       0.344   3.030  -0.049  0.00  0.00    +0.059 A 
BRANCH  22  26
ATOM      3  O   UNL     1       2.043   4.353   0.994  0.00  0.00    -0.245 OA
ATOM     26  C   UNL     1       1.611   3.742   0.011  0.00  0.00    +0.337 C 
BRANCH  26   2
ATOM      2  O   UNL     1       2.304   3.671  -1.159  0.00  0.00    -0.477 OA
ATOM     30  H   UNL     1       3.156   4.153  -1.108  0.00  0.00    +0.295 HD
ENDBRANCH  26   2
ENDBRANCH  22  26
ENDBRANCH  14  16
ENDBRANCH   4  14
TORSDOF 6
