REMARK  Name = 11912462
REMARK  11 active torsions:
REMARK  status: ('A' for Active; 'I' for Inactive)
REMARK    1  A    between atoms: S_1  and  N_6
REMARK    2  A    between atoms: S_1  and  C_18
REMARK    3  A    between atoms: O_5  and  C_25
REMARK    4  A    between atoms: O_5  and  C_27
REMARK    5  A    between atoms: N_7  and  C_21
REMARK    6  A    between atoms: N_7  and  C_22
REMARK    7  A    between atoms: C_9  and  C_14
REMARK    8  A    between atoms: C_10  and  C_15
REMARK    9  A    between atoms: C_14  and  C_16
REMARK   10  A    between atoms: C_15  and  C_17
REMARK   11  A    between atoms: C_21  and  C_26
REMARK                            x       y       z     vdW  Elec       q    Type
REMARK                         _______ _______ _______ _____ _____    ______ ____
ROOT
ATOM      6  N   UNL     1       0.689  -1.406  -0.292  0.00  0.00    -0.176 NA
ATOM      9  C   UNL     1      -1.320  -0.202   0.539  0.00  0.00    +0.008 C 
ATOM     10  C   UNL     1      -1.448   0.490  -0.839  0.00  0.00    +0.003 C 
ATOM     11  C   UNL     1      -0.799  -0.348  -1.951  0.00  0.00    +0.021 C 
ATOM     12  C   UNL     1       0.151  -0.556   0.812  0.00  0.00    +0.113 C 
ATOM     13  C   UNL     1       0.643  -0.708  -1.609  0.00  0.00    +0.110 C 
ENDROOT
BRANCH   6   1
ATOM      1  S   UNL     1       2.159  -2.215   0.057  0.00  0.00    +0.061 S 
ATOM      2  O   UNL     1       2.481  -3.101  -1.040  0.00  0.00    -0.153 OA
ATOM      3  O   UNL     1       2.115  -2.699   1.420  0.00  0.00    -0.153 OA
BRANCH   1  18
ATOM     18  C   UNL     1       3.280  -0.853  -0.001  0.00  0.00    +0.106 A 
ATOM     19  C   UNL     1       3.538  -0.136   1.156  0.00  0.00    +0.032 A 
ATOM     20  C   UNL     1       3.885  -0.523  -1.203  0.00  0.00    +0.032 A 
ATOM     23  C   UNL     1       4.423   0.941   1.110  0.00  0.00    +0.047 A 
ATOM     24  C   UNL     1       4.771   0.554  -1.249  0.00  0.00    +0.047 A 
ATOM     25  C   UNL     1       5.040   1.285  -0.093  0.00  0.00    +0.120 A 
BRANCH  25   5
ATOM      5  O   UNL     1       5.905   2.335  -0.137  0.00  0.00    -0.495 OA
ATOM     27  C   UNL     1       6.135   3.039   1.082  0.00  0.00    +0.277 C 
ENDBRANCH  25   5
ENDBRANCH   1  18
ENDBRANCH   6   1
BRANCH   9  14
ATOM     14  C   UNL     1      -2.211  -1.440   0.703  0.00  0.00    +0.002 C 
ATOM     16  C   UNL     1      -2.140  -1.981   2.115  0.00  0.00    +0.004 C 
ENDBRANCH   9  14
BRANCH  10  15
ATOM     15  C   UNL     1      -2.890   0.844  -1.203  0.00  0.00    +0.100 C 
BRANCH  15  17
ATOM      4  O   UNL     1      -2.868   2.541   0.490  0.00  0.00    -0.276 OA
ATOM      7  N   UNL     1      -4.928   1.612  -0.029  0.00  0.00    -0.291 N 
ATOM     17  C   UNL     1      -3.543   1.746  -0.170  0.00  0.00    +0.216 C 
ATOM     22  C   UNL     1      -5.699   2.408   0.918  0.00  0.00    +0.133 C 
BRANCH   7  21
ATOM     21  C   UNL     1      -5.707   0.663  -0.822  0.00  0.00    +0.226 C 
BRANCH  21  26
ATOM      8  N   UNL     1      -5.867  -1.659   0.386  0.00  0.00    -0.195 NA
ATOM     26  C   UNL     1      -5.795  -0.631  -0.147  0.00  0.00    +0.082 C 
ENDBRANCH  21  26
ENDBRANCH   7  21
ENDBRANCH  15  17
ENDBRANCH  10  15
TORSDOF 8
