MODEL 1
REMARK VINA RESULT:      -7.5      0.000      0.000
REMARK  Name = 45361609
REMARK  10 active torsions:
REMARK  status: ('A' for Active; 'I' for Inactive)
REMARK    1  A    between atoms: O_1  and  C_11
REMARK    2  A    between atoms: N_5  and  C_15
REMARK    3  A    between atoms: N_6  and  C_25
REMARK    4  A    between atoms: C_8  and  C_18
REMARK    5  A    between atoms: C_10  and  C_20
REMARK    6  A    between atoms: C_14  and  C_19
REMARK    7  A    between atoms: C_19  and  C_21
REMARK    8  A    between atoms: C_19  and  C_22
REMARK    9  A    between atoms: C_23  and  C_24
REMARK   10  A    between atoms: C_25  and  C_27
REMARK                            x       y       z     vdW  Elec       q    Type
REMARK                         _______ _______ _______ _____ _____    ______ ____
ROOT
ATOM      8  C   UNL     1     -16.513   6.484  22.597  0.00  0.00    -0.027 C 
ATOM      9  C   UNL     1     -15.061   5.992  22.909  0.00  0.00    +0.028 C 
ATOM     10  C   UNL     1     -14.120   6.200  21.669  0.00  0.00    +0.012 C 
ATOM     11  C   UNL     1     -15.069   4.555  23.507  0.00  0.00    +0.122 C 
ATOM     12  C   UNL     1     -17.383   6.369  23.871  0.00  0.00    +0.007 C 
ATOM     13  C   UNL     1     -16.464   7.976  22.193  0.00  0.00    +0.009 C 
ATOM     14  C   UNL     1     -16.021   4.421  24.719  0.00  0.00    +0.029 C 
ATOM     15  C   UNL     1     -14.137   7.690  21.225  0.00  0.00    +0.076 C 
ATOM     16  C   UNL     1     -17.425   4.956  24.437  0.00  0.00    +0.007 C 
ATOM     17  C   UNL     1     -15.545   8.244  21.010  0.00  0.00    +0.023 C 
ATOM     18  C   UNL     1     -17.185   5.670  21.461  0.00  0.00    +0.011 C 
ATOM     20  C   UNL     1     -12.667   5.763  21.918  0.00  0.00    +0.010 C 
ENDROOT
BRANCH  15   5
ATOM      3  O   UNL     1     -12.163   9.726  20.772  0.00  0.00    -0.269 OA
ATOM      5  N   UNL     1     -13.371   7.898  20.014  0.00  0.00    -0.307 N 
ATOM     23  C   UNL     1     -12.439   8.914  19.893  0.00  0.00    +0.263 C 
ATOM     34  H   UNL     1     -13.573   7.310  19.210  0.00  0.00    +0.149 HD
BRANCH  23  24
ATOM      7  N   UNL     1     -11.774  10.228  17.994  0.00  0.00    -0.250 NA
ATOM     24  C   UNL     1     -11.757   9.009  18.577  0.00  0.00    +0.125 A 
ATOM     26  C   UNL     1     -11.152   7.892  18.022  0.00  0.00    +0.033 A 
ATOM     28  C   UNL     1     -10.526   8.036  16.789  0.00  0.00    +0.004 A 
ATOM     29  C   UNL     1     -11.155  10.330  16.796  0.00  0.00    +0.111 A 
ATOM     31  C   UNL     1     -10.522   9.274  16.158  0.00  0.00    +0.020 A 
ENDBRANCH  23  24
ENDBRANCH  15   5
BRANCH  11   1
ATOM      1  O   UNL     1     -13.761   4.227  23.977  0.00  0.00    -0.391 OA
ATOM     35  H   UNL     1     -13.255   5.053  24.063  0.00  0.00    +0.210 HD
ENDBRANCH  11   1
BRANCH  14  19
ATOM     19  C   UNL     1     -16.115   2.971  25.210  0.00  0.00    +0.077 C 
ATOM     21  C   UNL     1     -17.140   2.202  24.387  0.00  0.00    +0.017 C 
BRANCH  19  22
ATOM      2  O   UNL     1     -17.581   2.645  27.111  0.00  0.00    -0.276 OA
ATOM      6  N   UNL     1     -15.390   3.302  27.500  0.00  0.00    -0.308 N 
ATOM     22  C   UNL     1     -16.463   2.948  26.696  0.00  0.00    +0.217 C 
ATOM     36  H   UNL     1     -14.509   3.566  27.069  0.00  0.00    +0.149 HD
BRANCH   6  25
ATOM     25  C   UNL     1     -15.477   3.354  28.941  0.00  0.00    +0.178 C 
BRANCH  25  27
ATOM      4  O   UNL     1     -13.883   1.860  30.007  0.00  0.00    -0.466 OA
ATOM     27  C   UNL     1     -15.158   2.028  29.570  0.00  0.00    +0.122 A 
ATOM     30  C   UNL     1     -15.905   0.898  29.813  0.00  0.00    +0.046 A 
ATOM     32  C   UNL     1     -15.032  -0.023  30.438  0.00  0.00    +0.041 A 
ATOM     33  C   UNL     1     -13.814   0.610  30.534  0.00  0.00    +0.195 A 
ENDBRANCH  25  27
ENDBRANCH   6  25
ENDBRANCH  19  22
ENDBRANCH  14  19
TORSDOF 7
ENDMDL
MODEL 2
REMARK VINA RESULT:      -7.2      2.591     10.924
REMARK  Name = 45361609
REMARK  10 active torsions:
REMARK  status: ('A' for Active; 'I' for Inactive)
REMARK    1  A    between atoms: O_1  and  C_11
REMARK    2  A    between atoms: N_5  and  C_15
REMARK    3  A    between atoms: N_6  and  C_25
REMARK    4  A    between atoms: C_8  and  C_18
REMARK    5  A    between atoms: C_10  and  C_20
REMARK    6  A    between atoms: C_14  and  C_19
REMARK    7  A    between atoms: C_19  and  C_21
REMARK    8  A    between atoms: C_19  and  C_22
REMARK    9  A    between atoms: C_23  and  C_24
REMARK   10  A    between atoms: C_25  and  C_27
REMARK                            x       y       z     vdW  Elec       q    Type
REMARK                         _______ _______ _______ _____ _____    ______ ____
ROOT
ATOM      8  C   UNL     1     -15.020   7.590  20.587  0.00  0.00    -0.027 C 
ATOM      9  C   UNL     1     -13.794   6.663  20.879  0.00  0.00    +0.028 C 
ATOM     10  C   UNL     1     -13.977   5.906  22.244  0.00  0.00    +0.012 C 
ATOM     11  C   UNL     1     -12.452   7.435  20.719  0.00  0.00    +0.122 C 
ATOM     12  C   UNL     1     -14.860   8.231  19.188  0.00  0.00    +0.007 C 
ATOM     13  C   UNL     1     -16.307   6.733  20.567  0.00  0.00    +0.009 C 
ATOM     14  C   UNL     1     -12.343   8.160  19.357  0.00  0.00    +0.029 C 
ATOM     15  C   UNL     1     -15.312   5.108  22.241  0.00  0.00    +0.076 C 
ATOM     16  C   UNL     1     -13.566   9.020  19.040  0.00  0.00    +0.007 C 
ATOM     17  C   UNL     1     -16.525   5.954  21.857  0.00  0.00    +0.023 C 
ATOM     18  C   UNL     1     -15.175   8.719  21.637  0.00  0.00    +0.011 C 
ATOM     20  C   UNL     1     -12.818   4.953  22.581  0.00  0.00    +0.010 C 
ENDROOT
BRANCH  15   5
ATOM      3  O   UNL     1     -16.437   2.506  22.699  0.00  0.00    -0.269 OA
ATOM      5  N   UNL     1     -15.570   4.492  23.526  0.00  0.00    -0.307 N 
ATOM     23  C   UNL     1     -16.119   3.226  23.642  0.00  0.00    +0.263 C 
ATOM     34  H   UNL     1     -15.394   5.036  24.366  0.00  0.00    +0.149 HD
BRANCH  23  24
ATOM      7  N   UNL     1     -16.566   1.421  25.164  0.00  0.00    -0.250 NA
ATOM     24  C   UNL     1     -16.346   2.747  25.030  0.00  0.00    +0.125 A 
ATOM     26  C   UNL     1     -16.322   3.641  26.088  0.00  0.00    +0.033 A 
ATOM     28  C   UNL     1     -16.538   3.141  27.368  0.00  0.00    +0.004 A 
ATOM     29  C   UNL     1     -16.772   0.970  26.422  0.00  0.00    +0.111 A 
ATOM     31  C   UNL     1     -16.768   1.781  27.547  0.00  0.00    +0.020 A 
ENDBRANCH  23  24
ENDBRANCH  15   5
BRANCH  11   1
ATOM      1  O   UNL     1     -11.362   6.514  20.780  0.00  0.00    -0.391 OA
ATOM     35  H   UNL     1     -11.673   5.655  20.446  0.00  0.00    +0.210 HD
ENDBRANCH  11   1
BRANCH  14  19
ATOM     19  C   UNL     1     -11.076   9.020  19.272  0.00  0.00    +0.077 C 
ATOM     21  C   UNL     1     -11.295  10.352  19.979  0.00  0.00    +0.017 C 
BRANCH  19  22
ATOM      2  O   UNL     1     -10.273  10.299  17.377  0.00  0.00    -0.276 OA
ATOM      6  N   UNL     1     -10.848   8.075  17.050  0.00  0.00    -0.308 N 
ATOM     22  C   UNL     1     -10.684   9.224  17.811  0.00  0.00    +0.217 C 
ATOM     36  H   UNL     1     -11.222   7.237  17.486  0.00  0.00    +0.149 HD
BRANCH   6  25
ATOM     25  C   UNL     1     -10.544   8.023  15.639  0.00  0.00    +0.178 C 
BRANCH  25  27
ATOM      4  O   UNL     1     -11.500   8.685  13.505  0.00  0.00    -0.466 OA
ATOM     27  C   UNL     1     -11.746   8.336  14.795  0.00  0.00    +0.122 A 
ATOM     30  C   UNL     1     -13.098   8.345  15.049  0.00  0.00    +0.046 A 
ATOM     32  C   UNL     1     -13.723   8.727  13.838  0.00  0.00    +0.041 A 
ATOM     33  C   UNL     1     -12.707   8.922  12.930  0.00  0.00    +0.195 A 
ENDBRANCH  25  27
ENDBRANCH   6  25
ENDBRANCH  19  22
ENDBRANCH  14  19
TORSDOF 7
ENDMDL
MODEL 3
REMARK VINA RESULT:      -6.9     18.725     21.878
REMARK  Name = 45361609
REMARK  10 active torsions:
REMARK  status: ('A' for Active; 'I' for Inactive)
REMARK    1  A    between atoms: O_1  and  C_11
REMARK    2  A    between atoms: N_5  and  C_15
REMARK    3  A    between atoms: N_6  and  C_25
REMARK    4  A    between atoms: C_8  and  C_18
REMARK    5  A    between atoms: C_10  and  C_20
REMARK    6  A    between atoms: C_14  and  C_19
REMARK    7  A    between atoms: C_19  and  C_21
REMARK    8  A    between atoms: C_19  and  C_22
REMARK    9  A    between atoms: C_23  and  C_24
REMARK   10  A    between atoms: C_25  and  C_27
REMARK                            x       y       z     vdW  Elec       q    Type
REMARK                         _______ _______ _______ _____ _____    ______ ____
ROOT
ATOM      8  C   UNL     1      -4.756 -11.033  16.948  0.00  0.00    -0.027 C 
ATOM      9  C   UNL     1      -5.547 -10.422  15.744  0.00  0.00    +0.028 C 
ATOM     10  C   UNL     1      -7.096 -10.531  15.979  0.00  0.00    +0.012 C 
ATOM     11  C   UNL     1      -5.035 -10.987  14.388  0.00  0.00    +0.122 C 
ATOM     12  C   UNL     1      -3.240 -10.809  16.738  0.00  0.00    +0.007 C 
ATOM     13  C   UNL     1      -5.165 -10.298  18.246  0.00  0.00    +0.009 C 
ATOM     14  C   UNL     1      -3.502 -10.853  14.227  0.00  0.00    +0.029 C 
ATOM     15  C   UNL     1      -7.485  -9.855  17.324  0.00  0.00    +0.076 C 
ATOM     16  C   UNL     1      -2.727 -11.395  15.429  0.00  0.00    +0.007 C 
ATOM     17  C   UNL     1      -6.662 -10.348  18.513  0.00  0.00    +0.023 C 
ATOM     18  C   UNL     1      -5.014 -12.552  17.119  0.00  0.00    +0.011 C 
ATOM     20  C   UNL     1      -7.936  -9.921  14.844  0.00  0.00    +0.010 C 
ENDROOT
BRANCH  15   5
ATOM      3  O   UNL     1      -9.491  -7.804  17.464  0.00  0.00    -0.269 OA
ATOM      5  N   UNL     1      -8.889 -10.037  17.629  0.00  0.00    -0.307 N 
ATOM     23  C   UNL     1      -9.780  -8.979  17.674  0.00  0.00    +0.263 C 
ATOM     34  H   UNL     1      -9.211 -10.969  17.875  0.00  0.00    +0.149 HD
BRANCH  23  24
ATOM      7  N   UNL     1     -12.111  -9.041  17.092  0.00  0.00    -0.250 NA
ATOM     24  C   UNL     1     -11.180  -9.330  18.027  0.00  0.00    +0.125 A 
ATOM     26  C   UNL     1     -11.464  -9.918  19.250  0.00  0.00    +0.033 A 
ATOM     28  C   UNL     1     -12.790 -10.229  19.530  0.00  0.00    +0.004 A 
ATOM     29  C   UNL     1     -13.390  -9.357  17.399  0.00  0.00    +0.111 A 
ATOM     31  C   UNL     1     -13.777  -9.947  18.593  0.00  0.00    +0.020 A 
ENDBRANCH  23  24
ENDBRANCH  15   5
BRANCH  11   1
ATOM      1  O   UNL     1      -5.624 -10.254  13.313  0.00  0.00    -0.391 OA
ATOM     35  H   UNL     1      -5.491 -10.760  12.493  0.00  0.00    +0.210 HD
ENDBRANCH  11   1
BRANCH  14  19
ATOM     19  C   UNL     1      -3.003 -11.533  12.947  0.00  0.00    +0.077 C 
ATOM     21  C   UNL     1      -1.826 -12.448  13.262  0.00  0.00    +0.017 C 
BRANCH  19  22
ATOM      2  O   UNL     1      -1.499  -9.990  11.840  0.00  0.00    -0.276 OA
ATOM      6  N   UNL     1      -3.687 -10.141  11.083  0.00  0.00    -0.308 N 
ATOM     22  C   UNL     1      -2.626 -10.477  11.912  0.00  0.00    +0.217 C 
ATOM     36  H   UNL     1      -4.594 -10.574  11.232  0.00  0.00    +0.149 HD
BRANCH   6  25
ATOM     25  C   UNL     1      -3.573  -9.163  10.026  0.00  0.00    +0.178 C 
BRANCH  25  27
ATOM      4  O   UNL     1      -4.832  -9.768   8.037  0.00  0.00    -0.466 OA
ATOM     27  C   UNL     1      -4.828  -9.075   9.205  0.00  0.00    +0.122 A 
ATOM     30  C   UNL     1      -6.025  -8.422   9.385  0.00  0.00    +0.046 A 
ATOM     32  C   UNL     1      -6.815  -8.731   8.253  0.00  0.00    +0.041 A 
ATOM     33  C   UNL     1      -6.044  -9.553   7.463  0.00  0.00    +0.195 A 
ENDBRANCH  25  27
ENDBRANCH   6  25
ENDBRANCH  19  22
ENDBRANCH  14  19
TORSDOF 7
ENDMDL
MODEL 4
REMARK VINA RESULT:      -6.7     20.121     21.829
REMARK  Name = 45361609
REMARK  10 active torsions:
REMARK  status: ('A' for Active; 'I' for Inactive)
REMARK    1  A    between atoms: O_1  and  C_11
REMARK    2  A    between atoms: N_5  and  C_15
REMARK    3  A    between atoms: N_6  and  C_25
REMARK    4  A    between atoms: C_8  and  C_18
REMARK    5  A    between atoms: C_10  and  C_20
REMARK    6  A    between atoms: C_14  and  C_19
REMARK    7  A    between atoms: C_19  and  C_21
REMARK    8  A    between atoms: C_19  and  C_22
REMARK    9  A    between atoms: C_23  and  C_24
REMARK   10  A    between atoms: C_25  and  C_27
REMARK                            x       y       z     vdW  Elec       q    Type
REMARK                         _______ _______ _______ _____ _____    ______ ____
ROOT
ATOM      8  C   UNL     1      -3.179 -11.383  11.819  0.00  0.00    -0.027 C 
ATOM      9  C   UNL     1      -4.529 -10.911  12.454  0.00  0.00    +0.028 C 
ATOM     10  C   UNL     1      -5.305  -9.958  11.475  0.00  0.00    +0.012 C 
ATOM     11  C   UNL     1      -4.314 -10.359  13.893  0.00  0.00    +0.122 C 
ATOM     12  C   UNL     1      -2.496 -12.405  12.758  0.00  0.00    +0.007 C 
ATOM     13  C   UNL     1      -3.473 -12.097  10.480  0.00  0.00    +0.009 C 
ATOM     14  C   UNL     1      -3.539 -11.345  14.798  0.00  0.00    +0.029 C 
ATOM     15  C   UNL     1      -5.529 -10.659  10.106  0.00  0.00    +0.076 C 
ATOM     16  C   UNL     1      -2.248 -11.855  14.157  0.00  0.00    +0.007 C 
ATOM     17  C   UNL     1      -4.247 -11.229   9.498  0.00  0.00    +0.023 C 
ATOM     18  C   UNL     1      -2.199 -10.208  11.567  0.00  0.00    +0.011 C 
ATOM     20  C   UNL     1      -6.659  -9.479  12.026  0.00  0.00    +0.010 C 
ENDROOT
BRANCH  15   5
ATOM      3  O   UNL     1      -7.796 -11.230   8.439  0.00  0.00    -0.269 OA
ATOM      5  N   UNL     1      -6.138  -9.769   9.140  0.00  0.00    -0.307 N 
ATOM     23  C   UNL     1      -7.234 -10.140   8.380  0.00  0.00    +0.263 C 
ATOM     34  H   UNL     1      -5.705  -8.864   8.979  0.00  0.00    +0.149 HD
BRANCH  23  24
ATOM      7  N   UNL     1      -7.752  -9.504   6.121  0.00  0.00    -0.250 NA
ATOM     24  C   UNL     1      -7.725  -9.121   7.417  0.00  0.00    +0.125 A 
ATOM     26  C   UNL     1      -8.121  -7.871   7.865  0.00  0.00    +0.033 A 
ATOM     28  C   UNL     1      -8.574  -6.955   6.922  0.00  0.00    +0.004 A 
ATOM     29  C   UNL     1      -8.198  -8.587   5.233  0.00  0.00    +0.111 A 
ATOM     31  C   UNL     1      -8.617  -7.312   5.579  0.00  0.00    +0.020 A 
ENDBRANCH  23  24
ENDBRANCH  15   5
BRANCH  11   1
ATOM      1  O   UNL     1      -5.581 -10.143  14.515  0.00  0.00    -0.391 OA
ATOM     35  H   UNL     1      -6.164 -10.885  14.278  0.00  0.00    +0.210 HD
ENDBRANCH  11   1
BRANCH  14  19
ATOM     19  C   UNL     1      -3.223 -10.731  16.167  0.00  0.00    +0.077 C 
ATOM     21  C   UNL     1      -1.715 -10.646  16.370  0.00  0.00    +0.017 C 
BRANCH  19  22
ATOM      2  O   UNL     1      -3.467 -11.572  18.426  0.00  0.00    -0.276 OA
ATOM      6  N   UNL     1      -4.994 -12.254  16.817  0.00  0.00    -0.308 N 
ATOM     22  C   UNL     1      -3.887 -11.551  17.270  0.00  0.00    +0.217 C 
ATOM     36  H   UNL     1      -5.253 -12.200  15.836  0.00  0.00    +0.149 HD
BRANCH   6  25
ATOM     25  C   UNL     1      -5.786 -13.102  17.677  0.00  0.00    +0.178 C 
BRANCH  25  27
ATOM      4  O   UNL     1      -7.444 -11.326  17.585  0.00  0.00    -0.466 OA
ATOM     27  C   UNL     1      -6.926 -12.353  18.308  0.00  0.00    +0.122 A 
ATOM     30  C   UNL     1      -7.589 -12.485  19.506  0.00  0.00    +0.046 A 
ATOM     32  C   UNL     1      -8.578 -11.473  19.521  0.00  0.00    +0.041 A 
ATOM     33  C   UNL     1      -8.448 -10.795  18.330  0.00  0.00    +0.195 A 
ENDBRANCH  25  27
ENDBRANCH   6  25
ENDBRANCH  19  22
ENDBRANCH  14  19
TORSDOF 7
ENDMDL
MODEL 5
REMARK VINA RESULT:      -6.6     19.259     22.675
REMARK  Name = 45361609
REMARK  10 active torsions:
REMARK  status: ('A' for Active; 'I' for Inactive)
REMARK    1  A    between atoms: O_1  and  C_11
REMARK    2  A    between atoms: N_5  and  C_15
REMARK    3  A    between atoms: N_6  and  C_25
REMARK    4  A    between atoms: C_8  and  C_18
REMARK    5  A    between atoms: C_10  and  C_20
REMARK    6  A    between atoms: C_14  and  C_19
REMARK    7  A    between atoms: C_19  and  C_21
REMARK    8  A    between atoms: C_19  and  C_22
REMARK    9  A    between atoms: C_23  and  C_24
REMARK   10  A    between atoms: C_25  and  C_27
REMARK                            x       y       z     vdW  Elec       q    Type
REMARK                         _______ _______ _______ _____ _____    ______ ____
ROOT
ATOM      8  C   UNL     1      -4.339 -10.598  10.947  0.00  0.00    -0.027 C 
ATOM      9  C   UNL     1      -5.745  -9.986  11.260  0.00  0.00    +0.028 C 
ATOM     10  C   UNL     1      -6.321 -10.562  12.603  0.00  0.00    +0.012 C 
ATOM     11  C   UNL     1      -6.691 -10.089  10.028  0.00  0.00    +0.122 C 
ATOM     12  C   UNL     1      -3.754  -9.928   9.682  0.00  0.00    +0.007 C 
ATOM     13  C   UNL     1      -3.385 -10.295  12.126  0.00  0.00    +0.009 C 
ATOM     14  C   UNL     1      -6.058  -9.510   8.741  0.00  0.00    +0.029 C 
ATOM     15  C   UNL     1      -5.319 -10.319  13.766  0.00  0.00    +0.076 C 
ATOM     16  C   UNL     1      -4.659 -10.061   8.465  0.00  0.00    +0.007 C 
ATOM     17  C   UNL     1      -3.904 -10.808  13.461  0.00  0.00    +0.023 C 
ATOM     18  C   UNL     1      -4.397 -12.130  10.718  0.00  0.00    +0.011 C 
ATOM     20  C   UNL     1      -7.692  -9.979  12.986  0.00  0.00    +0.010 C 
ENDROOT
BRANCH  15   5
ATOM      3  O   UNL     1      -5.423  -9.096  16.362  0.00  0.00    -0.269 OA
ATOM      5  N   UNL     1      -5.765 -10.939  14.996  0.00  0.00    -0.307 N 
ATOM     23  C   UNL     1      -5.776 -10.262  16.204  0.00  0.00    +0.263 C 
ATOM     34  H   UNL     1      -6.021 -11.922  14.975  0.00  0.00    +0.149 HD
BRANCH  23  24
ATOM      7  N   UNL     1      -7.017 -12.115  17.100  0.00  0.00    -0.250 NA
ATOM     24  C   UNL     1      -6.237 -11.047  17.378  0.00  0.00    +0.125 A 
ATOM     26  C   UNL     1      -5.863 -10.672  18.658  0.00  0.00    +0.033 A 
ATOM     28  C   UNL     1      -6.320 -11.442  19.722  0.00  0.00    +0.004 A 
ATOM     29  C   UNL     1      -7.442 -12.840  18.159  0.00  0.00    +0.111 A 
ATOM     31  C   UNL     1      -7.124 -12.549  19.477  0.00  0.00    +0.020 A 
ENDBRANCH  23  24
ENDBRANCH  15   5
BRANCH  11   1
ATOM      1  O   UNL     1      -7.879  -9.335  10.275  0.00  0.00    -0.391 OA
ATOM     35  H   UNL     1      -8.015  -8.732   9.524  0.00  0.00    +0.210 HD
ENDBRANCH  11   1
BRANCH  14  19
ATOM     19  C   UNL     1      -6.951  -9.740   7.516  0.00  0.00    +0.077 C 
ATOM     21  C   UNL     1      -6.202 -10.551   6.465  0.00  0.00    +0.017 C 
BRANCH  19  22
ATOM      2  O   UNL     1      -7.458  -8.162   5.749  0.00  0.00    -0.276 OA
ATOM      6  N   UNL     1      -7.783  -7.505   7.950  0.00  0.00    -0.308 N 
ATOM     22  C   UNL     1      -7.419  -8.400   6.955  0.00  0.00    +0.217 C 
ATOM     36  H   UNL     1      -7.692  -7.777   8.925  0.00  0.00    +0.149 HD
BRANCH   6  25
ATOM     25  C   UNL     1      -8.259  -6.171   7.665  0.00  0.00    +0.178 C 
BRANCH  25  27
ATOM      4  O   UNL     1     -10.204  -6.879   8.939  0.00  0.00    -0.466 OA
ATOM     27  C   UNL     1      -9.484  -5.830   8.463  0.00  0.00    +0.122 A 
ATOM     30  C   UNL     1     -10.061  -4.638   8.837  0.00  0.00    +0.046 A 
ATOM     32  C   UNL     1     -11.211  -4.977   9.588  0.00  0.00    +0.041 A 
ATOM     33  C   UNL     1     -11.254  -6.352   9.622  0.00  0.00    +0.195 A 
ENDBRANCH  25  27
ENDBRANCH   6  25
ENDBRANCH  19  22
ENDBRANCH  14  19
TORSDOF 7
ENDMDL
MODEL 6
REMARK VINA RESULT:      -6.5      3.711     12.218
REMARK  Name = 45361609
REMARK  10 active torsions:
REMARK  status: ('A' for Active; 'I' for Inactive)
REMARK    1  A    between atoms: O_1  and  C_11
REMARK    2  A    between atoms: N_5  and  C_15
REMARK    3  A    between atoms: N_6  and  C_25
REMARK    4  A    between atoms: C_8  and  C_18
REMARK    5  A    between atoms: C_10  and  C_20
REMARK    6  A    between atoms: C_14  and  C_19
REMARK    7  A    between atoms: C_19  and  C_21
REMARK    8  A    between atoms: C_19  and  C_22
REMARK    9  A    between atoms: C_23  and  C_24
REMARK   10  A    between atoms: C_25  and  C_27
REMARK                            x       y       z     vdW  Elec       q    Type
REMARK                         _______ _______ _______ _____ _____    ______ ____
ROOT
ATOM      8  C   UNL     1     -11.329   8.250  19.103  0.00  0.00    -0.027 C 
ATOM      9  C   UNL     1     -12.778   8.818  18.937  0.00  0.00    +0.028 C 
ATOM     10  C   UNL     1     -13.851   7.740  19.331  0.00  0.00    +0.012 C 
ATOM     11  C   UNL     1     -12.971   9.472  17.539  0.00  0.00    +0.122 C 
ATOM     12  C   UNL     1     -10.300   9.369  18.816  0.00  0.00    +0.007 C 
ATOM     13  C   UNL     1     -11.131   7.792  20.566  0.00  0.00    +0.009 C 
ATOM     14  C   UNL     1     -11.877  10.517  17.215  0.00  0.00    +0.029 C 
ATOM     15  C   UNL     1     -13.596   7.231  20.778  0.00  0.00    +0.076 C 
ATOM     16  C   UNL     1     -10.461   9.985  17.433  0.00  0.00    +0.007 C 
ATOM     17  C   UNL     1     -12.160   6.763  21.014  0.00  0.00    +0.023 C 
ATOM     18  C   UNL     1     -11.047   7.059  18.152  0.00  0.00    +0.011 C 
ATOM     20  C   UNL     1     -15.300   8.243  19.219  0.00  0.00    +0.010 C 
ENDROOT
BRANCH  15   5
ATOM      3  O   UNL     1     -15.159   7.023  23.177  0.00  0.00    -0.269 OA
ATOM      5  N   UNL     1     -14.495   6.153  21.133  0.00  0.00    -0.307 N 
ATOM     23  C   UNL     1     -15.207   6.144  22.321  0.00  0.00    +0.263 C 
ATOM     34  H   UNL     1     -14.555   5.352  20.512  0.00  0.00    +0.149 HD
BRANCH  23  24
ATOM      7  N   UNL     1     -15.665   4.121  23.533  0.00  0.00    -0.250 NA
ATOM     24  C   UNL     1     -16.065   4.954  22.548  0.00  0.00    +0.125 A 
ATOM     26  C   UNL     1     -17.198   4.753  21.774  0.00  0.00    +0.033 A 
ATOM     28  C   UNL     1     -17.968   3.624  22.029  0.00  0.00    +0.004 A 
ATOM     29  C   UNL     1     -16.438   3.034  23.753  0.00  0.00    +0.111 A 
ATOM     31  C   UNL     1     -17.589   2.743  23.036  0.00  0.00    +0.020 A 
ENDBRANCH  23  24
ENDBRANCH  15   5
BRANCH  11   1
ATOM      1  O   UNL     1     -14.220  10.165  17.504  0.00  0.00    -0.391 OA
ATOM     35  H   UNL     1     -14.622  10.106  18.388  0.00  0.00    +0.210 HD
ENDBRANCH  11   1
BRANCH  14  19
ATOM     19  C   UNL     1     -12.009  11.053  15.784  0.00  0.00    +0.077 C 
ATOM     21  C   UNL     1     -11.371  10.082  14.798  0.00  0.00    +0.017 C 
BRANCH  19  22
ATOM      2  O   UNL     1     -11.706  13.371  16.420  0.00  0.00    -0.276 OA
ATOM      6  N   UNL     1     -10.410  12.515  14.696  0.00  0.00    -0.308 N 
ATOM     22  C   UNL     1     -11.377  12.439  15.688  0.00  0.00    +0.217 C 
ATOM     36  H   UNL     1     -10.222  11.701  14.118  0.00  0.00    +0.149 HD
BRANCH   6  25
ATOM     25  C   UNL     1      -9.674  13.725  14.415  0.00  0.00    +0.178 C 
BRANCH  25  27
ATOM      4  O   UNL     1      -7.353  14.447  14.467  0.00  0.00    -0.466 OA
ATOM     27  C   UNL     1      -8.329  13.732  15.085  0.00  0.00    +0.122 A 
ATOM     30  C   UNL     1      -7.849  13.151  16.236  0.00  0.00    +0.046 A 
ATOM     32  C   UNL     1      -6.490  13.532  16.330  0.00  0.00    +0.041 A 
ATOM     33  C   UNL     1      -6.237  14.320  15.230  0.00  0.00    +0.195 A 
ENDBRANCH  25  27
ENDBRANCH   6  25
ENDBRANCH  19  22
ENDBRANCH  14  19
TORSDOF 7
ENDMDL
MODEL 7
REMARK VINA RESULT:      -6.3     18.652     22.127
REMARK  Name = 45361609
REMARK  10 active torsions:
REMARK  status: ('A' for Active; 'I' for Inactive)
REMARK    1  A    between atoms: O_1  and  C_11
REMARK    2  A    between atoms: N_5  and  C_15
REMARK    3  A    between atoms: N_6  and  C_25
REMARK    4  A    between atoms: C_8  and  C_18
REMARK    5  A    between atoms: C_10  and  C_20
REMARK    6  A    between atoms: C_14  and  C_19
REMARK    7  A    between atoms: C_19  and  C_21
REMARK    8  A    between atoms: C_19  and  C_22
REMARK    9  A    between atoms: C_23  and  C_24
REMARK   10  A    between atoms: C_25  and  C_27
REMARK                            x       y       z     vdW  Elec       q    Type
REMARK                         _______ _______ _______ _____ _____    ______ ____
ROOT
ATOM      8  C   UNL     1      -5.141 -10.947  16.875  0.00  0.00    -0.027 C 
ATOM      9  C   UNL     1      -6.196 -10.165  16.023  0.00  0.00    +0.028 C 
ATOM     10  C   UNL     1      -7.622 -10.257  16.677  0.00  0.00    +0.012 C 
ATOM     11  C   UNL     1      -6.123 -10.571  14.523  0.00  0.00    +0.122 C 
ATOM     12  C   UNL     1      -3.734 -10.743  16.267  0.00  0.00    +0.007 C 
ATOM     13  C   UNL     1      -5.122 -10.369  18.309  0.00  0.00    +0.009 C 
ATOM     14  C   UNL     1      -4.691 -10.464  13.948  0.00  0.00    +0.029 C 
ATOM     15  C   UNL     1      -7.575  -9.743  18.144  0.00  0.00    +0.076 C 
ATOM     16  C   UNL     1      -3.647 -11.176  14.809  0.00  0.00    +0.007 C 
ATOM     17  C   UNL     1      -6.485 -10.407  18.986  0.00  0.00    +0.023 C 
ATOM     18  C   UNL     1      -5.440 -12.467  16.941  0.00  0.00    +0.011 C 
ATOM     20  C   UNL     1      -8.705  -9.484  15.905  0.00  0.00    +0.010 C 
ENDROOT
BRANCH  15   5
ATOM      3  O   UNL     1      -8.719 -12.227  19.020  0.00  0.00    -0.269 OA
ATOM      5  N   UNL     1      -8.846  -9.921  18.815  0.00  0.00    -0.307 N 
ATOM     23  C   UNL     1      -9.312 -11.166  19.199  0.00  0.00    +0.263 C 
ATOM     34  H   UNL     1      -9.435  -9.105  18.954  0.00  0.00    +0.149 HD
BRANCH  23  24
ATOM      7  N   UNL     1     -11.081 -12.390  20.272  0.00  0.00    -0.250 NA
ATOM     24  C   UNL     1     -10.646 -11.181  19.853  0.00  0.00    +0.125 A 
ATOM     26  C   UNL     1     -11.361 -10.004  20.005  0.00  0.00    +0.033 A 
ATOM     28  C   UNL     1     -12.603 -10.072  20.627  0.00  0.00    +0.004 A 
ATOM     29  C   UNL     1     -12.292 -12.418  20.872  0.00  0.00    +0.111 A 
ATOM     31  C   UNL     1     -13.085 -11.298  21.072  0.00  0.00    +0.020 A 
ENDBRANCH  23  24
ENDBRANCH  15   5
BRANCH  11   1
ATOM      1  O   UNL     1      -6.940  -9.691  13.750  0.00  0.00    -0.391 OA
ATOM     35  H   UNL     1      -7.112 -10.115  12.892  0.00  0.00    +0.210 HD
ENDBRANCH  11   1
BRANCH  14  19
ATOM     19  C   UNL     1      -4.615 -10.992  12.510  0.00  0.00    +0.077 C 
ATOM     21  C   UNL     1      -3.328 -11.782  12.307  0.00  0.00    +0.017 C 
BRANCH  19  22
ATOM      2  O   UNL     1      -5.272  -8.770  11.804  0.00  0.00    -0.276 OA
ATOM      6  N   UNL     1      -4.123 -10.116  10.303  0.00  0.00    -0.308 N 
ATOM     22  C   UNL     1      -4.717  -9.832  11.524  0.00  0.00    +0.217 C 
ATOM     36  H   UNL     1      -3.711 -11.032  10.150  0.00  0.00    +0.149 HD
BRANCH   6  25
ATOM     25  C   UNL     1      -4.093  -9.173   9.210  0.00  0.00    +0.178 C 
BRANCH  25  27
ATOM      4  O   UNL     1      -5.206  -9.959   7.197  0.00  0.00    -0.466 OA
ATOM     27  C   UNL     1      -5.327  -9.263   8.358  0.00  0.00    +0.122 A 
ATOM     30  C   UNL     1      -6.606  -8.778   8.500  0.00  0.00    +0.046 A 
ATOM     32  C   UNL     1      -7.317  -9.201   7.353  0.00  0.00    +0.041 A 
ATOM     33  C   UNL     1      -6.421  -9.916   6.591  0.00  0.00    +0.195 A 
ENDBRANCH  25  27
ENDBRANCH   6  25
ENDBRANCH  19  22
ENDBRANCH  14  19
TORSDOF 7
ENDMDL
MODEL 8
REMARK VINA RESULT:      -6.2     20.615     23.258
REMARK  Name = 45361609
REMARK  10 active torsions:
REMARK  status: ('A' for Active; 'I' for Inactive)
REMARK    1  A    between atoms: O_1  and  C_11
REMARK    2  A    between atoms: N_5  and  C_15
REMARK    3  A    between atoms: N_6  and  C_25
REMARK    4  A    between atoms: C_8  and  C_18
REMARK    5  A    between atoms: C_10  and  C_20
REMARK    6  A    between atoms: C_14  and  C_19
REMARK    7  A    between atoms: C_19  and  C_21
REMARK    8  A    between atoms: C_19  and  C_22
REMARK    9  A    between atoms: C_23  and  C_24
REMARK   10  A    between atoms: C_25  and  C_27
REMARK                            x       y       z     vdW  Elec       q    Type
REMARK                         _______ _______ _______ _____ _____    ______ ____
ROOT
ATOM      8  C   UNL     1      -2.959 -11.036  14.686  0.00  0.00    -0.027 C 
ATOM      9  C   UNL     1      -4.344 -10.539  14.154  0.00  0.00    +0.028 C 
ATOM     10  C   UNL     1      -5.520 -11.147  15.000  0.00  0.00    +0.012 C 
ATOM     11  C   UNL     1      -4.459 -10.733  12.614  0.00  0.00    +0.122 C 
ATOM     12  C   UNL     1      -1.823 -10.334  13.906  0.00  0.00    +0.007 C 
ATOM     13  C   UNL     1      -2.821 -10.644  16.176  0.00  0.00    +0.009 C 
ATOM     14  C   UNL     1      -3.266 -10.116  11.847  0.00  0.00    +0.029 C 
ATOM     15  C   UNL     1      -5.330 -10.810  16.506  0.00  0.00    +0.076 C 
ATOM     16  C   UNL     1      -1.910 -10.553  12.402  0.00  0.00    +0.007 C 
ATOM     17  C   UNL     1      -3.949 -11.185  17.043  0.00  0.00    +0.023 C 
ATOM     18  C   UNL     1      -2.784 -12.570  14.544  0.00  0.00    +0.011 C 
ATOM     20  C   UNL     1      -6.912 -10.675  14.548  0.00  0.00    +0.010 C 
ENDROOT
BRANCH  15   5
ATOM      3  O   UNL     1      -7.318  -9.506  18.116  0.00  0.00    -0.269 OA
ATOM      5  N   UNL     1      -6.333 -11.452  17.330  0.00  0.00    -0.307 N 
ATOM     23  C   UNL     1      -7.251 -10.731  18.074  0.00  0.00    +0.263 C 
ATOM     34  H   UNL     1      -6.318 -12.465  17.405  0.00  0.00    +0.149 HD
BRANCH  23  24
ATOM      7  N   UNL     1      -9.299 -10.889  19.322  0.00  0.00    -0.250 NA
ATOM     24  C   UNL     1      -8.197 -11.539  18.887  0.00  0.00    +0.125 A 
ATOM     26  C   UNL     1      -7.925 -12.871  19.154  0.00  0.00    +0.033 A 
ATOM     28  C   UNL     1      -8.844 -13.582  19.918  0.00  0.00    +0.004 A 
ATOM     29  C   UNL     1     -10.169 -11.612  20.061  0.00  0.00    +0.111 A 
ATOM     31  C   UNL     1      -9.990 -12.949  20.384  0.00  0.00    +0.020 A 
ENDBRANCH  23  24
ENDBRANCH  15   5
BRANCH  11   1
ATOM      1  O   UNL     1      -5.634 -10.076  12.138  0.00  0.00    -0.391 OA
ATOM     35  H   UNL     1      -6.116  -9.723  12.905  0.00  0.00    +0.210 HD
ENDBRANCH  11   1
BRANCH  14  19
ATOM     19  C   UNL     1      -3.331 -10.432  10.347  0.00  0.00    +0.077 C 
ATOM     21  C   UNL     1      -3.932  -9.255   9.588  0.00  0.00    +0.017 C 
BRANCH  19  22
ATOM      2  O   UNL     1      -5.270 -11.705   9.649  0.00  0.00    -0.276 OA
ATOM      6  N   UNL     1      -3.441 -12.849  10.502  0.00  0.00    -0.308 N 
ATOM     22  C   UNL     1      -4.134 -11.709  10.120  0.00  0.00    +0.217 C 
ATOM     36  H   UNL     1      -2.514 -12.757  10.909  0.00  0.00    +0.149 HD
BRANCH   6  25
ATOM     25  C   UNL     1      -3.995 -14.177  10.383  0.00  0.00    +0.178 C 
BRANCH  25  27
ATOM      4  O   UNL     1      -3.866 -15.732  12.247  0.00  0.00    -0.466 OA
ATOM     27  C   UNL     1      -4.528 -14.682  11.693  0.00  0.00    +0.122 A 
ATOM     30  C   UNL     1      -5.581 -14.299  12.491  0.00  0.00    +0.046 A 
ATOM     32  C   UNL     1      -5.567 -15.170  13.606  0.00  0.00    +0.041 A 
ATOM     33  C   UNL     1      -4.505 -16.023  13.410  0.00  0.00    +0.195 A 
ENDBRANCH  25  27
ENDBRANCH   6  25
ENDBRANCH  19  22
ENDBRANCH  14  19
TORSDOF 7
ENDMDL
MODEL 9
REMARK VINA RESULT:      -6.2     16.018     18.700
REMARK  Name = 45361609
REMARK  10 active torsions:
REMARK  status: ('A' for Active; 'I' for Inactive)
REMARK    1  A    between atoms: O_1  and  C_11
REMARK    2  A    between atoms: N_5  and  C_15
REMARK    3  A    between atoms: N_6  and  C_25
REMARK    4  A    between atoms: C_8  and  C_18
REMARK    5  A    between atoms: C_10  and  C_20
REMARK    6  A    between atoms: C_14  and  C_19
REMARK    7  A    between atoms: C_19  and  C_21
REMARK    8  A    between atoms: C_19  and  C_22
REMARK    9  A    between atoms: C_23  and  C_24
REMARK   10  A    between atoms: C_25  and  C_27
REMARK                            x       y       z     vdW  Elec       q    Type
REMARK                         _______ _______ _______ _____ _____    ______ ____
ROOT
ATOM      8  C   UNL     1     -11.394  -9.346  13.778  0.00  0.00    -0.027 C 
ATOM      9  C   UNL     1     -11.113  -8.196  14.801  0.00  0.00    +0.028 C 
ATOM     10  C   UNL     1     -10.225  -8.710  15.991  0.00  0.00    +0.012 C 
ATOM     11  C   UNL     1     -12.429  -7.475  15.214  0.00  0.00    +0.122 C 
ATOM     12  C   UNL     1     -12.174  -8.781  12.567  0.00  0.00    +0.007 C 
ATOM     13  C   UNL     1     -10.047  -9.896  13.255  0.00  0.00    +0.009 C 
ATOM     14  C   UNL     1     -13.256  -7.003  13.995  0.00  0.00    +0.029 C 
ATOM     15  C   UNL     1      -8.906  -9.329  15.448  0.00  0.00    +0.076 C 
ATOM     16  C   UNL     1     -13.482  -8.108  12.963  0.00  0.00    +0.007 C 
ATOM     17  C   UNL     1      -9.130 -10.386  14.367  0.00  0.00    +0.023 C 
ATOM     18  C   UNL     1     -12.213 -10.507  14.399  0.00  0.00    +0.011 C 
ATOM     20  C   UNL     1      -9.886  -7.621  17.022  0.00  0.00    +0.010 C 
ENDROOT
BRANCH  15   5
ATOM      3  O   UNL     1      -6.041  -9.476  15.568  0.00  0.00    -0.269 OA
ATOM      5  N   UNL     1      -8.114  -9.918  16.508  0.00  0.00    -0.307 N 
ATOM     23  C   UNL     1      -6.730  -9.940  16.472  0.00  0.00    +0.263 C 
ATOM     34  H   UNL     1      -8.599 -10.380  17.272  0.00  0.00    +0.149 HD
BRANCH  23  24
ATOM      7  N   UNL     1      -6.835 -10.780  18.721  0.00  0.00    -0.250 NA
ATOM     24  C   UNL     1      -6.067 -10.604  17.624  0.00  0.00    +0.125 A 
ATOM     26  C   UNL     1      -4.743 -11.002  17.532  0.00  0.00    +0.033 A 
ATOM     28  C   UNL     1      -4.170 -11.621  18.637  0.00  0.00    +0.004 A 
ATOM     29  C   UNL     1      -6.245 -11.385  19.777  0.00  0.00    +0.111 A 
ATOM     31  C   UNL     1      -4.929 -11.820  19.785  0.00  0.00    +0.020 A 
ENDBRANCH  23  24
ENDBRANCH  15   5
BRANCH  11   1
ATOM      1  O   UNL     1     -12.114  -6.306  15.971  0.00  0.00    -0.391 OA
ATOM     35  H   UNL     1     -12.647  -6.320  16.785  0.00  0.00    +0.210 HD
ENDBRANCH  11   1
BRANCH  14  19
ATOM     19  C   UNL     1     -14.607  -6.414  14.418  0.00  0.00    +0.077 C 
ATOM     21  C   UNL     1     -15.614  -7.531  14.663  0.00  0.00    +0.017 C 
BRANCH  19  22
ATOM      2  O   UNL     1     -16.145  -5.620  12.724  0.00  0.00    -0.276 OA
ATOM      6  N   UNL     1     -14.259  -4.352  13.191  0.00  0.00    -0.308 N 
ATOM     22  C   UNL     1     -15.105  -5.439  13.355  0.00  0.00    +0.217 C 
ATOM     36  H   UNL     1     -13.403  -4.298  13.737  0.00  0.00    +0.149 HD
BRANCH   6  25
ATOM     25  C   UNL     1     -14.519  -3.296  12.241  0.00  0.00    +0.178 C 
BRANCH  25  27
ATOM      4  O   UNL     1     -12.282  -3.440  11.301  0.00  0.00    -0.466 OA
ATOM     27  C   UNL     1     -13.615  -3.382  11.045  0.00  0.00    +0.122 A 
ATOM     30  C   UNL     1     -13.850  -3.420   9.690  0.00  0.00    +0.046 A 
ATOM     32  C   UNL     1     -12.579  -3.504   9.073  0.00  0.00    +0.041 A 
ATOM     33  C   UNL     1     -11.658  -3.513  10.096  0.00  0.00    +0.195 A 
ENDBRANCH  25  27
ENDBRANCH   6  25
ENDBRANCH  19  22
ENDBRANCH  14  19
TORSDOF 7
ENDMDL
MODEL 10
REMARK VINA RESULT:      -6.1      3.703     11.006
REMARK  Name = 45361609
REMARK  10 active torsions:
REMARK  status: ('A' for Active; 'I' for Inactive)
REMARK    1  A    between atoms: O_1  and  C_11
REMARK    2  A    between atoms: N_5  and  C_15
REMARK    3  A    between atoms: N_6  and  C_25
REMARK    4  A    between atoms: C_8  and  C_18
REMARK    5  A    between atoms: C_10  and  C_20
REMARK    6  A    between atoms: C_14  and  C_19
REMARK    7  A    between atoms: C_19  and  C_21
REMARK    8  A    between atoms: C_19  and  C_22
REMARK    9  A    between atoms: C_23  and  C_24
REMARK   10  A    between atoms: C_25  and  C_27
REMARK                            x       y       z     vdW  Elec       q    Type
REMARK                         _______ _______ _______ _____ _____    ______ ____
ROOT
ATOM      8  C   UNL     1     -11.067   8.430  18.611  0.00  0.00    -0.027 C 
ATOM      9  C   UNL     1     -12.562   8.761  18.289  0.00  0.00    +0.028 C 
ATOM     10  C   UNL     1     -13.522   7.689  18.922  0.00  0.00    +0.012 C 
ATOM     11  C   UNL     1     -12.766   9.026  16.770  0.00  0.00    +0.122 C 
ATOM     12  C   UNL     1     -10.160   9.561  18.072  0.00  0.00    +0.007 C 
ATOM     13  C   UNL     1     -10.883   8.369  20.145  0.00  0.00    +0.009 C 
ATOM     14  C   UNL     1     -11.786  10.085  16.213  0.00  0.00    +0.029 C 
ATOM     15  C   UNL     1     -13.274   7.583  20.453  0.00  0.00    +0.076 C 
ATOM     16  C   UNL     1     -10.329   9.797  16.577  0.00  0.00    +0.007 C 
ATOM     17  C   UNL     1     -11.807   7.364  20.818  0.00  0.00    +0.023 C 
ATOM     18  C   UNL     1     -10.609   7.085  17.989  0.00  0.00    +0.011 C 
ATOM     20  C   UNL     1     -15.012   7.970  18.668  0.00  0.00    +0.010 C 
ENDROOT
BRANCH  15   5
ATOM      3  O   UNL     1     -14.619   7.667  22.988  0.00  0.00    -0.269 OA
ATOM      5  N   UNL     1     -14.060   6.523  21.051  0.00  0.00    -0.307 N 
ATOM     23  C   UNL     1     -14.671   6.662  22.285  0.00  0.00    +0.263 C 
ATOM     34  H   UNL     1     -14.110   5.631  20.568  0.00  0.00    +0.149 HD
BRANCH  23  24
ATOM      7  N   UNL     1     -14.890   4.846  23.844  0.00  0.00    -0.250 NA
ATOM     24  C   UNL     1     -15.418   5.473  22.770  0.00  0.00    +0.125 A 
ATOM     26  C   UNL     1     -16.581   5.071  22.131  0.00  0.00    +0.033 A 
ATOM     28  C   UNL     1     -17.243   3.954  22.627  0.00  0.00    +0.004 A 
ATOM     29  C   UNL     1     -15.561   3.764  24.299  0.00  0.00    +0.111 A 
ATOM     31  C   UNL     1     -16.731   3.282  23.731  0.00  0.00    +0.020 A 
ENDBRANCH  23  24
ENDBRANCH  15   5
BRANCH  11   1
ATOM      1  O   UNL     1     -14.083   9.532  16.547  0.00  0.00    -0.391 OA
ATOM     35  H   UNL     1     -14.004  10.399  16.114  0.00  0.00    +0.210 HD
ENDBRANCH  11   1
BRANCH  14  19
ATOM     19  C   UNL     1     -11.914  10.235  14.693  0.00  0.00    +0.077 C 
ATOM     21  C   UNL     1     -13.042  11.202  14.354  0.00  0.00    +0.017 C 
BRANCH  19  22
ATOM      2  O   UNL     1     -11.238   8.047  13.904  0.00  0.00    -0.276 OA
ATOM      6  N   UNL     1     -13.459   8.674  13.667  0.00  0.00    -0.308 N 
ATOM     22  C   UNL     1     -12.141   8.869  14.053  0.00  0.00    +0.217 C 
ATOM     36  H   UNL     1     -14.135   9.420  13.803  0.00  0.00    +0.149 HD
BRANCH   6  25
ATOM     25  C   UNL     1     -13.917   7.457  13.038  0.00  0.00    +0.178 C 
BRANCH  25  27
ATOM      4  O   UNL     1     -15.325   7.334  15.016  0.00  0.00    -0.466 OA
ATOM     27  C   UNL     1     -15.078   6.848  13.771  0.00  0.00    +0.122 A 
ATOM     30  C   UNL     1     -15.987   5.868  13.445  0.00  0.00    +0.046 A 
ATOM     32  C   UNL     1     -16.846   5.742  14.562  0.00  0.00    +0.041 A 
ATOM     33  C   UNL     1     -16.401   6.655  15.491  0.00  0.00    +0.195 A 
ENDBRANCH  25  27
ENDBRANCH   6  25
ENDBRANCH  19  22
ENDBRANCH  14  19
TORSDOF 7
ENDMDL
