MODEL 1
REMARK VINA RESULT:      -7.4      0.000      0.000
REMARK  Name = 51137482
REMARK  8 active torsions:
REMARK  status: ('A' for Active; 'I' for Inactive)
REMARK    1  A    between atoms: S_1  and  C_21
REMARK    2  A    between atoms: S_1  and  C_25
REMARK    3  A    between atoms: O_5  and  C_23
REMARK    4  A    between atoms: O_5  and  C_29
REMARK    5  A    between atoms: N_6  and  C_13
REMARK    6  A    between atoms: C_9  and  C_14
REMARK    7  A    between atoms: C_13  and  C_15
REMARK    8  A    between atoms: C_18  and  C_22
REMARK                            x       y       z     vdW  Elec       q    Type
REMARK                         _______ _______ _______ _____ _____    ______ ____
ROOT
ATOM      6  N   UNL     1      15.601   7.444  20.706  0.00  0.00    -0.297 NA
ATOM      9  C   UNL     1      13.361   7.283  21.381  0.00  0.00    +0.092 C 
ATOM     10  C   UNL     1      13.456   7.080  19.858  0.00  0.00    +0.029 C 
ATOM     11  C   UNL     1      14.710   7.898  21.776  0.00  0.00    +0.097 C 
ATOM     12  C   UNL     1      14.829   7.614  19.475  0.00  0.00    +0.085 C 
ENDROOT
BRANCH   9  14
ATOM      2  O   UNL     1      12.456   9.311  22.412  0.00  0.00    -0.420 OA
ATOM      7  N   UNL     1      10.898   7.838  21.776  0.00  0.00    -0.112 NA
ATOM      8  N   UNL     1      10.254   8.925  22.338  0.00  0.00    -0.107 NA
ATOM     14  C   UNL     1      12.180   8.107  21.840  0.00  0.00    +0.222 A 
ATOM     18  C   UNL     1      11.202   9.759  22.695  0.00  0.00    +0.252 A 
BRANCH  18  22
ATOM     22  C   UNL     1      11.122  11.046  23.323  0.00  0.00    +0.080 A 
ATOM     23  C   UNL     1      11.170  12.216  22.567  0.00  0.00    +0.132 A 
ATOM     24  C   UNL     1      10.996  11.117  24.710  0.00  0.00    +0.017 A 
ATOM     26  C   UNL     1      11.092  13.458  23.198  0.00  0.00    +0.046 A 
ATOM     27  C   UNL     1      10.918  12.358  25.341  0.00  0.00    +0.001 A 
ATOM     28  C   UNL     1      10.965  13.528  24.585  0.00  0.00    +0.004 A 
BRANCH  23   5
ATOM      5  O   UNL     1      11.293  12.177  21.209  0.00  0.00    -0.494 OA
ATOM     29  C   UNL     1      12.563  12.527  20.664  0.00  0.00    +0.277 C 
ENDBRANCH  23   5
ENDBRANCH  18  22
ENDBRANCH   9  14
BRANCH   6  13
ATOM     13  C   UNL     1      16.857   8.180  20.679  0.00  0.00    +0.119 C 
BRANCH  13  15
ATOM     15  C   UNL     1      18.041   7.273  20.881  0.00  0.00    -0.033 A 
ATOM     16  C   UNL     1      18.255   6.201  20.014  0.00  0.00    +0.007 A 
ATOM     17  C   UNL     1      18.924   7.502  21.937  0.00  0.00    +0.007 A 
ATOM     19  C   UNL     1      19.352   5.359  20.202  0.00  0.00    +0.027 A 
ATOM     20  C   UNL     1      20.020   6.661  22.125  0.00  0.00    +0.027 A 
ATOM     21  C   UNL     1      20.234   5.589  21.257  0.00  0.00    +0.088 A 
BRANCH  21   1
ATOM      1  S   UNL     1      21.607   4.536  21.491  0.00  0.00    -0.006 S 
ATOM      3  O   UNL     1      21.982   4.556  22.899  0.00  0.00    -0.170 OA
ATOM      4  O   UNL     1      21.316   3.268  20.839  0.00  0.00    -0.170 OA
ATOM     25  C   UNL     1      22.925   5.323  20.593  0.00  0.00    +0.200 C 
ENDBRANCH  21   1
ENDBRANCH  13  15
ENDBRANCH   6  13
TORSDOF 6
ENDMDL
MODEL 2
REMARK VINA RESULT:      -7.2      3.853     11.100
REMARK  Name = 51137482
REMARK  8 active torsions:
REMARK  status: ('A' for Active; 'I' for Inactive)
REMARK    1  A    between atoms: S_1  and  C_21
REMARK    2  A    between atoms: S_1  and  C_25
REMARK    3  A    between atoms: O_5  and  C_23
REMARK    4  A    between atoms: O_5  and  C_29
REMARK    5  A    between atoms: N_6  and  C_13
REMARK    6  A    between atoms: C_9  and  C_14
REMARK    7  A    between atoms: C_13  and  C_15
REMARK    8  A    between atoms: C_18  and  C_22
REMARK                            x       y       z     vdW  Elec       q    Type
REMARK                         _______ _______ _______ _____ _____    ______ ____
ROOT
ATOM      6  N   UNL     1      18.151   7.302  21.500  0.00  0.00    -0.297 NA
ATOM      9  C   UNL     1      19.954   6.840  22.926  0.00  0.00    +0.092 C 
ATOM     10  C   UNL     1      19.868   8.357  22.678  0.00  0.00    +0.029 C 
ATOM     11  C   UNL     1      19.077   6.218  21.830  0.00  0.00    +0.097 C 
ATOM     12  C   UNL     1      18.980   8.506  21.451  0.00  0.00    +0.085 C 
ENDROOT
BRANCH   9  14
ATOM      2  O   UNL     1      21.504   4.978  22.573  0.00  0.00    -0.420 OA
ATOM      7  N   UNL     1      22.485   6.858  23.282  0.00  0.00    -0.112 NA
ATOM      8  N   UNL     1      23.466   5.898  23.127  0.00  0.00    -0.107 NA
ATOM     14  C   UNL     1      21.356   6.278  22.948  0.00  0.00    +0.222 A 
ATOM     18  C   UNL     1      22.848   4.817  22.712  0.00  0.00    +0.252 A 
BRANCH  18  22
ATOM     22  C   UNL     1      23.362   3.518  22.387  0.00  0.00    +0.080 A 
ATOM     23  C   UNL     1      23.866   3.245  21.116  0.00  0.00    +0.132 A 
ATOM     24  C   UNL     1      23.351   2.520  23.362  0.00  0.00    +0.017 A 
ATOM     26  C   UNL     1      24.361   1.974  20.820  0.00  0.00    +0.046 A 
ATOM     27  C   UNL     1      23.845   1.250  23.066  0.00  0.00    +0.001 A 
ATOM     28  C   UNL     1      24.349   0.977  21.795  0.00  0.00    +0.004 A 
BRANCH  23   5
ATOM      5  O   UNL     1      23.890   4.200  20.143  0.00  0.00    -0.494 OA
ATOM     29  C   UNL     1      25.168   4.700  19.757  0.00  0.00    +0.277 C 
ENDBRANCH  23   5
ENDBRANCH  18  22
ENDBRANCH   9  14
BRANCH   6  13
ATOM     13  C   UNL     1      17.442   7.066  20.251  0.00  0.00    +0.119 C 
BRANCH  13  15
ATOM     15  C   UNL     1      15.949   7.156  20.428  0.00  0.00    -0.033 A 
ATOM     16  C   UNL     1      15.103   6.915  19.345  0.00  0.00    +0.007 A 
ATOM     17  C   UNL     1      15.412   7.481  21.674  0.00  0.00    +0.007 A 
ATOM     19  C   UNL     1      13.720   6.998  19.509  0.00  0.00    +0.027 A 
ATOM     20  C   UNL     1      14.030   7.565  21.838  0.00  0.00    +0.027 A 
ATOM     21  C   UNL     1      13.184   7.323  20.755  0.00  0.00    +0.088 A 
BRANCH  21   1
ATOM      1  S   UNL     1      11.453   7.427  20.959  0.00  0.00    -0.006 S 
ATOM      3  O   UNL     1      10.890   8.168  19.839  0.00  0.00    -0.170 OA
ATOM      4  O   UNL     1      10.957   6.093  21.265  0.00  0.00    -0.170 OA
ATOM     25  C   UNL     1      11.238   8.436  22.408  0.00  0.00    +0.200 C 
ENDBRANCH  21   1
ENDBRANCH  13  15
ENDBRANCH   6  13
TORSDOF 6
ENDMDL
MODEL 3
REMARK VINA RESULT:      -7.1      3.852     11.208
REMARK  Name = 51137482
REMARK  8 active torsions:
REMARK  status: ('A' for Active; 'I' for Inactive)
REMARK    1  A    between atoms: S_1  and  C_21
REMARK    2  A    between atoms: S_1  and  C_25
REMARK    3  A    between atoms: O_5  and  C_23
REMARK    4  A    between atoms: O_5  and  C_29
REMARK    5  A    between atoms: N_6  and  C_13
REMARK    6  A    between atoms: C_9  and  C_14
REMARK    7  A    between atoms: C_13  and  C_15
REMARK    8  A    between atoms: C_18  and  C_22
REMARK                            x       y       z     vdW  Elec       q    Type
REMARK                         _______ _______ _______ _____ _____    ______ ____
ROOT
ATOM      6  N   UNL     1      18.067   7.377  21.552  0.00  0.00    -0.297 NA
ATOM      9  C   UNL     1      19.887   6.706  22.870  0.00  0.00    +0.092 C 
ATOM     10  C   UNL     1      19.755   8.239  22.916  0.00  0.00    +0.029 C 
ATOM     11  C   UNL     1      19.027   6.278  21.673  0.00  0.00    +0.097 C 
ATOM     12  C   UNL     1      18.860   8.593  21.737  0.00  0.00    +0.085 C 
ENDROOT
BRANCH   9  14
ATOM      2  O   UNL     1      21.465   4.868  22.522  0.00  0.00    -0.420 OA
ATOM      7  N   UNL     1      22.438   6.836  22.947  0.00  0.00    -0.112 NA
ATOM      8  N   UNL     1      23.436   5.896  22.773  0.00  0.00    -0.107 NA
ATOM     14  C   UNL     1      21.305   6.192  22.791  0.00  0.00    +0.222 A 
ATOM     18  C   UNL     1      22.822   4.762  22.527  0.00  0.00    +0.252 A 
BRANCH  18  22
ATOM     22  C   UNL     1      23.351   3.455  22.267  0.00  0.00    +0.080 A 
ATOM     23  C   UNL     1      23.474   2.516  23.290  0.00  0.00    +0.132 A 
ATOM     24  C   UNL     1      23.747   3.128  20.970  0.00  0.00    +0.017 A 
ATOM     26  C   UNL     1      23.992   1.249  23.017  0.00  0.00    +0.046 A 
ATOM     27  C   UNL     1      24.265   1.862  20.697  0.00  0.00    +0.001 A 
ATOM     28  C   UNL     1      24.388   0.923  21.720  0.00  0.00    +0.004 A 
BRANCH  23   5
ATOM      5  O   UNL     1      23.094   2.807  24.568  0.00  0.00    -0.494 OA
ATOM     29  C   UNL     1      22.497   1.754  25.321  0.00  0.00    +0.277 C 
ENDBRANCH  23   5
ENDBRANCH  18  22
ENDBRANCH   9  14
BRANCH   6  13
ATOM     13  C   UNL     1      17.364   7.363  20.277  0.00  0.00    +0.119 C 
BRANCH  13  15
ATOM     15  C   UNL     1      15.870   7.370  20.463  0.00  0.00    -0.033 A 
ATOM     16  C   UNL     1      15.036   6.973  19.417  0.00  0.00    +0.007 A 
ATOM     17  C   UNL     1      15.318   7.775  21.678  0.00  0.00    +0.007 A 
ATOM     19  C   UNL     1      13.651   6.980  19.588  0.00  0.00    +0.027 A 
ATOM     20  C   UNL     1      13.935   7.783  21.849  0.00  0.00    +0.027 A 
ATOM     21  C   UNL     1      13.101   7.385  20.804  0.00  0.00    +0.088 A 
BRANCH  21   1
ATOM      1  S   UNL     1      11.368   7.394  21.017  0.00  0.00    -0.006 S 
ATOM      3  O   UNL     1      10.760   8.117  19.909  0.00  0.00    -0.170 OA
ATOM      4  O   UNL     1      10.945   6.031  21.309  0.00  0.00    -0.170 OA
ATOM     25  C   UNL     1      11.107   8.372  22.479  0.00  0.00    +0.200 C 
ENDBRANCH  21   1
ENDBRANCH  13  15
ENDBRANCH   6  13
TORSDOF 6
ENDMDL
MODEL 4
REMARK VINA RESULT:      -6.9     28.218     31.541
REMARK  Name = 51137482
REMARK  8 active torsions:
REMARK  status: ('A' for Active; 'I' for Inactive)
REMARK    1  A    between atoms: S_1  and  C_21
REMARK    2  A    between atoms: S_1  and  C_25
REMARK    3  A    between atoms: O_5  and  C_23
REMARK    4  A    between atoms: O_5  and  C_29
REMARK    5  A    between atoms: N_6  and  C_13
REMARK    6  A    between atoms: C_9  and  C_14
REMARK    7  A    between atoms: C_13  and  C_15
REMARK    8  A    between atoms: C_18  and  C_22
REMARK                            x       y       z     vdW  Elec       q    Type
REMARK                         _______ _______ _______ _____ _____    ______ ____
ROOT
ATOM      6  N   UNL     1     -16.899   3.335  26.234  0.00  0.00    -0.297 NA
ATOM      9  C   UNL     1     -16.463   4.929  24.570  0.00  0.00    +0.092 C 
ATOM     10  C   UNL     1     -17.983   4.736  24.713  0.00  0.00    +0.029 C 
ATOM     11  C   UNL     1     -15.849   3.720  25.289  0.00  0.00    +0.097 C 
ATOM     12  C   UNL     1     -18.144   3.427  25.472  0.00  0.00    +0.085 C 
ENDROOT
BRANCH   9  14
ATOM      2  O   UNL     1     -14.964   5.971  22.939  0.00  0.00    -0.420 OA
ATOM      7  N   UNL     1     -16.375   4.477  22.056  0.00  0.00    -0.112 NA
ATOM      8  N   UNL     1     -15.595   4.983  21.033  0.00  0.00    -0.107 NA
ATOM     14  C   UNL     1     -15.972   5.081  23.149  0.00  0.00    +0.222 A 
ATOM     18  C   UNL     1     -14.787   5.851  21.595  0.00  0.00    +0.252 A 
BRANCH  18  22
ATOM     22  C   UNL     1     -13.764   6.676  21.020  0.00  0.00    +0.080 A 
ATOM     23  C   UNL     1     -14.092   7.796  20.258  0.00  0.00    +0.132 A 
ATOM     24  C   UNL     1     -12.426   6.345  21.232  0.00  0.00    +0.017 A 
ATOM     26  C   UNL     1     -13.082   8.586  19.707  0.00  0.00    +0.046 A 
ATOM     27  C   UNL     1     -11.416   7.133  20.681  0.00  0.00    +0.001 A 
ATOM     28  C   UNL     1     -11.744   8.253  19.919  0.00  0.00    +0.004 A 
BRANCH  23   5
ATOM      5  O   UNL     1     -15.391   8.145  20.034  0.00  0.00    -0.494 OA
ATOM     29  C   UNL     1     -15.843   9.366  20.616  0.00  0.00    +0.277 C 
ENDBRANCH  23   5
ENDBRANCH  18  22
ENDBRANCH   9  14
BRANCH   6  13
ATOM     13  C   UNL     1     -16.686   2.007  26.792  0.00  0.00    +0.119 C 
BRANCH  13  15
ATOM     15  C   UNL     1     -16.137   2.070  28.192  0.00  0.00    -0.033 A 
ATOM     16  C   UNL     1     -16.027   0.903  28.950  0.00  0.00    +0.007 A 
ATOM     17  C   UNL     1     -15.740   3.292  28.733  0.00  0.00    +0.007 A 
ATOM     19  C   UNL     1     -15.520   0.960  30.249  0.00  0.00    +0.027 A 
ATOM     20  C   UNL     1     -15.232   3.350  30.031  0.00  0.00    +0.027 A 
ATOM     21  C   UNL     1     -15.122   2.184  30.789  0.00  0.00    +0.088 A 
BRANCH  21   1
ATOM      1  S   UNL     1     -14.486   2.254  32.413  0.00  0.00    -0.006 S 
ATOM      3  O   UNL     1     -14.822   1.017  33.105  0.00  0.00    -0.170 OA
ATOM      4  O   UNL     1     -13.097   2.682  32.332  0.00  0.00    -0.170 OA
ATOM     25  C   UNL     1     -15.414   3.554  33.195  0.00  0.00    +0.200 C 
ENDBRANCH  21   1
ENDBRANCH  13  15
ENDBRANCH   6  13
TORSDOF 6
ENDMDL
MODEL 5
REMARK VINA RESULT:      -6.8     28.236     31.765
REMARK  Name = 51137482
REMARK  8 active torsions:
REMARK  status: ('A' for Active; 'I' for Inactive)
REMARK    1  A    between atoms: S_1  and  C_21
REMARK    2  A    between atoms: S_1  and  C_25
REMARK    3  A    between atoms: O_5  and  C_23
REMARK    4  A    between atoms: O_5  and  C_29
REMARK    5  A    between atoms: N_6  and  C_13
REMARK    6  A    between atoms: C_9  and  C_14
REMARK    7  A    between atoms: C_13  and  C_15
REMARK    8  A    between atoms: C_18  and  C_22
REMARK                            x       y       z     vdW  Elec       q    Type
REMARK                         _______ _______ _______ _____ _____    ______ ____
ROOT
ATOM      6  N   UNL     1     -16.493   4.294  24.035  0.00  0.00    -0.297 NA
ATOM      9  C   UNL     1     -16.492   2.255  25.192  0.00  0.00    +0.092 C 
ATOM     10  C   UNL     1     -17.696   2.303  24.234  0.00  0.00    +0.029 C 
ATOM     11  C   UNL     1     -16.015   3.710  25.290  0.00  0.00    +0.097 C 
ATOM     12  C   UNL     1     -17.849   3.773  23.869  0.00  0.00    +0.085 C 
ENDROOT
BRANCH   9  14
ATOM      2  O   UNL     1     -16.066   2.113  27.599  0.00  0.00    -0.420 OA
ATOM      7  N   UNL     1     -17.624   0.688  26.864  0.00  0.00    -0.112 NA
ATOM      8  N   UNL     1     -17.484   0.502  28.227  0.00  0.00    -0.107 NA
ATOM     14  C   UNL     1     -16.778   1.637  26.541  0.00  0.00    +0.222 A 
ATOM     18  C   UNL     1     -16.565   1.355  28.612  0.00  0.00    +0.252 A 
BRANCH  18  22
ATOM     22  C   UNL     1     -16.016   1.606  29.914  0.00  0.00    +0.080 A 
ATOM     23  C   UNL     1     -15.228   0.650  30.555  0.00  0.00    +0.132 A 
ATOM     24  C   UNL     1     -16.280   2.824  30.539  0.00  0.00    +0.017 A 
ATOM     26  C   UNL     1     -14.705   0.913  31.821  0.00  0.00    +0.046 A 
ATOM     27  C   UNL     1     -15.757   3.087  31.804  0.00  0.00    +0.001 A 
ATOM     28  C   UNL     1     -14.970   2.132  32.445  0.00  0.00    +0.004 A 
BRANCH  23   5
ATOM      5  O   UNL     1     -14.953  -0.550  29.969  0.00  0.00    -0.494 OA
ATOM     29  C   UNL     1     -13.620  -0.754  29.507  0.00  0.00    +0.277 C 
ENDBRANCH  23   5
ENDBRANCH  18  22
ENDBRANCH   9  14
BRANCH   6  13
ATOM     13  C   UNL     1     -16.456   5.750  24.050  0.00  0.00    +0.119 C 
BRANCH  13  15
ATOM     15  C   UNL     1     -15.437   6.294  23.085  0.00  0.00    -0.033 A 
ATOM     16  C   UNL     1     -15.431   7.653  22.771  0.00  0.00    +0.007 A 
ATOM     17  C   UNL     1     -14.499   5.440  22.504  0.00  0.00    +0.007 A 
ATOM     19  C   UNL     1     -14.487   8.158  21.876  0.00  0.00    +0.027 A 
ATOM     20  C   UNL     1     -13.556   5.944  21.609  0.00  0.00    +0.027 A 
ATOM     21  C   UNL     1     -13.550   7.304  21.295  0.00  0.00    +0.088 A 
BRANCH  21   1
ATOM      1  S   UNL     1     -12.369   7.936  20.176  0.00  0.00    -0.006 S 
ATOM      3  O   UNL     1     -11.058   7.405  20.524  0.00  0.00    -0.170 OA
ATOM      4  O   UNL     1     -12.887   7.756  18.827  0.00  0.00    -0.170 OA
ATOM     25  C   UNL     1     -12.327   9.681  20.517  0.00  0.00    +0.200 C 
ENDBRANCH  21   1
ENDBRANCH  13  15
ENDBRANCH   6  13
TORSDOF 6
ENDMDL
MODEL 6
REMARK VINA RESULT:      -6.7      3.532      5.186
REMARK  Name = 51137482
REMARK  8 active torsions:
REMARK  status: ('A' for Active; 'I' for Inactive)
REMARK    1  A    between atoms: S_1  and  C_21
REMARK    2  A    between atoms: S_1  and  C_25
REMARK    3  A    between atoms: O_5  and  C_23
REMARK    4  A    between atoms: O_5  and  C_29
REMARK    5  A    between atoms: N_6  and  C_13
REMARK    6  A    between atoms: C_9  and  C_14
REMARK    7  A    between atoms: C_13  and  C_15
REMARK    8  A    between atoms: C_18  and  C_22
REMARK                            x       y       z     vdW  Elec       q    Type
REMARK                         _______ _______ _______ _____ _____    ______ ____
ROOT
ATOM      6  N   UNL     1      19.036   6.707  21.174  0.00  0.00    -0.297 NA
ATOM      9  C   UNL     1      16.754   7.239  21.085  0.00  0.00    +0.092 C 
ATOM     10  C   UNL     1      17.058   6.104  20.090  0.00  0.00    +0.029 C 
ATOM     11  C   UNL     1      18.128   7.825  21.437  0.00  0.00    +0.097 C 
ATOM     12  C   UNL     1      18.570   6.130  19.914  0.00  0.00    +0.085 C 
ENDROOT
BRANCH   9  14
ATOM      2  O   UNL     1      15.086   7.978  19.453  0.00  0.00    -0.420 OA
ATOM      7  N   UNL     1      15.491   9.460  21.078  0.00  0.00    -0.112 NA
ATOM      8  N   UNL     1      14.539  10.002  20.234  0.00  0.00    -0.107 NA
ATOM     14  C   UNL     1      15.780   8.279  20.584  0.00  0.00    +0.222 A 
ATOM     18  C   UNL     1      14.334   9.102  19.301  0.00  0.00    +0.252 A 
BRANCH  18  22
ATOM     22  C   UNL     1      13.455   9.121  18.167  0.00  0.00    +0.080 A 
ATOM     23  C   UNL     1      12.217   8.482  18.211  0.00  0.00    +0.132 A 
ATOM     24  C   UNL     1      13.854   9.790  17.010  0.00  0.00    +0.017 A 
ATOM     26  C   UNL     1      11.377   8.511  17.097  0.00  0.00    +0.046 A 
ATOM     27  C   UNL     1      13.015   9.819  15.896  0.00  0.00    +0.001 A 
ATOM     28  C   UNL     1      11.777   9.179  15.940  0.00  0.00    +0.004 A 
BRANCH  23   5
ATOM      5  O   UNL     1      11.801   7.820  19.329  0.00  0.00    -0.494 OA
ATOM     29  C   UNL     1      10.839   8.479  20.149  0.00  0.00    +0.277 C 
ENDBRANCH  23   5
ENDBRANCH  18  22
ENDBRANCH   9  14
BRANCH   6  13
ATOM     13  C   UNL     1      20.429   7.125  21.111  0.00  0.00    +0.119 C 
BRANCH  13  15
ATOM     15  C   UNL     1      21.371   5.965  21.294  0.00  0.00    -0.033 A 
ATOM     16  C   UNL     1      21.336   5.218  22.472  0.00  0.00    +0.007 A 
ATOM     17  C   UNL     1      22.280   5.638  20.288  0.00  0.00    +0.007 A 
ATOM     19  C   UNL     1      22.210   4.143  22.643  0.00  0.00    +0.027 A 
ATOM     20  C   UNL     1      23.153   4.564  20.458  0.00  0.00    +0.027 A 
ATOM     21  C   UNL     1      23.118   3.817  21.635  0.00  0.00    +0.088 A 
BRANCH  21   1
ATOM      1  S   UNL     1      24.210   2.472  21.849  0.00  0.00    -0.006 S 
ATOM      3  O   UNL     1      23.879   1.437  20.879  0.00  0.00    -0.170 OA
ATOM      4  O   UNL     1      25.566   2.999  21.908  0.00  0.00    -0.170 OA
ATOM     25  C   UNL     1      23.805   1.824  23.455  0.00  0.00    +0.200 C 
ENDBRANCH  21   1
ENDBRANCH  13  15
ENDBRANCH   6  13
TORSDOF 6
ENDMDL
MODEL 7
REMARK VINA RESULT:      -6.6     28.205     30.331
REMARK  Name = 51137482
REMARK  8 active torsions:
REMARK  status: ('A' for Active; 'I' for Inactive)
REMARK    1  A    between atoms: S_1  and  C_21
REMARK    2  A    between atoms: S_1  and  C_25
REMARK    3  A    between atoms: O_5  and  C_23
REMARK    4  A    between atoms: O_5  and  C_29
REMARK    5  A    between atoms: N_6  and  C_13
REMARK    6  A    between atoms: C_9  and  C_14
REMARK    7  A    between atoms: C_13  and  C_15
REMARK    8  A    between atoms: C_18  and  C_22
REMARK                            x       y       z     vdW  Elec       q    Type
REMARK                         _______ _______ _______ _____ _____    ______ ____
ROOT
ATOM      6  N   UNL     1      -5.254  -9.450   9.094  0.00  0.00    -0.297 NA
ATOM      9  C   UNL     1      -7.472  -9.016   8.470  0.00  0.00    +0.092 C 
ATOM     10  C   UNL     1      -6.835  -9.992   7.464  0.00  0.00    +0.029 C 
ATOM     11  C   UNL     1      -6.284  -8.420   9.238  0.00  0.00    +0.097 C 
ATOM     12  C   UNL     1      -5.336  -9.873   7.696  0.00  0.00    +0.085 C 
ENDROOT
BRANCH   9  14
ATOM      2  O   UNL     1      -9.143  -7.243   8.709  0.00  0.00    -0.420 OA
ATOM      7  N   UNL     1      -8.516  -7.626   6.597  0.00  0.00    -0.112 NA
ATOM      8  N   UNL     1      -9.454  -6.611   6.586  0.00  0.00    -0.107 NA
ATOM     14  C   UNL     1      -8.365  -7.964   7.856  0.00  0.00    +0.222 A 
ATOM     18  C   UNL     1      -9.792  -6.421   7.840  0.00  0.00    +0.252 A 
BRANCH  18  22
ATOM     22  C   UNL     1     -10.721  -5.497   8.424  0.00  0.00    +0.080 A 
ATOM     23  C   UNL     1     -12.079  -5.803   8.505  0.00  0.00    +0.132 A 
ATOM     24  C   UNL     1     -10.251  -4.279   8.914  0.00  0.00    +0.017 A 
ATOM     26  C   UNL     1     -12.967  -4.890   9.076  0.00  0.00    +0.046 A 
ATOM     27  C   UNL     1     -11.138  -3.367   9.485  0.00  0.00    +0.001 A 
ATOM     28  C   UNL     1     -12.496  -3.673   9.565  0.00  0.00    +0.004 A 
BRANCH  23   5
ATOM      5  O   UNL     1     -12.568  -6.986   8.034  0.00  0.00    -0.494 OA
ATOM     29  C   UNL     1     -13.646  -6.917   7.105  0.00  0.00    +0.277 C 
ENDBRANCH  23   5
ENDBRANCH  18  22
ENDBRANCH   9  14
BRANCH   6  13
ATOM     13  C   UNL     1      -3.928  -8.963   9.449  0.00  0.00    +0.119 C 
BRANCH  13  15
ATOM     15  C   UNL     1      -3.458  -9.528  10.763  0.00  0.00    -0.033 A 
ATOM     16  C   UNL     1      -2.092  -9.620  11.033  0.00  0.00    +0.007 A 
ATOM     17  C   UNL     1      -4.386  -9.962  11.710  0.00  0.00    +0.007 A 
ATOM     19  C   UNL     1      -1.655 -10.145  12.250  0.00  0.00    +0.027 A 
ATOM     20  C   UNL     1      -3.950 -10.486  12.926  0.00  0.00    +0.027 A 
ATOM     21  C   UNL     1      -2.585 -10.578  13.196  0.00  0.00    +0.088 A 
BRANCH  21   1
ATOM      1  S   UNL     1      -2.037 -11.233  14.719  0.00  0.00    -0.006 S 
ATOM      3  O   UNL     1      -1.728 -12.645  14.540  0.00  0.00    -0.170 OA
ATOM      4  O   UNL     1      -1.026 -10.334  15.257  0.00  0.00    -0.170 OA
ATOM     25  C   UNL     1      -3.465 -11.146  15.776  0.00  0.00    +0.200 C 
ENDBRANCH  21   1
ENDBRANCH  13  15
ENDBRANCH   6  13
TORSDOF 6
ENDMDL
MODEL 8
REMARK VINA RESULT:      -6.5     31.000     32.766
REMARK  Name = 51137482
REMARK  8 active torsions:
REMARK  status: ('A' for Active; 'I' for Inactive)
REMARK    1  A    between atoms: S_1  and  C_21
REMARK    2  A    between atoms: S_1  and  C_25
REMARK    3  A    between atoms: O_5  and  C_23
REMARK    4  A    between atoms: O_5  and  C_29
REMARK    5  A    between atoms: N_6  and  C_13
REMARK    6  A    between atoms: C_9  and  C_14
REMARK    7  A    between atoms: C_13  and  C_15
REMARK    8  A    between atoms: C_18  and  C_22
REMARK                            x       y       z     vdW  Elec       q    Type
REMARK                         _______ _______ _______ _____ _____    ______ ____
ROOT
ATOM      6  N   UNL     1     -10.076  -5.912   8.455  0.00  0.00    -0.297 NA
ATOM      9  C   UNL     1     -11.719  -4.750   9.659  0.00  0.00    +0.092 C 
ATOM     10  C   UNL     1     -10.725  -3.748   9.045  0.00  0.00    +0.029 C 
ATOM     11  C   UNL     1     -11.009  -6.108   9.567  0.00  0.00    +0.097 C 
ATOM     12  C   UNL     1      -9.507  -4.581   8.670  0.00  0.00    +0.085 C 
ENDROOT
BRANCH   9  14
ATOM      2  O   UNL     1     -12.592  -5.455  11.835  0.00  0.00    -0.420 OA
ATOM      7  N   UNL     1     -12.232  -3.254  11.667  0.00  0.00    -0.112 NA
ATOM      8  N   UNL     1     -12.720  -3.511  12.934  0.00  0.00    -0.107 NA
ATOM     14  C   UNL     1     -12.173  -4.417  11.061  0.00  0.00    +0.222 A 
ATOM     18  C   UNL     1     -12.916  -4.807  12.987  0.00  0.00    +0.252 A 
BRANCH  18  22
ATOM     22  C   UNL     1     -13.409  -5.631  14.053  0.00  0.00    +0.080 A 
ATOM     23  C   UNL     1     -12.542  -6.157  15.010  0.00  0.00    +0.132 A 
ATOM     24  C   UNL     1     -14.774  -5.905  14.124  0.00  0.00    +0.017 A 
ATOM     26  C   UNL     1     -13.041  -6.958  16.039  0.00  0.00    +0.046 A 
ATOM     27  C   UNL     1     -15.273  -6.705  15.152  0.00  0.00    +0.001 A 
ATOM     28  C   UNL     1     -14.406  -7.231  16.109  0.00  0.00    +0.004 A 
BRANCH  23   5
ATOM      5  O   UNL     1     -11.202  -5.906  14.966  0.00  0.00    -0.494 OA
ATOM     29  C   UNL     1     -10.366  -6.703  15.803  0.00  0.00    +0.277 C 
ENDBRANCH  23   5
ENDBRANCH  18  22
ENDBRANCH   9  14
BRANCH   6  13
ATOM     13  C   UNL     1      -9.055  -6.949   8.398  0.00  0.00    +0.119 C 
BRANCH  13  15
ATOM     15  C   UNL     1      -8.830  -7.435   6.992  0.00  0.00    -0.033 A 
ATOM     16  C   UNL     1      -9.758  -7.137   5.994  0.00  0.00    +0.007 A 
ATOM     17  C   UNL     1      -7.694  -8.185   6.685  0.00  0.00    +0.007 A 
ATOM     19  C   UNL     1      -9.550  -7.589   4.690  0.00  0.00    +0.027 A 
ATOM     20  C   UNL     1      -7.486  -8.637   5.383  0.00  0.00    +0.027 A 
ATOM     21  C   UNL     1      -8.414  -8.339   4.385  0.00  0.00    +0.088 A 
BRANCH  21   1
ATOM      1  S   UNL     1      -8.154  -8.902   2.753  0.00  0.00    -0.006 S 
ATOM      3  O   UNL     1      -7.499  -7.849   1.989  0.00  0.00    -0.170 OA
ATOM      4  O   UNL     1      -7.548 -10.225   2.827  0.00  0.00    -0.170 OA
ATOM     25  C   UNL     1      -9.791  -9.087   2.083  0.00  0.00    +0.200 C 
ENDBRANCH  21   1
ENDBRANCH  13  15
ENDBRANCH   6  13
TORSDOF 6
ENDMDL
MODEL 9
REMARK VINA RESULT:      -6.5      3.242      9.410
REMARK  Name = 51137482
REMARK  8 active torsions:
REMARK  status: ('A' for Active; 'I' for Inactive)
REMARK    1  A    between atoms: S_1  and  C_21
REMARK    2  A    between atoms: S_1  and  C_25
REMARK    3  A    between atoms: O_5  and  C_23
REMARK    4  A    between atoms: O_5  and  C_29
REMARK    5  A    between atoms: N_6  and  C_13
REMARK    6  A    between atoms: C_9  and  C_14
REMARK    7  A    between atoms: C_13  and  C_15
REMARK    8  A    between atoms: C_18  and  C_22
REMARK                            x       y       z     vdW  Elec       q    Type
REMARK                         _______ _______ _______ _____ _____    ______ ____
ROOT
ATOM      6  N   UNL     1      12.908   7.838  19.383  0.00  0.00    -0.297 NA
ATOM      9  C   UNL     1      15.100   7.075  19.720  0.00  0.00    +0.092 C 
ATOM     10  C   UNL     1      14.161   6.414  20.745  0.00  0.00    +0.029 C 
ATOM     11  C   UNL     1      14.294   8.255  19.159  0.00  0.00    +0.097 C 
ATOM     12  C   UNL     1      12.899   7.265  20.729  0.00  0.00    +0.085 C 
ENDROOT
BRANCH   9  14
ATOM      2  O   UNL     1      17.344   6.494  20.507  0.00  0.00    -0.420 OA
ATOM      7  N   UNL     1      16.901   8.685  20.554  0.00  0.00    -0.112 NA
ATOM      8  N   UNL     1      18.189   8.500  21.021  0.00  0.00    -0.107 NA
ATOM     14  C   UNL     1      16.447   7.488  20.266  0.00  0.00    +0.222 A 
ATOM     18  C   UNL     1      18.404   7.206  20.976  0.00  0.00    +0.252 A 
BRANCH  18  22
ATOM     22  C   UNL     1      19.564   6.443  21.337  0.00  0.00    +0.080 A 
ATOM     23  C   UNL     1      20.225   6.673  22.542  0.00  0.00    +0.132 A 
ATOM     24  C   UNL     1      20.029   5.461  20.463  0.00  0.00    +0.017 A 
ATOM     26  C   UNL     1      21.352   5.921  22.875  0.00  0.00    +0.046 A 
ATOM     27  C   UNL     1      21.156   4.709  20.795  0.00  0.00    +0.001 A 
ATOM     28  C   UNL     1      21.817   4.939  22.001  0.00  0.00    +0.004 A 
BRANCH  23   5
ATOM      5  O   UNL     1      19.793   7.627  23.417  0.00  0.00    -0.494 OA
ATOM     29  C   UNL     1      20.695   8.689  23.714  0.00  0.00    +0.277 C 
ENDBRANCH  23   5
ENDBRANCH  18  22
ENDBRANCH   9  14
BRANCH   6  13
ATOM     13  C   UNL     1      11.967   8.939  19.242  0.00  0.00    +0.119 C 
BRANCH  13  15
ATOM     15  C   UNL     1      11.759   9.668  20.543  0.00  0.00    -0.033 A 
ATOM     16  C   UNL     1      12.443  10.857  20.793  0.00  0.00    +0.007 A 
ATOM     17  C   UNL     1      10.883   9.153  21.500  0.00  0.00    +0.007 A 
ATOM     19  C   UNL     1      12.252  11.532  21.999  0.00  0.00    +0.027 A 
ATOM     20  C   UNL     1      10.692   9.828  22.705  0.00  0.00    +0.027 A 
ATOM     21  C   UNL     1      11.376  11.017  22.955  0.00  0.00    +0.088 A 
BRANCH  21   1
ATOM      1  S   UNL     1      11.137  11.863  24.464  0.00  0.00    -0.006 S 
ATOM      3  O   UNL     1       9.977  12.735  24.336  0.00  0.00    -0.170 OA
ATOM      4  O   UNL     1      11.189  10.884  25.540  0.00  0.00    -0.170 OA
ATOM     25  C   UNL     1      12.563  12.915  24.612  0.00  0.00    +0.200 C 
ENDBRANCH  21   1
ENDBRANCH  13  15
ENDBRANCH   6  13
TORSDOF 6
ENDMDL
MODEL 10
REMARK VINA RESULT:      -6.4     19.827     21.703
REMARK  Name = 51137482
REMARK  8 active torsions:
REMARK  status: ('A' for Active; 'I' for Inactive)
REMARK    1  A    between atoms: S_1  and  C_21
REMARK    2  A    between atoms: S_1  and  C_25
REMARK    3  A    between atoms: O_5  and  C_23
REMARK    4  A    between atoms: O_5  and  C_29
REMARK    5  A    between atoms: N_6  and  C_13
REMARK    6  A    between atoms: C_9  and  C_14
REMARK    7  A    between atoms: C_13  and  C_15
REMARK    8  A    between atoms: C_18  and  C_22
REMARK                            x       y       z     vdW  Elec       q    Type
REMARK                         _______ _______ _______ _____ _____    ______ ____
ROOT
ATOM      6  N   UNL     1      11.915   3.648   0.485  0.00  0.00    -0.297 NA
ATOM      9  C   UNL     1      10.796   4.332   2.429  0.00  0.00    +0.092 C 
ATOM     10  C   UNL     1      10.268   5.129   1.222  0.00  0.00    +0.029 C 
ATOM     11  C   UNL     1      12.107   3.704   1.935  0.00  0.00    +0.097 C 
ATOM     12  C   UNL     1      11.313   4.934   0.133  0.00  0.00    +0.085 C 
ENDROOT
BRANCH   9  14
ATOM      2  O   UNL     1      10.258   4.729   4.784  0.00  0.00    -0.420 OA
ATOM      7  N   UNL     1      11.712   6.193   3.921  0.00  0.00    -0.112 NA
ATOM      8  N   UNL     1      11.499   6.533   5.244  0.00  0.00    -0.107 NA
ATOM     14  C   UNL     1      10.968   5.136   3.696  0.00  0.00    +0.222 A 
ATOM     18  C   UNL     1      10.644   5.651   5.707  0.00  0.00    +0.252 A 
BRANCH  18  22
ATOM     22  C   UNL     1      10.066   5.513   7.013  0.00  0.00    +0.080 A 
ATOM     23  C   UNL     1       9.489   6.605   7.659  0.00  0.00    +0.132 A 
ATOM     24  C   UNL     1      10.088   4.265   7.636  0.00  0.00    +0.017 A 
ATOM     26  C   UNL     1       8.932   6.449   8.929  0.00  0.00    +0.046 A 
ATOM     27  C   UNL     1       9.532   4.110   8.906  0.00  0.00    +0.001 A 
ATOM     28  C   UNL     1       8.955   5.202   9.552  0.00  0.00    +0.004 A 
BRANCH  23   5
ATOM      5  O   UNL     1       9.452   7.836   7.074  0.00  0.00    -0.494 OA
ATOM     29  C   UNL     1       8.211   8.248   6.507  0.00  0.00    +0.277 C 
ENDBRANCH  23   5
ENDBRANCH  18  22
ENDBRANCH   9  14
BRANCH   6  13
ATOM     13  C   UNL     1      13.159   3.404  -0.231  0.00  0.00    +0.119 C 
BRANCH  13  15
ATOM     15  C   UNL     1      12.955   3.397  -1.723  0.00  0.00    -0.033 A 
ATOM     16  C   UNL     1      12.049   2.506  -2.298  0.00  0.00    +0.007 A 
ATOM     17  C   UNL     1      13.672   4.280  -2.530  0.00  0.00    +0.007 A 
ATOM     19  C   UNL     1      11.859   2.498  -3.681  0.00  0.00    +0.027 A 
ATOM     20  C   UNL     1      13.483   4.273  -3.912  0.00  0.00    +0.027 A 
ATOM     21  C   UNL     1      12.577   3.382  -4.487  0.00  0.00    +0.088 A 
BRANCH  21   1
ATOM      1  S   UNL     1      12.339   3.373  -6.217  0.00  0.00    -0.006 S 
ATOM      3  O   UNL     1      13.409   2.603  -6.836  0.00  0.00    -0.170 OA
ATOM      4  O   UNL     1      10.951   3.019  -6.477  0.00  0.00    -0.170 OA
ATOM     25  C   UNL     1      12.572   5.067  -6.704  0.00  0.00    +0.200 C 
ENDBRANCH  21   1
ENDBRANCH  13  15
ENDBRANCH   6  13
TORSDOF 6
ENDMDL
