REMARK  Name = 40777117
REMARK  8 active torsions:
REMARK  status: ('A' for Active; 'I' for Inactive)
REMARK    1  A    between atoms: O_3  and  C_33
REMARK    2  A    between atoms: O_3  and  C_34
REMARK    3  A    between atoms: N_5  and  C_15
REMARK    4  A    between atoms: C_9  and  C_16
REMARK    5  A    between atoms: C_10  and  C_15
REMARK    6  A    between atoms: C_18  and  C_21
REMARK    7  A    between atoms: C_19  and  C_22
REMARK    8  A    between atoms: C_20  and  C_23
REMARK                            x       y       z     vdW  Elec       q    Type
REMARK                         _______ _______ _______ _____ _____    ______ ____
ROOT
ATOM      4  N   UNL     1      -0.034   3.030  -0.940  0.00  0.00    -0.297 NA
ATOM      8  C   UNL     1       0.359   2.408   1.558  0.00  0.00    +0.002 C 
ATOM      9  C   UNL     1       1.645   2.150   0.725  0.00  0.00    +0.055 C 
ATOM     10  C   UNL     1      -1.131   2.151  -0.456  0.00  0.00    +0.074 C 
ATOM     11  C   UNL     1      -0.811   1.605   0.952  0.00  0.00    +0.024 C 
ATOM     12  C   UNL     1       0.016   3.904   1.396  0.00  0.00    +0.019 C 
ATOM     13  C   UNL     1       1.274   2.349  -0.773  0.00  0.00    +0.094 C 
ATOM     14  C   UNL     1      -0.029   4.253  -0.102  0.00  0.00    +0.085 C 
ENDROOT
BRANCH   9  16
ATOM      6  N   UNL     1       1.898   0.011   1.884  0.00  0.00    -0.237 NA
ATOM      7  N   UNL     1       3.735  -1.483   1.436  0.00  0.00    -0.232 NA
ATOM     16  C   UNL     1       2.408   0.855   0.963  0.00  0.00    +0.050 A 
ATOM     17  C   UNL     1       3.561   0.603   0.248  0.00  0.00    +0.052 A 
ATOM     18  C   UNL     1       4.189  -0.593   0.529  0.00  0.00    +0.076 A 
ATOM     19  C   UNL     1       2.602  -1.123   2.067  0.00  0.00    +0.127 A 
ATOM     22  C   UNL     1       2.070  -2.080   3.079  0.00  0.00    +0.088 C 
BRANCH  18  21
ATOM      1 BR   UNL     1       3.774  -2.255  -2.173  0.00  0.00    -0.050 Br
ATOM     21  C   UNL     1       5.405  -0.975  -0.150  0.00  0.00    +0.014 A 
ATOM     24  C   UNL     1       5.391  -1.702  -1.340  0.00  0.00    +0.027 A 
ATOM     25  C   UNL     1       6.619  -0.593   0.420  0.00  0.00    +0.011 A 
ATOM     28  C   UNL     1       6.592  -2.047  -1.960  0.00  0.00    +0.016 A 
ATOM     29  C   UNL     1       7.820  -0.939  -0.200  0.00  0.00    +0.001 A 
ATOM     32  C   UNL     1       7.806  -1.665  -1.390  0.00  0.00    +0.001 A 
ENDBRANCH  18  21
ENDBRANCH   9  16
BRANCH  10  15
ATOM     15  C   UNL     1      -1.457   1.028  -1.442  0.00  0.00    +0.123 C 
BRANCH  15   5
ATOM      2  O   UNL     1      -4.210   1.545  -2.073  0.00  0.00    -0.270 OA
ATOM      5  N   UNL     1      -2.590   0.274  -1.002  0.00  0.00    -0.310 N 
ATOM     20  C   UNL     1      -3.898   0.596  -1.357  0.00  0.00    +0.244 C 
ATOM     35  H   UNL     1      -2.408  -0.487  -0.357  0.00  0.00    +0.149 HD
BRANCH  20  23
ATOM     23  C   UNL     1      -4.966  -0.271  -0.796  0.00  0.00    +0.037 A 
ATOM     26  C   UNL     1      -6.250   0.240  -0.603  0.00  0.00    +0.016 A 
ATOM     27  C   UNL     1      -4.686  -1.596  -0.463  0.00  0.00    +0.016 A 
ATOM     30  C   UNL     1      -7.253  -0.573  -0.076  0.00  0.00    +0.046 A 
ATOM     31  C   UNL     1      -5.689  -2.410   0.065  0.00  0.00    +0.046 A 
ATOM     33  C   UNL     1      -6.972  -1.898   0.258  0.00  0.00    +0.120 A 
BRANCH  33   3
ATOM      3  O   UNL     1      -7.950  -2.692   0.772  0.00  0.00    -0.495 OA
ATOM     34  C   UNL     1      -9.240  -2.105   0.945  0.00  0.00    +0.277 C 
ENDBRANCH  33   3
ENDBRANCH  20  23
ENDBRANCH  15   5
ENDBRANCH  10  15
TORSDOF 6
