MODEL 1
REMARK VINA RESULT:      -6.8      0.000      0.000
REMARK  Name = 75367729
REMARK  8 active torsions:
REMARK  status: ('A' for Active; 'I' for Inactive)
REMARK    1  A    between atoms: S_2  and  C_22
REMARK    2  A    between atoms: S_2  and  C_26
REMARK    3  A    between atoms: O_4  and  C_10
REMARK    4  A    between atoms: O_4  and  C_16
REMARK    5  A    between atoms: N_7  and  C_13
REMARK    6  A    between atoms: C_13  and  C_15
REMARK    7  A    between atoms: C_17  and  C_21
REMARK    8  A    between atoms: C_18  and  C_25
REMARK                            x       y       z     vdW  Elec       q    Type
REMARK                         _______ _______ _______ _____ _____    ______ ____
ROOT
ATOM      3  O   UNL     1      12.802   8.029  16.882  0.00  0.00    -0.375 OA
ATOM      7  N   UNL     1      13.349  10.138  19.113  0.00  0.00    -0.292 NA
ATOM      9  C   UNL     1      14.135   9.023  19.656  0.00  0.00    +0.131 C 
ATOM     10  C   UNL     1      14.211   7.730  18.829  0.00  0.00    +0.213 C 
ATOM     11  C   UNL     1      13.437  10.286  17.660  0.00  0.00    +0.113 C 
ATOM     12  C   UNL     1      12.910   7.353  18.132  0.00  0.00    +0.205 C 
ATOM     14  C   UNL     1      12.403   9.389  16.981  0.00  0.00    +0.175 C 
ENDROOT
BRANCH  10   4
ATOM      4  O   UNL     1      14.564   6.661  19.707  0.00  0.00    -0.485 OA
BRANCH   4  16
ATOM     16  C   UNL     1      15.898   6.502  19.970  0.00  0.00    +0.121 A 
ATOM     19  C   UNL     1      16.408   6.853  21.220  0.00  0.00    +0.047 A 
ATOM     20  C   UNL     1      16.745   5.991  18.989  0.00  0.00    +0.047 A 
ATOM     22  C   UNL     1      18.616   6.179  20.506  0.00  0.00    +0.088 A 
ATOM     23  C   UNL     1      17.768   6.691  21.488  0.00  0.00    +0.030 A 
ATOM     24  C   UNL     1      18.105   5.829  19.257  0.00  0.00    +0.030 A 
BRANCH  22   2
ATOM      2  S   UNL     1      20.318   5.979  20.840  0.00  0.00    -0.006 S 
ATOM      5  O   UNL     1      20.701   4.607  20.536  0.00  0.00    -0.170 OA
ATOM      6  O   UNL     1      21.031   7.084  20.215  0.00  0.00    -0.170 OA
ATOM     26  C   UNL     1      20.447   6.173  22.604  0.00  0.00    +0.200 C 
ENDBRANCH  22   2
ENDBRANCH   4  16
ENDBRANCH  10   4
BRANCH   7  13
ATOM     13  C   UNL     1      13.699  11.381  19.801  0.00  0.00    +0.129 C 
BRANCH  13  15
ATOM      1  S   UNL     1      11.612  11.372  21.661  0.00  0.00    -0.076 S 
ATOM      8  N   UNL     1      13.338  11.318  23.585  0.00  0.00    -0.249 NA
ATOM     15  C   UNL     1      13.277  11.360  21.246  0.00  0.00    +0.026 A 
ATOM     17  C   UNL     1      14.039  11.330  22.394  0.00  0.00    +0.050 A 
ATOM     18  C   UNL     1      12.051  11.338  23.320  0.00  0.00    +0.076 A 
ATOM     21  C   UNL     1      15.516  11.313  22.458  0.00  0.00    +0.066 C 
ATOM     25  C   UNL     1      10.985  11.334  24.346  0.00  0.00    +0.073 C 
ENDBRANCH  13  15
ENDBRANCH   7  13
TORSDOF 5
ENDMDL
MODEL 2
REMARK VINA RESULT:      -6.1      2.936      4.862
REMARK  Name = 75367729
REMARK  8 active torsions:
REMARK  status: ('A' for Active; 'I' for Inactive)
REMARK    1  A    between atoms: S_2  and  C_22
REMARK    2  A    between atoms: S_2  and  C_26
REMARK    3  A    between atoms: O_4  and  C_10
REMARK    4  A    between atoms: O_4  and  C_16
REMARK    5  A    between atoms: N_7  and  C_13
REMARK    6  A    between atoms: C_13  and  C_15
REMARK    7  A    between atoms: C_17  and  C_21
REMARK    8  A    between atoms: C_18  and  C_25
REMARK                            x       y       z     vdW  Elec       q    Type
REMARK                         _______ _______ _______ _____ _____    ______ ____
ROOT
ATOM      3  O   UNL     1      13.044   7.846  21.576  0.00  0.00    -0.375 OA
ATOM      7  N   UNL     1      13.604   8.005  18.512  0.00  0.00    -0.292 NA
ATOM      9  C   UNL     1      14.972   8.205  19.005  0.00  0.00    +0.131 C 
ATOM     10  C   UNL     1      15.204   8.145  20.523  0.00  0.00    +0.213 C 
ATOM     11  C   UNL     1      12.833   7.011  19.261  0.00  0.00    +0.113 C 
ATOM     12  C   UNL     1      14.096   8.780  21.353  0.00  0.00    +0.205 C 
ATOM     14  C   UNL     1      12.170   7.668  20.471  0.00  0.00    +0.175 C 
ENDROOT
BRANCH  10   4
ATOM      4  O   UNL     1      16.421   8.832  20.814  0.00  0.00    -0.485 OA
BRANCH   4  16
ATOM     16  C   UNL     1      17.532   8.056  21.000  0.00  0.00    +0.121 A 
ATOM     19  C   UNL     1      18.581   8.519  21.795  0.00  0.00    +0.047 A 
ATOM     20  C   UNL     1      17.616   6.803  20.395  0.00  0.00    +0.047 A 
ATOM     22  C   UNL     1      19.798   6.474  21.378  0.00  0.00    +0.088 A 
ATOM     23  C   UNL     1      19.714   7.727  21.984  0.00  0.00    +0.030 A 
ATOM     24  C   UNL     1      18.749   6.012  20.584  0.00  0.00    +0.030 A 
BRANCH  22   2
ATOM      2  S   UNL     1      21.217   5.484  21.613  0.00  0.00    -0.006 S 
ATOM      5  O   UNL     1      21.347   5.173  23.029  0.00  0.00    -0.170 OA
ATOM      6  O   UNL     1      21.178   4.405  20.636  0.00  0.00    -0.170 OA
ATOM     26  C   UNL     1      22.575   6.553  21.192  0.00  0.00    +0.200 C 
ENDBRANCH  22   2
ENDBRANCH   4  16
ENDBRANCH  10   4
BRANCH   7  13
ATOM     13  C   UNL     1      13.624   7.701  17.081  0.00  0.00    +0.129 C 
BRANCH  13  15
ATOM      1  S   UNL     1      14.716   9.920  15.777  0.00  0.00    -0.076 S 
ATOM      8  N   UNL     1      12.351  10.613  14.997  0.00  0.00    -0.249 NA
ATOM     15  C   UNL     1      13.394   8.930  16.244  0.00  0.00    +0.026 A 
ATOM     17  C   UNL     1      12.223   9.454  15.738  0.00  0.00    +0.050 A 
ATOM     18  C   UNL     1      13.621  10.951  14.952  0.00  0.00    +0.076 A 
ATOM     21  C   UNL     1      10.869   8.892  15.920  0.00  0.00    +0.066 C 
ATOM     25  C   UNL     1      14.146  12.141  14.247  0.00  0.00    +0.073 C 
ENDBRANCH  13  15
ENDBRANCH   7  13
TORSDOF 5
ENDMDL
MODEL 3
REMARK VINA RESULT:      -5.9     31.868     32.835
REMARK  Name = 75367729
REMARK  8 active torsions:
REMARK  status: ('A' for Active; 'I' for Inactive)
REMARK    1  A    between atoms: S_2  and  C_22
REMARK    2  A    between atoms: S_2  and  C_26
REMARK    3  A    between atoms: O_4  and  C_10
REMARK    4  A    between atoms: O_4  and  C_16
REMARK    5  A    between atoms: N_7  and  C_13
REMARK    6  A    between atoms: C_13  and  C_15
REMARK    7  A    between atoms: C_17  and  C_21
REMARK    8  A    between atoms: C_18  and  C_25
REMARK                            x       y       z     vdW  Elec       q    Type
REMARK                         _______ _______ _______ _____ _____    ______ ____
ROOT
ATOM      3  O   UNL     1     -16.590   6.731  32.737  0.00  0.00    -0.375 OA
ATOM      7  N   UNL     1     -14.177   8.200  34.057  0.00  0.00    -0.292 NA
ATOM      9  C   UNL     1     -13.585   6.863  33.925  0.00  0.00    +0.131 C 
ATOM     10  C   UNL     1     -14.425   5.771  33.244  0.00  0.00    +0.213 C 
ATOM     11  C   UNL     1     -14.998   8.611  32.918  0.00  0.00    +0.113 C 
ATOM     12  C   UNL     1     -15.909   5.814  33.588  0.00  0.00    +0.205 C 
ATOM     14  C   UNL     1     -16.427   8.097  33.091  0.00  0.00    +0.175 C 
ENDROOT
BRANCH  10   4
ATOM      4  O   UNL     1     -13.916   4.501  33.650  0.00  0.00    -0.485 OA
BRANCH   4  16
ATOM     16  C   UNL     1     -14.166   3.447  32.815  0.00  0.00    +0.121 A 
ATOM     19  C   UNL     1     -13.960   3.581  31.442  0.00  0.00    +0.047 A 
ATOM     20  C   UNL     1     -14.628   2.238  33.336  0.00  0.00    +0.047 A 
ATOM     22  C   UNL     1     -14.676   1.297  31.112  0.00  0.00    +0.088 A 
ATOM     23  C   UNL     1     -14.215   2.505  30.591  0.00  0.00    +0.030 A 
ATOM     24  C   UNL     1     -14.883   1.163  32.484  0.00  0.00    +0.030 A 
BRANCH  22   2
ATOM      2  S   UNL     1     -14.998  -0.048  30.046  0.00  0.00    -0.006 S 
ATOM      5  O   UNL     1     -15.709  -1.079  30.788  0.00  0.00    -0.170 OA
ATOM      6  O   UNL     1     -15.570   0.482  28.816  0.00  0.00    -0.170 OA
ATOM     26  C   UNL     1     -13.389  -0.702  29.662  0.00  0.00    +0.200 C 
ENDBRANCH  22   2
ENDBRANCH   4  16
ENDBRANCH  10   4
BRANCH   7  13
ATOM     13  C   UNL     1     -13.134   9.184  34.350  0.00  0.00    +0.129 C 
BRANCH  13  15
ATOM      1  S   UNL     1     -14.048  10.976  36.291  0.00  0.00    -0.076 S 
ATOM      8  N   UNL     1     -12.738   9.673  38.099  0.00  0.00    -0.249 NA
ATOM     15  C   UNL     1     -13.148   9.602  35.796  0.00  0.00    +0.026 A 
ATOM     17  C   UNL     1     -12.522   9.041  36.889  0.00  0.00    +0.050 A 
ATOM     18  C   UNL     1     -13.528  10.706  37.904  0.00  0.00    +0.076 A 
ATOM     21  C   UNL     1     -11.655   7.845  36.876  0.00  0.00    +0.066 C 
ATOM     25  C   UNL     1     -13.981  11.627  38.969  0.00  0.00    +0.073 C 
ENDBRANCH  13  15
ENDBRANCH   7  13
TORSDOF 5
ENDMDL
MODEL 4
REMARK VINA RESULT:      -5.9     31.017     32.830
REMARK  Name = 75367729
REMARK  8 active torsions:
REMARK  status: ('A' for Active; 'I' for Inactive)
REMARK    1  A    between atoms: S_2  and  C_22
REMARK    2  A    between atoms: S_2  and  C_26
REMARK    3  A    between atoms: O_4  and  C_10
REMARK    4  A    between atoms: O_4  and  C_16
REMARK    5  A    between atoms: N_7  and  C_13
REMARK    6  A    between atoms: C_13  and  C_15
REMARK    7  A    between atoms: C_17  and  C_21
REMARK    8  A    between atoms: C_18  and  C_25
REMARK                            x       y       z     vdW  Elec       q    Type
REMARK                         _______ _______ _______ _____ _____    ______ ____
ROOT
ATOM      3  O   UNL     1     -16.809   5.355  34.010  0.00  0.00    -0.375 OA
ATOM      7  N   UNL     1     -14.839   3.924  32.061  0.00  0.00    -0.292 NA
ATOM      9  C   UNL     1     -14.006   5.078  32.419  0.00  0.00    +0.131 C 
ATOM     10  C   UNL     1     -14.566   6.075  33.446  0.00  0.00    +0.213 C 
ATOM     11  C   UNL     1     -15.607   3.365  33.175  0.00  0.00    +0.113 C 
ATOM     12  C   UNL     1     -16.058   6.345  33.311  0.00  0.00    +0.205 C 
ATOM     14  C   UNL     1     -16.929   4.116  33.325  0.00  0.00    +0.175 C 
ENDROOT
BRANCH  10   4
ATOM      4  O   UNL     1     -13.877   7.314  33.283  0.00  0.00    -0.485 OA
BRANCH   4  16
ATOM     16  C   UNL     1     -13.083   7.715  34.322  0.00  0.00    +0.121 A 
ATOM     19  C   UNL     1     -12.245   8.819  34.175  0.00  0.00    +0.047 A 
ATOM     20  C   UNL     1     -13.111   7.017  35.529  0.00  0.00    +0.047 A 
ATOM     22  C   UNL     1     -11.462   8.529  36.442  0.00  0.00    +0.088 A 
ATOM     23  C   UNL     1     -11.434   9.227  35.235  0.00  0.00    +0.030 A 
ATOM     24  C   UNL     1     -12.301   7.424  36.590  0.00  0.00    +0.030 A 
BRANCH  22   2
ATOM      2  S   UNL     1     -10.446   9.037  37.768  0.00  0.00    -0.006 S 
ATOM      5  O   UNL     1      -9.837   7.861  38.373  0.00  0.00    -0.170 OA
ATOM      6  O   UNL     1      -9.603  10.126  37.295  0.00  0.00    -0.170 OA
ATOM     26  C   UNL     1     -11.582   9.705  38.963  0.00  0.00    +0.200 C 
ENDBRANCH  22   2
ENDBRANCH   4  16
ENDBRANCH  10   4
BRANCH   7  13
ATOM     13  C   UNL     1     -14.024   2.900  31.404  0.00  0.00    +0.129 C 
BRANCH  13  15
ATOM      1  S   UNL     1     -15.376   2.816  28.959  0.00  0.00    -0.076 S 
ATOM      8  N   UNL     1     -15.967   0.335  29.381  0.00  0.00    -0.249 NA
ATOM     15  C   UNL     1     -14.825   2.096  30.416  0.00  0.00    +0.026 A 
ATOM     17  C   UNL     1     -15.233   0.780  30.463  0.00  0.00    +0.050 A 
ATOM     18  C   UNL     1     -16.104   1.324  28.525  0.00  0.00    +0.076 A 
ATOM     21  C   UNL     1     -14.957  -0.177  31.556  0.00  0.00    +0.066 C 
ATOM     25  C   UNL     1     -16.834   1.226  27.243  0.00  0.00    +0.073 C 
ENDBRANCH  13  15
ENDBRANCH   7  13
TORSDOF 5
ENDMDL
MODEL 5
REMARK VINA RESULT:      -5.8      2.226      2.994
REMARK  Name = 75367729
REMARK  8 active torsions:
REMARK  status: ('A' for Active; 'I' for Inactive)
REMARK    1  A    between atoms: S_2  and  C_22
REMARK    2  A    between atoms: S_2  and  C_26
REMARK    3  A    between atoms: O_4  and  C_10
REMARK    4  A    between atoms: O_4  and  C_16
REMARK    5  A    between atoms: N_7  and  C_13
REMARK    6  A    between atoms: C_13  and  C_15
REMARK    7  A    between atoms: C_17  and  C_21
REMARK    8  A    between atoms: C_18  and  C_25
REMARK                            x       y       z     vdW  Elec       q    Type
REMARK                         _______ _______ _______ _____ _____    ______ ____
ROOT
ATOM      3  O   UNL     1      11.804   6.577  20.974  0.00  0.00    -0.375 OA
ATOM      7  N   UNL     1      12.530   9.553  21.560  0.00  0.00    -0.292 NA
ATOM      9  C   UNL     1      13.336   9.356  20.350  0.00  0.00    +0.131 C 
ATOM     10  C   UNL     1      13.247   7.994  19.642  0.00  0.00    +0.213 C 
ATOM     11  C   UNL     1      11.213   8.913  21.518  0.00  0.00    +0.113 C 
ATOM     12  C   UNL     1      13.156   6.801  20.585  0.00  0.00    +0.205 C 
ATOM     14  C   UNL     1      11.325   7.460  21.978  0.00  0.00    +0.175 C 
ENDROOT
BRANCH  10   4
ATOM      4  O   UNL     1      14.418   7.832  18.841  0.00  0.00    -0.485 OA
BRANCH   4  16
ATOM     16  C   UNL     1      15.604   7.704  19.510  0.00  0.00    +0.121 A 
ATOM     19  C   UNL     1      16.318   6.508  19.443  0.00  0.00    +0.047 A 
ATOM     20  C   UNL     1      16.099   8.770  20.261  0.00  0.00    +0.047 A 
ATOM     22  C   UNL     1      18.022   7.444  20.876  0.00  0.00    +0.088 A 
ATOM     23  C   UNL     1      17.527   6.378  20.125  0.00  0.00    +0.030 A 
ATOM     24  C   UNL     1      17.309   8.640  20.944  0.00  0.00    +0.030 A 
BRANCH  22   2
ATOM      2  S   UNL     1      19.535   7.281  21.733  0.00  0.00    -0.006 S 
ATOM      5  O   UNL     1      19.399   6.233  22.734  0.00  0.00    -0.170 OA
ATOM      6  O   UNL     1      20.603   7.204  20.746  0.00  0.00    -0.170 OA
ATOM     26  C   UNL     1      19.712   8.817  22.613  0.00  0.00    +0.200 C 
ENDBRANCH  22   2
ENDBRANCH   4  16
ENDBRANCH  10   4
BRANCH   7  13
ATOM     13  C   UNL     1      12.423  10.980  21.866  0.00  0.00    +0.129 C 
BRANCH  13  15
ATOM      1  S   UNL     1      14.550  11.187  23.668  0.00  0.00    -0.076 S 
ATOM      8  N   UNL     1      12.895  11.881  25.528  0.00  0.00    -0.249 NA
ATOM     15  C   UNL     1      12.885  11.289  23.265  0.00  0.00    +0.026 A 
ATOM     17  C   UNL     1      12.164  11.671  24.375  0.00  0.00    +0.050 A 
ATOM     18  C   UNL     1      14.165  11.655  25.273  0.00  0.00    +0.076 A 
ATOM     21  C   UNL     1      10.700  11.869  24.436  0.00  0.00    +0.066 C 
ATOM     25  C   UNL     1      15.253  11.777  26.267  0.00  0.00    +0.073 C 
ENDBRANCH  13  15
ENDBRANCH   7  13
TORSDOF 5
ENDMDL
MODEL 6
REMARK VINA RESULT:      -5.7     27.409     29.407
REMARK  Name = 75367729
REMARK  8 active torsions:
REMARK  status: ('A' for Active; 'I' for Inactive)
REMARK    1  A    between atoms: S_2  and  C_22
REMARK    2  A    between atoms: S_2  and  C_26
REMARK    3  A    between atoms: O_4  and  C_10
REMARK    4  A    between atoms: O_4  and  C_16
REMARK    5  A    between atoms: N_7  and  C_13
REMARK    6  A    between atoms: C_13  and  C_15
REMARK    7  A    between atoms: C_17  and  C_21
REMARK    8  A    between atoms: C_18  and  C_25
REMARK                            x       y       z     vdW  Elec       q    Type
REMARK                         _______ _______ _______ _____ _____    ______ ____
ROOT
ATOM      3  O   UNL     1      -3.538 -13.564  12.926  0.00  0.00    -0.375 OA
ATOM      7  N   UNL     1      -2.856 -11.508  15.171  0.00  0.00    -0.292 NA
ATOM      9  C   UNL     1      -3.041 -10.574  14.055  0.00  0.00    +0.131 C 
ATOM     10  C   UNL     1      -3.462 -11.154  12.695  0.00  0.00    +0.213 C 
ATOM     11  C   UNL     1      -3.811 -12.618  15.193  0.00  0.00    +0.113 C 
ATOM     12  C   UNL     1      -2.807 -12.485  12.351  0.00  0.00    +0.205 C 
ATOM     14  C   UNL     1      -3.302 -13.761  14.314  0.00  0.00    +0.175 C 
ENDROOT
BRANCH  10   4
ATOM      4  O   UNL     1      -3.107 -10.214  11.681  0.00  0.00    -0.485 OA
BRANCH   4  16
ATOM     16  C   UNL     1      -4.123  -9.760  10.886  0.00  0.00    +0.121 A 
ATOM     19  C   UNL     1      -5.345  -9.400  11.453  0.00  0.00    +0.047 A 
ATOM     20  C   UNL     1      -3.937  -9.659   9.508  0.00  0.00    +0.047 A 
ATOM     22  C   UNL     1      -6.196  -8.836   9.264  0.00  0.00    +0.088 A 
ATOM     23  C   UNL     1      -6.382  -8.938  10.642  0.00  0.00    +0.030 A 
ATOM     24  C   UNL     1      -4.974  -9.196   8.696  0.00  0.00    +0.030 A 
BRANCH  22   2
ATOM      2  S   UNL     1      -7.494  -8.260   8.248  0.00  0.00    -0.006 S 
ATOM      5  O   UNL     1      -7.565  -6.809   8.350  0.00  0.00    -0.170 OA
ATOM      6  O   UNL     1      -7.352  -8.886   6.941  0.00  0.00    -0.170 OA
ATOM     26  C   UNL     1      -8.968  -8.905   9.006  0.00  0.00    +0.200 C 
ENDBRANCH  22   2
ENDBRANCH   4  16
ENDBRANCH  10   4
BRANCH   7  13
ATOM     13  C   UNL     1      -2.852 -10.780  16.440  0.00  0.00    +0.129 C 
BRANCH  13  15
ATOM      1  S   UNL     1      -5.461  -9.795  16.260  0.00  0.00    -0.076 S 
ATOM      8  N   UNL     1      -6.053 -10.981  18.479  0.00  0.00    -0.249 NA
ATOM     15  C   UNL     1      -4.229 -10.696  17.043  0.00  0.00    +0.026 A 
ATOM     17  C   UNL     1      -4.728 -11.252  18.201  0.00  0.00    +0.050 A 
ATOM     18  C   UNL     1      -6.541 -10.220  17.524  0.00  0.00    +0.076 A 
ATOM     21  C   UNL     1      -3.977 -12.097  19.153  0.00  0.00    +0.066 C 
ATOM     25  C   UNL     1      -7.933  -9.723  17.478  0.00  0.00    +0.073 C 
ENDBRANCH  13  15
ENDBRANCH   7  13
TORSDOF 5
ENDMDL
MODEL 7
REMARK VINA RESULT:      -5.6      2.045      2.493
REMARK  Name = 75367729
REMARK  8 active torsions:
REMARK  status: ('A' for Active; 'I' for Inactive)
REMARK    1  A    between atoms: S_2  and  C_22
REMARK    2  A    between atoms: S_2  and  C_26
REMARK    3  A    between atoms: O_4  and  C_10
REMARK    4  A    between atoms: O_4  and  C_16
REMARK    5  A    between atoms: N_7  and  C_13
REMARK    6  A    between atoms: C_13  and  C_15
REMARK    7  A    between atoms: C_17  and  C_21
REMARK    8  A    between atoms: C_18  and  C_25
REMARK                            x       y       z     vdW  Elec       q    Type
REMARK                         _______ _______ _______ _____ _____    ______ ____
ROOT
ATOM      3  O   UNL     1      11.979   6.556  21.109  0.00  0.00    -0.375 OA
ATOM      7  N   UNL     1      12.432   9.637  20.940  0.00  0.00    -0.292 NA
ATOM      9  C   UNL     1      13.330   9.215  19.858  0.00  0.00    +0.131 C 
ATOM     10  C   UNL     1      13.394   7.717  19.523  0.00  0.00    +0.213 C 
ATOM     11  C   UNL     1      11.175   8.890  21.006  0.00  0.00    +0.113 C 
ATOM     12  C   UNL     1      13.332   6.798  20.736  0.00  0.00    +0.205 C 
ATOM     14  C   UNL     1      11.368   7.617  21.830  0.00  0.00    +0.175 C 
ENDROOT
BRANCH  10   4
ATOM      4  O   UNL     1      14.624   7.466  18.843  0.00  0.00    -0.485 OA
BRANCH   4  16
ATOM     16  C   UNL     1      15.759   7.480  19.607  0.00  0.00    +0.121 A 
ATOM     19  C   UNL     1      16.129   8.641  20.286  0.00  0.00    +0.047 A 
ATOM     20  C   UNL     1      16.546   6.334  19.707  0.00  0.00    +0.047 A 
ATOM     22  C   UNL     1      18.073   7.509  21.164  0.00  0.00    +0.088 A 
ATOM     23  C   UNL     1      17.286   8.655  21.064  0.00  0.00    +0.030 A 
ATOM     24  C   UNL     1      17.704   6.348  20.486  0.00  0.00    +0.030 A 
BRANCH  22   2
ATOM      2  S   UNL     1      19.524   7.527  22.136  0.00  0.00    -0.006 S 
ATOM      5  O   UNL     1      19.585   8.784  22.869  0.00  0.00    -0.170 OA
ATOM      6  O   UNL     1      19.595   6.265  22.859  0.00  0.00    -0.170 OA
ATOM     26  C   UNL     1      20.850   7.555  20.951  0.00  0.00    +0.200 C 
ENDBRANCH  22   2
ENDBRANCH   4  16
ENDBRANCH  10   4
BRANCH   7  13
ATOM     13  C   UNL     1      12.196  11.079  20.863  0.00  0.00    +0.129 C 
BRANCH  13  15
ATOM      1  S   UNL     1      11.078  12.256  23.139  0.00  0.00    -0.076 S 
ATOM      8  N   UNL     1      13.450  12.701  24.064  0.00  0.00    -0.249 NA
ATOM     15  C   UNL     1      12.416  11.755  22.190  0.00  0.00    +0.026 A 
ATOM     17  C   UNL     1      13.589  12.073  22.841  0.00  0.00    +0.050 A 
ATOM     18  C   UNL     1      12.169  12.849  24.322  0.00  0.00    +0.076 A 
ATOM     21  C   UNL     1      14.957  11.806  22.349  0.00  0.00    +0.066 C 
ATOM     25  C   UNL     1      11.630  13.483  25.545  0.00  0.00    +0.073 C 
ENDBRANCH  13  15
ENDBRANCH   7  13
TORSDOF 5
ENDMDL
MODEL 8
REMARK VINA RESULT:      -5.5     30.198     31.917
REMARK  Name = 75367729
REMARK  8 active torsions:
REMARK  status: ('A' for Active; 'I' for Inactive)
REMARK    1  A    between atoms: S_2  and  C_22
REMARK    2  A    between atoms: S_2  and  C_26
REMARK    3  A    between atoms: O_4  and  C_10
REMARK    4  A    between atoms: O_4  and  C_16
REMARK    5  A    between atoms: N_7  and  C_13
REMARK    6  A    between atoms: C_13  and  C_15
REMARK    7  A    between atoms: C_17  and  C_21
REMARK    8  A    between atoms: C_18  and  C_25
REMARK                            x       y       z     vdW  Elec       q    Type
REMARK                         _______ _______ _______ _____ _____    ______ ____
ROOT
ATOM      3  O   UNL     1     -13.764  -8.363  14.194  0.00  0.00    -0.375 OA
ATOM      7  N   UNL     1     -12.716  -5.471  13.682  0.00  0.00    -0.292 NA
ATOM      9  C   UNL     1     -11.917  -5.795  14.869  0.00  0.00    +0.131 C 
ATOM     10  C   UNL     1     -12.062  -7.203  15.468  0.00  0.00    +0.213 C 
ATOM     11  C   UNL     1     -12.871  -6.579  12.737  0.00  0.00    +0.113 C 
ATOM     12  C   UNL     1     -13.483  -7.751  15.449  0.00  0.00    +0.205 C 
ATOM     14  C   UNL     1     -14.058  -7.450  13.146  0.00  0.00    +0.175 C 
ENDROOT
BRANCH  10   4
ATOM      4  O   UNL     1     -11.627  -7.155  16.827  0.00  0.00    -0.485 OA
BRANCH   4  16
ATOM     16  C   UNL     1     -10.731  -8.113  17.216  0.00  0.00    +0.121 A 
ATOM     19  C   UNL     1     -11.132  -9.132  18.081  0.00  0.00    +0.047 A 
ATOM     20  C   UNL     1      -9.418  -8.070  16.750  0.00  0.00    +0.047 A 
ATOM     22  C   UNL     1      -8.905 -10.066  18.012  0.00  0.00    +0.088 A 
ATOM     23  C   UNL     1     -10.218 -10.108  18.478  0.00  0.00    +0.030 A 
ATOM     24  C   UNL     1      -8.504  -9.047  17.147  0.00  0.00    +0.030 A 
BRANCH  22   2
ATOM      2  S   UNL     1      -7.760 -11.286  18.511  0.00  0.00    -0.006 S 
ATOM      5  O   UNL     1      -6.557 -11.165  17.701  0.00  0.00    -0.170 OA
ATOM      6  O   UNL     1      -7.662 -11.241  19.963  0.00  0.00    -0.170 OA
ATOM     26  C   UNL     1      -8.532 -12.825  18.063  0.00  0.00    +0.200 C 
ENDBRANCH  22   2
ENDBRANCH   4  16
ENDBRANCH  10   4
BRANCH   7  13
ATOM     13  C   UNL     1     -12.179  -4.278  13.025  0.00  0.00    +0.129 C 
BRANCH  13  15
ATOM      1  S   UNL     1     -14.707  -3.296  12.348  0.00  0.00    -0.076 S 
ATOM      8  N   UNL     1     -13.956  -3.085   9.884  0.00  0.00    -0.249 NA
ATOM     15  C   UNL     1     -13.104  -3.764  11.954  0.00  0.00    +0.026 A 
ATOM     17  C   UNL     1     -12.887  -3.581  10.605  0.00  0.00    +0.050 A 
ATOM     18  C   UNL     1     -14.969  -2.898  10.699  0.00  0.00    +0.076 A 
ATOM     21  C   UNL     1     -11.632  -3.868   9.879  0.00  0.00    +0.066 C 
ATOM     25  C   UNL     1     -16.291  -2.376  10.287  0.00  0.00    +0.073 C 
ENDBRANCH  13  15
ENDBRANCH   7  13
TORSDOF 5
ENDMDL
MODEL 9
REMARK VINA RESULT:      -5.5     26.654     29.036
REMARK  Name = 75367729
REMARK  8 active torsions:
REMARK  status: ('A' for Active; 'I' for Inactive)
REMARK    1  A    between atoms: S_2  and  C_22
REMARK    2  A    between atoms: S_2  and  C_26
REMARK    3  A    between atoms: O_4  and  C_10
REMARK    4  A    between atoms: O_4  and  C_16
REMARK    5  A    between atoms: N_7  and  C_13
REMARK    6  A    between atoms: C_13  and  C_15
REMARK    7  A    between atoms: C_17  and  C_21
REMARK    8  A    between atoms: C_18  and  C_25
REMARK                            x       y       z     vdW  Elec       q    Type
REMARK                         _______ _______ _______ _____ _____    ______ ____
ROOT
ATOM      3  O   UNL     1     -17.177   6.516  23.542  0.00  0.00    -0.375 OA
ATOM      7  N   UNL     1     -15.454   9.086  23.937  0.00  0.00    -0.292 NA
ATOM      9  C   UNL     1     -14.607   8.392  22.960  0.00  0.00    +0.131 C 
ATOM     10  C   UNL     1     -15.105   7.048  22.406  0.00  0.00    +0.213 C 
ATOM     11  C   UNL     1     -16.891   8.966  23.683  0.00  0.00    +0.113 C 
ATOM     12  C   UNL     1     -15.800   6.164  23.433  0.00  0.00    +0.205 C 
ATOM     14  C   UNL     1     -17.427   7.681  24.315  0.00  0.00    +0.175 C 
ENDROOT
BRANCH  10   4
ATOM      4  O   UNL     1     -13.979   6.331  21.899  0.00  0.00    -0.485 OA
BRANCH   4  16
ATOM     16  C   UNL     1     -13.272   6.934  20.895  0.00  0.00    +0.121 A 
ATOM     19  C   UNL     1     -11.879   6.972  20.948  0.00  0.00    +0.047 A 
ATOM     20  C   UNL     1     -13.945   7.511  19.818  0.00  0.00    +0.047 A 
ATOM     22  C   UNL     1     -11.831   8.164  18.847  0.00  0.00    +0.088 A 
ATOM     23  C   UNL     1     -11.158   7.587  19.924  0.00  0.00    +0.030 A 
ATOM     24  C   UNL     1     -13.224   8.126  18.794  0.00  0.00    +0.030 A 
BRANCH  22   2
ATOM      2  S   UNL     1     -10.930   8.936  17.567  0.00  0.00    -0.006 S 
ATOM      5  O   UNL     1     -10.091   9.978  18.141  0.00  0.00    -0.170 OA
ATOM      6  O   UNL     1     -10.328   7.892  16.750  0.00  0.00    -0.170 OA
ATOM     26  C   UNL     1     -12.169   9.752  16.584  0.00  0.00    +0.200 C 
ENDBRANCH  22   2
ENDBRANCH   4  16
ENDBRANCH  10   4
BRANCH   7  13
ATOM     13  C   UNL     1     -15.045  10.486  24.053  0.00  0.00    +0.129 C 
BRANCH  13  15
ATOM      1  S   UNL     1     -13.446  10.359  26.342  0.00  0.00    -0.076 S 
ATOM      8  N   UNL     1     -11.379  10.986  24.923  0.00  0.00    -0.249 NA
ATOM     15  C   UNL     1     -13.675  10.621  24.662  0.00  0.00    +0.026 A 
ATOM     17  C   UNL     1     -12.470  10.942  24.076  0.00  0.00    +0.050 A 
ATOM     18  C   UNL     1     -11.775  10.695  26.142  0.00  0.00    +0.076 A 
ATOM     21  C   UNL     1     -12.250  11.240  22.645  0.00  0.00    +0.066 C 
ATOM     25  C   UNL     1     -10.885  10.644  27.322  0.00  0.00    +0.073 C 
ENDBRANCH  13  15
ENDBRANCH   7  13
TORSDOF 5
ENDMDL
MODEL 10
REMARK VINA RESULT:      -5.5     29.130     32.023
REMARK  Name = 75367729
REMARK  8 active torsions:
REMARK  status: ('A' for Active; 'I' for Inactive)
REMARK    1  A    between atoms: S_2  and  C_22
REMARK    2  A    between atoms: S_2  and  C_26
REMARK    3  A    between atoms: O_4  and  C_10
REMARK    4  A    between atoms: O_4  and  C_16
REMARK    5  A    between atoms: N_7  and  C_13
REMARK    6  A    between atoms: C_13  and  C_15
REMARK    7  A    between atoms: C_17  and  C_21
REMARK    8  A    between atoms: C_18  and  C_25
REMARK                            x       y       z     vdW  Elec       q    Type
REMARK                         _______ _______ _______ _____ _____    ______ ____
ROOT
ATOM      3  O   UNL     1     -16.834   7.384  32.849  0.00  0.00    -0.375 OA
ATOM      7  N   UNL     1     -13.965   8.564  32.529  0.00  0.00    -0.292 NA
ATOM      9  C   UNL     1     -13.621   7.139  32.576  0.00  0.00    +0.131 C 
ATOM     10  C   UNL     1     -14.772   6.126  32.674  0.00  0.00    +0.213 C 
ATOM     11  C   UNL     1     -15.179   8.867  31.769  0.00  0.00    +0.113 C 
ATOM     12  C   UNL     1     -15.920   6.565  33.573  0.00  0.00    +0.205 C 
ATOM     14  C   UNL     1     -16.406   8.727  32.669  0.00  0.00    +0.175 C 
ENDROOT
BRANCH  10   4
ATOM      4  O   UNL     1     -14.247   4.905  33.197  0.00  0.00    -0.485 OA
BRANCH   4  16
ATOM     16  C   UNL     1     -14.457   3.780  32.448  0.00  0.00    +0.121 A 
ATOM     19  C   UNL     1     -14.459   2.526  33.059  0.00  0.00    +0.047 A 
ATOM     20  C   UNL     1     -14.666   3.886  31.073  0.00  0.00    +0.047 A 
ATOM     22  C   UNL     1     -14.882   1.485  30.921  0.00  0.00    +0.088 A 
ATOM     23  C   UNL     1     -14.673   1.378  32.295  0.00  0.00    +0.030 A 
ATOM     24  C   UNL     1     -14.879   2.738  30.309  0.00  0.00    +0.030 A 
BRANCH  22   2
ATOM      2  S   UNL     1     -15.146   0.048  29.964  0.00  0.00    -0.006 S 
ATOM      5  O   UNL     1     -15.861  -0.932  30.770  0.00  0.00    -0.170 OA
ATOM      6  O   UNL     1     -15.689   0.460  28.677  0.00  0.00    -0.170 OA
ATOM     26  C   UNL     1     -13.514  -0.603  29.685  0.00  0.00    +0.200 C 
ENDBRANCH  22   2
ENDBRANCH   4  16
ENDBRANCH  10   4
BRANCH   7  13
ATOM     13  C   UNL     1     -12.823   9.342  32.047  0.00  0.00    +0.129 C 
BRANCH  13  15
ATOM      1  S   UNL     1     -10.148   9.610  32.813  0.00  0.00    -0.076 S 
ATOM      8  N   UNL     1     -10.900  10.117  35.233  0.00  0.00    -0.249 NA
ATOM     15  C   UNL     1     -11.831   9.621  33.145  0.00  0.00    +0.026 A 
ATOM     17  C   UNL     1     -12.038   9.909  34.477  0.00  0.00    +0.050 A 
ATOM     18  C   UNL     1      -9.845   9.984  34.460  0.00  0.00    +0.076 A 
ATOM     21  C   UNL     1     -13.348  10.010  35.151  0.00  0.00    +0.066 C 
ATOM     25  C   UNL     1      -8.447  10.135  34.919  0.00  0.00    +0.073 C 
ENDBRANCH  13  15
ENDBRANCH   7  13
TORSDOF 5
ENDMDL
