MODEL 1
REMARK VINA RESULT:      -5.2      0.000      0.000
REMARK  Name = 56775668
REMARK  11 active torsions:
REMARK  status: ('A' for Active; 'I' for Inactive)
REMARK    1  A    between atoms: N_3  and  C_5
REMARK    2  A    between atoms: N_3  and  C_9
REMARK    3  A    between atoms: N_3  and  C_10
REMARK    4  A    between atoms: C_5  and  C_8
REMARK    5  A    between atoms: C_8  and  C_11
REMARK    6  A    between atoms: C_9  and  C_12
REMARK    7  A    between atoms: C_10  and  C_13
REMARK    8  A    between atoms: C_15  and  C_16
REMARK    9  A    between atoms: C_16  and  C_17
REMARK   10  A    between atoms: C_17  and  C_18
REMARK   11  A    between atoms: C_17  and  C_19
REMARK                            x       y       z     vdW  Elec       q    Type
REMARK                         _______ _______ _______ _____ _____    ______ ____
ROOT
ATOM      8  C   UNL     1      14.245   6.764  20.121  0.00  0.00    +0.085 C 
ENDROOT
BRANCH   8  11
ATOM      2  O   UNL     1      17.504   5.871  18.964  0.00  0.00    -0.359 OA
ATOM      4  N   UNL     1      16.127   5.977  18.800  0.00  0.00    -0.083 NA
ATOM     11  C   UNL     1      15.684   6.507  19.943  0.00  0.00    +0.086 A 
ATOM     14  C   UNL     1      16.723   6.753  20.857  0.00  0.00    +0.071 A 
ATOM     15  C   UNL     1      17.846   6.336  20.193  0.00  0.00    +0.138 A 
BRANCH  15  16
ATOM     16  C   UNL     1      19.313   6.296  20.543  0.00  0.00    +0.080 C 
BRANCH  16  17
ATOM     17  C   UNL     1      19.645   6.934  21.907  0.00  0.00    -0.010 C 
ATOM     18  C   UNL     1      20.008   8.408  21.715  0.00  0.00    +0.007 C 
ATOM     19  C   UNL     1      20.793   6.209  22.616  0.00  0.00    +0.007 C 
ENDBRANCH  16  17
ENDBRANCH  15  16
ENDBRANCH   8  11
BRANCH   8   5
ATOM      1  O   UNL     1      14.273   8.840  17.454  0.00  0.00    -0.376 OA
ATOM      5  C   UNL     1      13.812   8.033  19.376  0.00  0.00    +0.074 C 
ATOM      6  C   UNL     1      14.882   8.930  18.762  0.00  0.00    +0.184 C 
ATOM      7  C   UNL     1      13.284   7.910  17.951  0.00  0.00    +0.184 C 
BRANCH   5   3
ATOM      3  N   UNL     1      12.894   8.859  20.147  0.00  0.00    -0.293 NA
BRANCH   3   9
ATOM      9  C   UNL     1      11.510   8.536  19.782  0.00  0.00    +0.082 C 
ATOM     12  C   UNL     1      10.749   7.962  20.966  0.00  0.00    +0.020 C 
ENDBRANCH   3   9
BRANCH   3  10
ATOM     10  C   UNL     1      13.102   8.626  21.582  0.00  0.00    +0.082 C 
ATOM     13  C   UNL     1      13.792   9.811  22.236  0.00  0.00    +0.020 C 
ENDBRANCH   3  10
ENDBRANCH   5   3
ENDBRANCH   8   5
TORSDOF 7
ENDMDL
MODEL 2
REMARK VINA RESULT:      -5.0      1.230      2.061
REMARK  Name = 56775668
REMARK  11 active torsions:
REMARK  status: ('A' for Active; 'I' for Inactive)
REMARK    1  A    between atoms: N_3  and  C_5
REMARK    2  A    between atoms: N_3  and  C_9
REMARK    3  A    between atoms: N_3  and  C_10
REMARK    4  A    between atoms: C_5  and  C_8
REMARK    5  A    between atoms: C_8  and  C_11
REMARK    6  A    between atoms: C_9  and  C_12
REMARK    7  A    between atoms: C_10  and  C_13
REMARK    8  A    between atoms: C_15  and  C_16
REMARK    9  A    between atoms: C_16  and  C_17
REMARK   10  A    between atoms: C_17  and  C_18
REMARK   11  A    between atoms: C_17  and  C_19
REMARK                            x       y       z     vdW  Elec       q    Type
REMARK                         _______ _______ _______ _____ _____    ______ ____
ROOT
ATOM      8  C   UNL     1      13.939   6.734  20.274  0.00  0.00    +0.085 C 
ENDROOT
BRANCH   8  11
ATOM      2  O   UNL     1      17.248   6.088  19.093  0.00  0.00    -0.359 OA
ATOM      4  N   UNL     1      15.868   6.118  18.928  0.00  0.00    -0.083 NA
ATOM     11  C   UNL     1      15.391   6.572  20.090  0.00  0.00    +0.086 A 
ATOM     14  C   UNL     1      16.412   6.844  21.018  0.00  0.00    +0.071 A 
ATOM     15  C   UNL     1      17.559   6.523  20.342  0.00  0.00    +0.138 A 
BRANCH  15  16
ATOM     16  C   UNL     1      19.025   6.558  20.696  0.00  0.00    +0.080 C 
BRANCH  16  17
ATOM     17  C   UNL     1      19.334   7.323  21.998  0.00  0.00    -0.010 C 
ATOM     18  C   UNL     1      19.830   8.732  21.667  0.00  0.00    +0.007 C 
ATOM     19  C   UNL     1      20.374   6.599  22.857  0.00  0.00    +0.007 C 
ENDBRANCH  16  17
ENDBRANCH  15  16
ENDBRANCH   8  11
BRANCH   8   5
ATOM      1  O   UNL     1      11.504   8.081  18.356  0.00  0.00    -0.376 OA
ATOM      5  C   UNL     1      13.379   7.815  19.340  0.00  0.00    +0.074 C 
ATOM      6  C   UNL     1      12.731   7.391  18.026  0.00  0.00    +0.184 C 
ATOM      7  C   UNL     1      12.024   8.436  19.657  0.00  0.00    +0.184 C 
BRANCH   5   3
ATOM      3  N   UNL     1      14.333   8.881  19.069  0.00  0.00    -0.293 NA
BRANCH   3   9
ATOM      9  C   UNL     1      14.323   9.205  17.637  0.00  0.00    +0.082 C 
ATOM     12  C   UNL     1      14.210  10.704  17.414  0.00  0.00    +0.020 C 
ENDBRANCH   3   9
BRANCH   3  10
ATOM     10  C   UNL     1      13.983  10.071  19.854  0.00  0.00    +0.082 C 
ATOM     13  C   UNL     1      14.989  10.310  20.968  0.00  0.00    +0.020 C 
ENDBRANCH   3  10
ENDBRANCH   5   3
ENDBRANCH   8   5
TORSDOF 7
ENDMDL
MODEL 3
REMARK VINA RESULT:      -4.7      3.201      5.704
REMARK  Name = 56775668
REMARK  11 active torsions:
REMARK  status: ('A' for Active; 'I' for Inactive)
REMARK    1  A    between atoms: N_3  and  C_5
REMARK    2  A    between atoms: N_3  and  C_9
REMARK    3  A    between atoms: N_3  and  C_10
REMARK    4  A    between atoms: C_5  and  C_8
REMARK    5  A    between atoms: C_8  and  C_11
REMARK    6  A    between atoms: C_9  and  C_12
REMARK    7  A    between atoms: C_10  and  C_13
REMARK    8  A    between atoms: C_15  and  C_16
REMARK    9  A    between atoms: C_16  and  C_17
REMARK   10  A    between atoms: C_17  and  C_18
REMARK   11  A    between atoms: C_17  and  C_19
REMARK                            x       y       z     vdW  Elec       q    Type
REMARK                         _______ _______ _______ _____ _____    ______ ____
ROOT
ATOM      8  C   UNL     1      12.670   7.970  18.277  0.00  0.00    +0.085 C 
ENDROOT
BRANCH   8  11
ATOM      2  O   UNL     1      14.208   8.997  15.222  0.00  0.00    -0.359 OA
ATOM      4  N   UNL     1      13.794   8.023  16.123  0.00  0.00    -0.083 NA
ATOM     11  C   UNL     1      13.230   8.699  17.127  0.00  0.00    +0.086 A 
ATOM     14  C   UNL     1      13.259  10.089  16.919  0.00  0.00    +0.071 A 
ATOM     15  C   UNL     1      13.884  10.224  15.708  0.00  0.00    +0.138 A 
BRANCH  15  16
ATOM     16  C   UNL     1      14.261  11.408  14.853  0.00  0.00    +0.080 C 
BRANCH  16  17
ATOM     17  C   UNL     1      15.664  11.300  14.222  0.00  0.00    -0.010 C 
ATOM     18  C   UNL     1      16.653  12.165  15.006  0.00  0.00    +0.007 C 
ATOM     19  C   UNL     1      15.666  11.719  12.750  0.00  0.00    +0.007 C 
ENDBRANCH  16  17
ENDBRANCH  15  16
ENDBRANCH   8  11
BRANCH   8   5
ATOM      1  O   UNL     1      15.692   7.459  19.703  0.00  0.00    -0.376 OA
ATOM      5  C   UNL     1      13.637   7.986  19.469  0.00  0.00    +0.074 C 
ATOM      6  C   UNL     1      14.445   6.731  19.780  0.00  0.00    +0.184 C 
ATOM      7  C   UNL     1      14.994   8.662  19.310  0.00  0.00    +0.184 C 
BRANCH   5   3
ATOM      3  N   UNL     1      13.016   8.462  20.697  0.00  0.00    -0.293 NA
BRANCH   3   9
ATOM      9  C   UNL     1      11.885   9.339  20.374  0.00  0.00    +0.082 C 
ATOM     12  C   UNL     1      12.155  10.768  20.814  0.00  0.00    +0.020 C 
ENDBRANCH   3   9
BRANCH   3  10
ATOM     10  C   UNL     1      12.554   7.318  21.494  0.00  0.00    +0.082 C 
ATOM     13  C   UNL     1      11.037   7.237  21.507  0.00  0.00    +0.020 C 
ENDBRANCH   3  10
ENDBRANCH   5   3
ENDBRANCH   8   5
TORSDOF 7
ENDMDL
MODEL 4
REMARK VINA RESULT:      -4.6      3.651      6.887
REMARK  Name = 56775668
REMARK  11 active torsions:
REMARK  status: ('A' for Active; 'I' for Inactive)
REMARK    1  A    between atoms: N_3  and  C_5
REMARK    2  A    between atoms: N_3  and  C_9
REMARK    3  A    between atoms: N_3  and  C_10
REMARK    4  A    between atoms: C_5  and  C_8
REMARK    5  A    between atoms: C_8  and  C_11
REMARK    6  A    between atoms: C_9  and  C_12
REMARK    7  A    between atoms: C_10  and  C_13
REMARK    8  A    between atoms: C_15  and  C_16
REMARK    9  A    between atoms: C_16  and  C_17
REMARK   10  A    between atoms: C_17  and  C_18
REMARK   11  A    between atoms: C_17  and  C_19
REMARK                            x       y       z     vdW  Elec       q    Type
REMARK                         _______ _______ _______ _____ _____    ______ ____
ROOT
ATOM      8  C   UNL     1      12.166   9.241  20.109  0.00  0.00    +0.085 C 
ENDROOT
BRANCH   8  11
ATOM      2  O   UNL     1      10.585  10.395  23.096  0.00  0.00    -0.359 OA
ATOM      4  N   UNL     1      10.932   9.393  22.197  0.00  0.00    -0.083 NA
ATOM     11  C   UNL     1      11.631  10.013  21.243  0.00  0.00    +0.086 A 
ATOM     14  C   UNL     1      11.758  11.392  21.482  0.00  0.00    +0.071 A 
ATOM     15  C   UNL     1      11.083  11.581  22.660  0.00  0.00    +0.138 A 
BRANCH  15  16
ATOM     16  C   UNL     1      10.801  12.787  23.520  0.00  0.00    +0.080 C 
BRANCH  16  17
ATOM     17  C   UNL     1      11.061  12.556  25.022  0.00  0.00    -0.010 C 
ATOM     18  C   UNL     1      10.569  13.762  25.825  0.00  0.00    +0.007 C 
ATOM     19  C   UNL     1      12.543  12.309  25.318  0.00  0.00    +0.007 C 
ENDBRANCH  16  17
ENDBRANCH  15  16
ENDBRANCH   8  11
BRANCH   8   5
ATOM      1  O   UNL     1      14.323   7.676  22.187  0.00  0.00    -0.376 OA
ATOM      5  C   UNL     1      13.531   8.629  20.449  0.00  0.00    +0.074 C 
ATOM      6  C   UNL     1      14.226   9.048  21.740  0.00  0.00    +0.184 C 
ATOM      7  C   UNL     1      13.584   7.221  21.031  0.00  0.00    +0.184 C 
BRANCH   5   3
ATOM      3  N   UNL     1      14.484   8.720  19.352  0.00  0.00    -0.293 NA
BRANCH   3   9
ATOM      9  C   UNL     1      14.458   7.479  18.568  0.00  0.00    +0.082 C 
ATOM     12  C   UNL     1      14.140   7.758  17.108  0.00  0.00    +0.020 C 
ENDBRANCH   3   9
BRANCH   3  10
ATOM     10  C   UNL     1      14.145   9.862  18.494  0.00  0.00    +0.082 C 
ATOM     13  C   UNL     1      15.097  11.023  18.723  0.00  0.00    +0.020 C 
ENDBRANCH   3  10
ENDBRANCH   5   3
ENDBRANCH   8   5
TORSDOF 7
ENDMDL
MODEL 5
REMARK VINA RESULT:      -4.6     26.727     28.247
REMARK  Name = 56775668
REMARK  11 active torsions:
REMARK  status: ('A' for Active; 'I' for Inactive)
REMARK    1  A    between atoms: N_3  and  C_5
REMARK    2  A    between atoms: N_3  and  C_9
REMARK    3  A    between atoms: N_3  and  C_10
REMARK    4  A    between atoms: C_5  and  C_8
REMARK    5  A    between atoms: C_8  and  C_11
REMARK    6  A    between atoms: C_9  and  C_12
REMARK    7  A    between atoms: C_10  and  C_13
REMARK    8  A    between atoms: C_15  and  C_16
REMARK    9  A    between atoms: C_16  and  C_17
REMARK   10  A    between atoms: C_17  and  C_18
REMARK   11  A    between atoms: C_17  and  C_19
REMARK                            x       y       z     vdW  Elec       q    Type
REMARK                         _______ _______ _______ _____ _____    ______ ____
ROOT
ATOM      8  C   UNL     1      -4.471 -10.360  17.079  0.00  0.00    +0.085 C 
ENDROOT
BRANCH   8  11
ATOM      2  O   UNL     1      -1.672 -11.182  15.019  0.00  0.00    -0.359 OA
ATOM      4  N   UNL     1      -2.266 -10.969  16.258  0.00  0.00    -0.083 NA
ATOM     11  C   UNL     1      -3.534 -10.654  15.982  0.00  0.00    +0.086 A 
ATOM     14  C   UNL     1      -3.797 -10.652  14.601  0.00  0.00    +0.071 A 
ATOM     15  C   UNL     1      -2.594 -10.991  14.040  0.00  0.00    +0.138 A 
BRANCH  15  16
ATOM     16  C   UNL     1      -2.119 -11.183  12.621  0.00  0.00    +0.080 C 
BRANCH  16  17
ATOM     17  C   UNL     1      -3.145 -10.748  11.557  0.00  0.00    -0.010 C 
ATOM     18  C   UNL     1      -3.496 -11.936  10.658  0.00  0.00    +0.007 C 
ATOM     19  C   UNL     1      -2.629  -9.589  10.700  0.00  0.00    +0.007 C 
ENDBRANCH  16  17
ENDBRANCH  15  16
ENDBRANCH   8  11
BRANCH   8   5
ATOM      1  O   UNL     1      -4.730 -13.684  17.636  0.00  0.00    -0.376 OA
ATOM      5  C   UNL     1      -5.244 -11.616  17.500  0.00  0.00    +0.074 C 
ATOM      6  C   UNL     1      -5.231 -12.833  16.580  0.00  0.00    +0.184 C 
ATOM      7  C   UNL     1      -4.627 -12.553  18.532  0.00  0.00    +0.184 C 
BRANCH   5   3
ATOM      3  N   UNL     1      -6.620 -11.334  17.885  0.00  0.00    -0.293 NA
BRANCH   3   9
ATOM      9  C   UNL     1      -6.779 -11.527  19.331  0.00  0.00    +0.082 C 
ATOM     12  C   UNL     1      -8.077 -12.251  19.649  0.00  0.00    +0.020 C 
ENDBRANCH   3   9
BRANCH   3  10
ATOM     10  C   UNL     1      -6.963  -9.953  17.522  0.00  0.00    +0.082 C 
ATOM     13  C   UNL     1      -8.187  -9.910  16.623  0.00  0.00    +0.020 C 
ENDBRANCH   3  10
ENDBRANCH   5   3
ENDBRANCH   8   5
TORSDOF 7
ENDMDL
MODEL 6
REMARK VINA RESULT:      -4.6     26.468     29.292
REMARK  Name = 56775668
REMARK  11 active torsions:
REMARK  status: ('A' for Active; 'I' for Inactive)
REMARK    1  A    between atoms: N_3  and  C_5
REMARK    2  A    between atoms: N_3  and  C_9
REMARK    3  A    between atoms: N_3  and  C_10
REMARK    4  A    between atoms: C_5  and  C_8
REMARK    5  A    between atoms: C_8  and  C_11
REMARK    6  A    between atoms: C_9  and  C_12
REMARK    7  A    between atoms: C_10  and  C_13
REMARK    8  A    between atoms: C_15  and  C_16
REMARK    9  A    between atoms: C_16  and  C_17
REMARK   10  A    between atoms: C_17  and  C_18
REMARK   11  A    between atoms: C_17  and  C_19
REMARK                            x       y       z     vdW  Elec       q    Type
REMARK                         _______ _______ _______ _____ _____    ______ ____
ROOT
ATOM      8  C   UNL     1       0.932   3.471  -4.952  0.00  0.00    +0.085 C 
ENDROOT
BRANCH   8  11
ATOM      2  O   UNL     1       1.949   6.890  -5.121  0.00  0.00    -0.359 OA
ATOM      4  N   UNL     1       1.039   5.865  -5.355  0.00  0.00    -0.083 NA
ATOM     11  C   UNL     1       1.625   4.767  -4.872  0.00  0.00    +0.086 A 
ATOM     14  C   UNL     1       2.894   5.032  -4.327  0.00  0.00    +0.071 A 
ATOM     15  C   UNL     1       3.049   6.381  -4.508  0.00  0.00    +0.138 A 
BRANCH  15  16
ATOM     16  C   UNL     1       4.148   7.360  -4.176  0.00  0.00    +0.080 C 
BRANCH  16  17
ATOM     17  C   UNL     1       4.929   7.009  -2.894  0.00  0.00    -0.010 C 
ATOM     18  C   UNL     1       4.885   8.189  -1.920  0.00  0.00    +0.007 C 
ATOM     19  C   UNL     1       6.385   6.640  -3.190  0.00  0.00    +0.007 C 
ENDBRANCH  16  17
ENDBRANCH  15  16
ENDBRANCH   8  11
BRANCH   8   5
ATOM      1  O   UNL     1       2.208   3.350  -8.080  0.00  0.00    -0.376 OA
ATOM      5  C   UNL     1       1.255   2.749  -6.267  0.00  0.00    +0.074 C 
ATOM      6  C   UNL     1       0.850   3.400  -7.585  0.00  0.00    +0.184 C 
ATOM      7  C   UNL     1       2.674   2.819  -6.819  0.00  0.00    +0.184 C 
BRANCH   5   3
ATOM      3  N   UNL     1       0.816   1.360  -6.275  0.00  0.00    -0.293 NA
BRANCH   3   9
ATOM      9  C   UNL     1       0.741   0.856  -4.899  0.00  0.00    +0.082 C 
ATOM     12  C   UNL     1       1.903  -0.074  -4.590  0.00  0.00    +0.020 C 
ENDBRANCH   3   9
BRANCH   3  10
ATOM     10  C   UNL     1      -0.499   1.259  -6.919  0.00  0.00    +0.082 C 
ATOM     13  C   UNL     1      -1.033  -0.162  -6.858  0.00  0.00    +0.020 C 
ENDBRANCH   3  10
ENDBRANCH   5   3
ENDBRANCH   8   5
TORSDOF 7
ENDMDL
MODEL 7
REMARK VINA RESULT:      -4.5      3.896      6.011
REMARK  Name = 56775668
REMARK  11 active torsions:
REMARK  status: ('A' for Active; 'I' for Inactive)
REMARK    1  A    between atoms: N_3  and  C_5
REMARK    2  A    between atoms: N_3  and  C_9
REMARK    3  A    between atoms: N_3  and  C_10
REMARK    4  A    between atoms: C_5  and  C_8
REMARK    5  A    between atoms: C_8  and  C_11
REMARK    6  A    between atoms: C_9  and  C_12
REMARK    7  A    between atoms: C_10  and  C_13
REMARK    8  A    between atoms: C_15  and  C_16
REMARK    9  A    between atoms: C_16  and  C_17
REMARK   10  A    between atoms: C_17  and  C_18
REMARK   11  A    between atoms: C_17  and  C_19
REMARK                            x       y       z     vdW  Elec       q    Type
REMARK                         _______ _______ _______ _____ _____    ______ ____
ROOT
ATOM      8  C   UNL     1      12.042   8.706  17.225  0.00  0.00    +0.085 C 
ENDROOT
BRANCH   8  11
ATOM      2  O   UNL     1      14.673   9.237  14.869  0.00  0.00    -0.359 OA
ATOM      4  N   UNL     1      13.676   8.456  15.444  0.00  0.00    -0.083 NA
ATOM     11  C   UNL     1      13.145   9.223  16.399  0.00  0.00    +0.086 A 
ATOM     14  C   UNL     1      13.759  10.486  16.475  0.00  0.00    +0.071 A 
ATOM     15  C   UNL     1      14.712  10.444  15.491  0.00  0.00    +0.138 A 
BRANCH  15  16
ATOM     16  C   UNL     1      15.742  11.425  14.992  0.00  0.00    +0.080 C 
BRANCH  16  17
ATOM     17  C   UNL     1      15.225  12.360  13.880  0.00  0.00    -0.010 C 
ATOM     18  C   UNL     1      15.703  11.857  12.516  0.00  0.00    +0.007 C 
ATOM     19  C   UNL     1      15.684  13.806  14.086  0.00  0.00    +0.007 C 
ENDBRANCH  16  17
ENDBRANCH  15  16
ENDBRANCH   8  11
BRANCH   8   5
ATOM      1  O   UNL     1      13.870   6.999  19.499  0.00  0.00    -0.376 OA
ATOM      5  C   UNL     1      12.510   8.413  18.656  0.00  0.00    +0.074 C 
ATOM      6  C   UNL     1      12.462   6.978  19.169  0.00  0.00    +0.184 C 
ATOM      7  C   UNL     1      14.005   8.326  18.942  0.00  0.00    +0.184 C 
BRANCH   5   3
ATOM      3  N   UNL     1      11.893   9.285  19.646  0.00  0.00    -0.293 NA
BRANCH   3   9
ATOM      9  C   UNL     1      11.083   8.488  20.574  0.00  0.00    +0.082 C 
ATOM     12  C   UNL     1      10.963   9.173  21.926  0.00  0.00    +0.020 C 
ENDBRANCH   3   9
BRANCH   3  10
ATOM     10  C   UNL     1      12.933  10.012  20.385  0.00  0.00    +0.082 C 
ATOM     13  C   UNL     1      12.918  11.492  20.041  0.00  0.00    +0.020 C 
ENDBRANCH   3  10
ENDBRANCH   5   3
ENDBRANCH   8   5
TORSDOF 7
ENDMDL
MODEL 8
REMARK VINA RESULT:      -4.5      2.969      5.552
REMARK  Name = 56775668
REMARK  11 active torsions:
REMARK  status: ('A' for Active; 'I' for Inactive)
REMARK    1  A    between atoms: N_3  and  C_5
REMARK    2  A    between atoms: N_3  and  C_9
REMARK    3  A    between atoms: N_3  and  C_10
REMARK    4  A    between atoms: C_5  and  C_8
REMARK    5  A    between atoms: C_8  and  C_11
REMARK    6  A    between atoms: C_9  and  C_12
REMARK    7  A    between atoms: C_10  and  C_13
REMARK    8  A    between atoms: C_15  and  C_16
REMARK    9  A    between atoms: C_16  and  C_17
REMARK   10  A    between atoms: C_17  and  C_18
REMARK   11  A    between atoms: C_17  and  C_19
REMARK                            x       y       z     vdW  Elec       q    Type
REMARK                         _______ _______ _______ _____ _____    ______ ____
ROOT
ATOM      8  C   UNL     1      12.079   7.373  18.335  0.00  0.00    +0.085 C 
ENDROOT
BRANCH   8  11
ATOM      2  O   UNL     1      14.334   8.914  16.033  0.00  0.00    -0.359 OA
ATOM      4  N   UNL     1      13.788   7.799  16.660  0.00  0.00    -0.083 NA
ATOM     11  C   UNL     1      12.868   8.289  17.495  0.00  0.00    +0.086 A 
ATOM     14  C   UNL     1      12.788   9.692  17.441  0.00  0.00    +0.071 A 
ATOM     15  C   UNL     1      13.730  10.035  16.507  0.00  0.00    +0.138 A 
BRANCH  15  16
ATOM     16  C   UNL     1      14.201  11.347  15.932  0.00  0.00    +0.080 C 
BRANCH  16  17
ATOM     17  C   UNL     1      14.940  12.243  16.946  0.00  0.00    -0.010 C 
ATOM     18  C   UNL     1      14.126  13.512  17.207  0.00  0.00    +0.007 C 
ATOM     19  C   UNL     1      16.343  12.621  16.463  0.00  0.00    +0.007 C 
ENDBRANCH  16  17
ENDBRANCH  15  16
ENDBRANCH   8  11
BRANCH   8   5
ATOM      1  O   UNL     1      11.080   7.522  21.561  0.00  0.00    -0.376 OA
ATOM      5  C   UNL     1      12.319   7.642  19.826  0.00  0.00    +0.074 C 
ATOM      6  C   UNL     1      11.350   8.548  20.578  0.00  0.00    +0.184 C 
ATOM      7  C   UNL     1      11.911   6.582  20.843  0.00  0.00    +0.184 C 
BRANCH   5   3
ATOM      3  N   UNL     1      13.681   8.069  20.114  0.00  0.00    -0.293 NA
BRANCH   3   9
ATOM      9  C   UNL     1      13.661   9.160  21.096  0.00  0.00    +0.082 C 
ATOM     12  C   UNL     1      14.679   8.924  22.199  0.00  0.00    +0.020 C 
ENDBRANCH   3   9
BRANCH   3  10
ATOM     10  C   UNL     1      14.456   6.937  20.638  0.00  0.00    +0.082 C 
ATOM     13  C   UNL     1      15.527   6.503  19.651  0.00  0.00    +0.020 C 
ENDBRANCH   3  10
ENDBRANCH   5   3
ENDBRANCH   8   5
TORSDOF 7
ENDMDL
MODEL 9
REMARK VINA RESULT:      -4.4     30.358     32.718
REMARK  Name = 56775668
REMARK  11 active torsions:
REMARK  status: ('A' for Active; 'I' for Inactive)
REMARK    1  A    between atoms: N_3  and  C_5
REMARK    2  A    between atoms: N_3  and  C_9
REMARK    3  A    between atoms: N_3  and  C_10
REMARK    4  A    between atoms: C_5  and  C_8
REMARK    5  A    between atoms: C_8  and  C_11
REMARK    6  A    between atoms: C_9  and  C_12
REMARK    7  A    between atoms: C_10  and  C_13
REMARK    8  A    between atoms: C_15  and  C_16
REMARK    9  A    between atoms: C_16  and  C_17
REMARK   10  A    between atoms: C_17  and  C_18
REMARK   11  A    between atoms: C_17  and  C_19
REMARK                            x       y       z     vdW  Elec       q    Type
REMARK                         _______ _______ _______ _____ _____    ______ ____
ROOT
ATOM      8  C   UNL     1     -16.157   3.660  32.283  0.00  0.00    +0.085 C 
ENDROOT
BRANCH   8  11
ATOM      2  O   UNL     1     -14.582   6.423  33.907  0.00  0.00    -0.359 OA
ATOM      4  N   UNL     1     -15.195   5.175  33.921  0.00  0.00    -0.083 NA
ATOM     11  C   UNL     1     -15.490   4.921  32.644  0.00  0.00    +0.086 A 
ATOM     14  C   UNL     1     -15.093   5.962  31.785  0.00  0.00    +0.071 A 
ATOM     15  C   UNL     1     -14.528   6.881  32.629  0.00  0.00    +0.138 A 
BRANCH  15  16
ATOM     16  C   UNL     1     -13.889   8.232  32.425  0.00  0.00    +0.080 C 
BRANCH  16  17
ATOM     17  C   UNL     1     -12.383   8.266  32.753  0.00  0.00    -0.010 C 
ATOM     18  C   UNL     1     -12.154   9.032  34.058  0.00  0.00    +0.007 C 
ATOM     19  C   UNL     1     -11.565   8.907  31.629  0.00  0.00    +0.007 C 
ENDBRANCH  16  17
ENDBRANCH  15  16
ENDBRANCH   8  11
BRANCH   8   5
ATOM      1  O   UNL     1     -13.283   1.940  32.739  0.00  0.00    -0.376 OA
ATOM      5  C   UNL     1     -15.136   2.583  31.895  0.00  0.00    +0.074 C 
ATOM      6  C   UNL     1     -13.663   2.965  31.793  0.00  0.00    +0.184 C 
ATOM      7  C   UNL     1     -14.670   1.590  32.954  0.00  0.00    +0.184 C 
BRANCH   5   3
ATOM      3  N   UNL     1     -15.514   1.847  30.696  0.00  0.00    -0.293 NA
BRANCH   3   9
ATOM      9  C   UNL     1     -14.753   2.349  29.546  0.00  0.00    +0.082 C 
ATOM     12  C   UNL     1     -15.611   3.250  28.672  0.00  0.00    +0.020 C 
ENDBRANCH   3   9
BRANCH   3  10
ATOM     10  C   UNL     1     -15.247   0.416  30.888  0.00  0.00    +0.082 C 
ATOM     13  C   UNL     1     -14.402  -0.141  29.755  0.00  0.00    +0.020 C 
ENDBRANCH   3  10
ENDBRANCH   5   3
ENDBRANCH   8   5
TORSDOF 7
ENDMDL
MODEL 10
REMARK VINA RESULT:      -4.4     28.566     30.169
REMARK  Name = 56775668
REMARK  11 active torsions:
REMARK  status: ('A' for Active; 'I' for Inactive)
REMARK    1  A    between atoms: N_3  and  C_5
REMARK    2  A    between atoms: N_3  and  C_9
REMARK    3  A    between atoms: N_3  and  C_10
REMARK    4  A    between atoms: C_5  and  C_8
REMARK    5  A    between atoms: C_8  and  C_11
REMARK    6  A    between atoms: C_9  and  C_12
REMARK    7  A    between atoms: C_10  and  C_13
REMARK    8  A    between atoms: C_15  and  C_16
REMARK    9  A    between atoms: C_16  and  C_17
REMARK   10  A    between atoms: C_17  and  C_18
REMARK   11  A    between atoms: C_17  and  C_19
REMARK                            x       y       z     vdW  Elec       q    Type
REMARK                         _______ _______ _______ _____ _____    ______ ____
ROOT
ATOM      8  C   UNL     1       0.856   3.369  -4.923  0.00  0.00    +0.085 C 
ENDROOT
BRANCH   8  11
ATOM      2  O   UNL     1       2.964   6.149  -4.155  0.00  0.00    -0.359 OA
ATOM      4  N   UNL     1       2.612   4.807  -4.053  0.00  0.00    -0.083 NA
ATOM     11  C   UNL     1       1.512   4.682  -4.799  0.00  0.00    +0.086 A 
ATOM     14  C   UNL     1       1.125   5.897  -5.391  0.00  0.00    +0.071 A 
ATOM     15  C   UNL     1       2.070   6.787  -4.954  0.00  0.00    +0.138 A 
BRANCH  15  16
ATOM     16  C   UNL     1       2.300   8.261  -5.177  0.00  0.00    +0.080 C 
BRANCH  16  17
ATOM     17  C   UNL     1       1.012   9.054  -5.475  0.00  0.00    -0.010 C 
ATOM     18  C   UNL     1       1.153   9.789  -6.810  0.00  0.00    +0.007 C 
ATOM     19  C   UNL     1       0.687  10.058  -4.366  0.00  0.00    +0.007 C 
ENDBRANCH  16  17
ENDBRANCH  15  16
ENDBRANCH   8  11
BRANCH   8   5
ATOM      1  O   UNL     1       2.220   3.332  -8.016  0.00  0.00    -0.376 OA
ATOM      5  C   UNL     1       1.253   2.672  -6.230  0.00  0.00    +0.074 C 
ATOM      6  C   UNL     1       0.849   3.305  -7.557  0.00  0.00    +0.184 C 
ATOM      7  C   UNL     1       2.681   2.821  -6.744  0.00  0.00    +0.184 C 
BRANCH   5   3
ATOM      3  N   UNL     1       0.891   1.262  -6.254  0.00  0.00    -0.293 NA
BRANCH   3   9
ATOM      9  C   UNL     1       0.778   0.755  -4.881  0.00  0.00    +0.082 C 
ATOM     12  C   UNL     1       1.979  -0.099  -4.510  0.00  0.00    +0.020 C 
ENDBRANCH   3   9
BRANCH   3  10
ATOM     10  C   UNL     1      -0.386   1.089  -6.959  0.00  0.00    +0.082 C 
ATOM     13  C   UNL     1      -1.000  -0.268  -6.659  0.00  0.00    +0.020 C 
ENDBRANCH   3  10
ENDBRANCH   5   3
ENDBRANCH   8   5
TORSDOF 7
ENDMDL
