REMARK  Name = 7051380
REMARK  6 active torsions:
REMARK  status: ('A' for Active; 'I' for Inactive)
REMARK    1  A    between atoms: S_1  and  N_10
REMARK    2  A    between atoms: S_1  and  C_24
REMARK    3  A    between atoms: O_6  and  C_31
REMARK    4  A    between atoms: O_6  and  C_35
REMARK    5  A    between atoms: N_9  and  C_23
REMARK    6  A    between atoms: N_10  and  C_21
REMARK                            x       y       z     vdW  Elec       q    Type
REMARK                         _______ _______ _______ _____ _____    ______ ____
ROOT
ATOM      2  O   UNL     1      -1.060   2.657   1.854  0.00  0.00    -0.266 OA
ATOM      3  O   UNL     1      -2.566  -2.371   1.631  0.00  0.00    -0.252 OA
ATOM      7  N   UNL     1      -3.651  -1.202  -0.046  0.00  0.00    -0.284 N 
ATOM      8  N   UNL     1      -2.484   1.758   0.225  0.00  0.00    -0.310 N 
ATOM      9  N   UNL     1      -1.768  -2.536  -0.540  0.00  0.00    -0.269 N 
ATOM     11  C   UNL     1      -4.820   0.860   0.753  0.00  0.00    +0.027 C 
ATOM     12  C   UNL     1      -3.969   0.758  -1.550  0.00  0.00    +0.054 C 
ATOM     13  C   UNL     1      -5.139   1.228  -0.690  0.00  0.00    +0.018 C 
ATOM     14  C   UNL     1      -4.640  -0.661   0.891  0.00  0.00    +0.114 C 
ATOM     15  C   UNL     1      -3.573   1.631   1.201  0.00  0.00    +0.130 C 
ATOM     16  C   UNL     1      -3.824  -0.775  -1.446  0.00  0.00    +0.119 C 
ATOM     17  C   UNL     1      -2.673   1.423  -1.123  0.00  0.00    +0.027 A 
ATOM     18  C   UNL     1      -1.702   1.656  -2.026  0.00  0.00    +0.024 A 
ATOM     19  C   UNL     1      -1.280   2.328   0.689  0.00  0.00    +0.274 A 
ATOM     20  C   UNL     1      -2.640  -2.062   0.439  0.00  0.00    +0.306 C 
ATOM     21  C   UNL     1      -0.239   2.538  -0.349  0.00  0.00    +0.112 A 
ATOM     22  C   UNL     1      -0.445   2.231  -1.630  0.00  0.00    +0.031 A 
ATOM     36  H   UNL     1      -2.112  -2.620  -1.490  0.00  0.00    +0.156 HD
ENDROOT
BRANCH   9  23
ATOM     23  C   UNL     1      -0.434  -2.976  -0.357  0.00  0.00    +0.035 A 
ATOM     25  C   UNL     1       0.272  -3.512  -1.430  0.00  0.00    +0.027 A 
ATOM     26  C   UNL     1       0.164  -2.870   0.896  0.00  0.00    +0.027 A 
ATOM     27  C   UNL     1       1.585  -3.946  -1.249  0.00  0.00    +0.047 A 
ATOM     28  C   UNL     1       1.477  -3.304   1.077  0.00  0.00    +0.047 A 
ATOM     31  C   UNL     1       2.188  -3.842   0.005  0.00  0.00    +0.120 A 
BRANCH  31   6
ATOM      6  O   UNL     1       3.470  -4.263   0.181  0.00  0.00    -0.495 OA
ATOM     35  C   UNL     1       4.024  -4.128   1.489  0.00  0.00    +0.277 C 
ENDBRANCH  31   6
ENDBRANCH   9  23
BRANCH  21  10
ATOM     10  N   UNL     1       1.006   3.091  -0.001  0.00  0.00    -0.211 N 
ATOM     37  H   UNL     1       1.527   3.446  -0.816  0.00  0.00    +0.174 HD
BRANCH  10   1
ATOM      1  S   UNL     1       1.946   2.233   1.115  0.00  0.00    +0.072 S 
ATOM      4  O   UNL     1       2.337   3.111   2.202  0.00  0.00    -0.150 OA
ATOM      5  O   UNL     1       1.323   0.954   1.397  0.00  0.00    -0.150 OA
BRANCH   1  24
ATOM     24  C   UNL     1       3.393   1.914   0.150  0.00  0.00    +0.108 A 
ATOM     29  C   UNL     1       4.432   2.828   0.168  0.00  0.00    +0.029 A 
ATOM     30  C   UNL     1       3.459   0.756  -0.605  0.00  0.00    +0.029 A 
ATOM     32  C   UNL     1       5.573   2.576  -0.593  0.00  0.00    +0.002 A 
ATOM     33  C   UNL     1       4.600   0.504  -1.367  0.00  0.00    +0.002 A 
ATOM     34  C   UNL     1       5.657   1.415  -1.361  0.00  0.00    +0.000 A 
ENDBRANCH   1  24
ENDBRANCH  10   1
ENDBRANCH  21  10
TORSDOF 5
