MODEL 1
REMARK VINA RESULT:      -6.6      0.000      0.000
REMARK  Name = 45783702
REMARK  6 active torsions:
REMARK  status: ('A' for Active; 'I' for Inactive)
REMARK    1  A    between atoms: O_2  and  C_24
REMARK    2  A    between atoms: O_2  and  C_25
REMARK    3  A    between atoms: N_3  and  C_12
REMARK    4  A    between atoms: C_8  and  C_13
REMARK    5  A    between atoms: C_12  and  C_14
REMARK    6  A    between atoms: C_15  and  C_18
REMARK                            x       y       z     vdW  Elec       q    Type
REMARK                         _______ _______ _______ _____ _____    ______ ____
ROOT
ATOM      1  O   UNL     1      14.424   6.620  19.852  0.00  0.00    -0.336 OA
ATOM      4  N   UNL     1      15.656   7.931  21.188  0.00  0.00    -0.190 NA
ATOM      5  N   UNL     1      15.752   6.202  19.692  0.00  0.00    -0.056 NA
ATOM     13  C   UNL     1      14.457   7.641  20.749  0.00  0.00    +0.245 A 
ATOM     15  C   UNL     1      16.417   7.022  20.512  0.00  0.00    +0.204 A 
ENDROOT
BRANCH  15  18
ATOM      7  N   UNL     1      19.876   7.994  21.470  0.00  0.00    -0.221 NA
ATOM     18  C   UNL     1      17.840   6.960  20.676  0.00  0.00    +0.041 A 
ATOM     21  C   UNL     1      18.565   5.862  20.223  0.00  0.00    +0.018 A 
ATOM     22  C   UNL     1      18.537   7.989  21.287  0.00  0.00    +0.126 A 
ATOM     23  C   UNL     1      19.944   5.828  20.394  0.00  0.00    +0.068 A 
ATOM     24  C   UNL     1      20.547   6.909  21.018  0.00  0.00    +0.214 A 
BRANCH  24   2
ATOM      2  O   UNL     1      21.905   6.901  21.198  0.00  0.00    -0.480 OA
ATOM     25  C   UNL     1      22.676   7.682  20.293  0.00  0.00    +0.279 C 
ENDBRANCH  24   2
ENDBRANCH  15  18
BRANCH  13   8
ATOM      3  N   UNL     1      12.315   8.586  19.906  0.00  0.00    -0.287 NA
ATOM      8  C   UNL     1      13.127   8.275  21.099  0.00  0.00    +0.146 C 
ATOM      9  C   UNL     1      12.235   7.352  21.948  0.00  0.00    +0.030 C 
ATOM     10  C   UNL     1      10.923   7.252  21.184  0.00  0.00    +0.017 C 
ATOM     11  C   UNL     1      10.916   8.500  20.325  0.00  0.00    +0.085 C 
BRANCH   3  12
ATOM     12  C   UNL     1      12.632   9.883  19.318  0.00  0.00    +0.121 C 
BRANCH  12  14
ATOM      6  N   UNL     1      13.670   8.365  16.009  0.00  0.00    -0.263 NA
ATOM     14  C   UNL     1      13.243   9.743  17.950  0.00  0.00    -0.015 A 
ATOM     16  C   UNL     1      13.926  10.801  17.358  0.00  0.00    +0.008 A 
ATOM     17  C   UNL     1      13.144   8.556  17.240  0.00  0.00    +0.115 A 
ATOM     19  C   UNL     1      14.481  10.641  16.093  0.00  0.00    +0.020 A 
ATOM     20  C   UNL     1      14.326   9.415  15.467  0.00  0.00    +0.111 A 
ENDBRANCH  12  14
ENDBRANCH   3  12
ENDBRANCH  13   8
TORSDOF 5
ENDMDL
MODEL 2
REMARK VINA RESULT:      -6.5      1.550      3.537
REMARK  Name = 45783702
REMARK  6 active torsions:
REMARK  status: ('A' for Active; 'I' for Inactive)
REMARK    1  A    between atoms: O_2  and  C_24
REMARK    2  A    between atoms: O_2  and  C_25
REMARK    3  A    between atoms: N_3  and  C_12
REMARK    4  A    between atoms: C_8  and  C_13
REMARK    5  A    between atoms: C_12  and  C_14
REMARK    6  A    between atoms: C_15  and  C_18
REMARK                            x       y       z     vdW  Elec       q    Type
REMARK                         _______ _______ _______ _____ _____    ______ ____
ROOT
ATOM      1  O   UNL     1      14.079   7.044  20.715  0.00  0.00    -0.336 OA
ATOM      4  N   UNL     1      15.737   7.384  19.247  0.00  0.00    -0.190 NA
ATOM      5  N   UNL     1      15.272   6.936  21.442  0.00  0.00    -0.056 NA
ATOM     13  C   UNL     1      14.443   7.307  19.433  0.00  0.00    +0.245 A 
ATOM     15  C   UNL     1      16.203   7.149  20.508  0.00  0.00    +0.204 A 
ENDROOT
BRANCH  15  18
ATOM      7  N   UNL     1      19.510   8.183  21.861  0.00  0.00    -0.221 NA
ATOM     18  C   UNL     1      17.607   7.133  20.802  0.00  0.00    +0.041 A 
ATOM     21  C   UNL     1      18.422   6.105  20.339  0.00  0.00    +0.018 A 
ATOM     22  C   UNL     1      18.195   8.138  21.551  0.00  0.00    +0.126 A 
ATOM     23  C   UNL     1      19.780   6.114  20.637  0.00  0.00    +0.068 A 
ATOM     24  C   UNL     1      20.270   7.166  21.395  0.00  0.00    +0.214 A 
BRANCH  24   2
ATOM      2  O   UNL     1      21.605   7.199  21.703  0.00  0.00    -0.480 OA
ATOM     25  C   UNL     1      22.513   7.277  20.610  0.00  0.00    +0.279 C 
ENDBRANCH  24   2
ENDBRANCH  15  18
BRANCH  13   8
ATOM      3  N   UNL     1      12.492   8.666  18.699  0.00  0.00    -0.287 NA
ATOM      8  C   UNL     1      13.318   7.472  18.432  0.00  0.00    +0.146 C 
ATOM      9  C   UNL     1      13.828   7.664  16.992  0.00  0.00    +0.030 C 
ATOM     10  C   UNL     1      13.187   8.958  16.512  0.00  0.00    +0.017 C 
ATOM     11  C   UNL     1      11.972   9.106  17.404  0.00  0.00    +0.085 C 
BRANCH   3  12
ATOM     12  C   UNL     1      11.426   8.422  19.664  0.00  0.00    +0.121 C 
BRANCH  12  14
ATOM      6  N   UNL     1      10.845   9.926  23.089  0.00  0.00    -0.263 NA
ATOM     14  C   UNL     1      11.491   9.379  20.824  0.00  0.00    -0.015 A 
ATOM     16  C   UNL     1      12.219  10.562  20.739  0.00  0.00    +0.008 A 
ATOM     17  C   UNL     1      10.827   9.110  22.011  0.00  0.00    +0.115 A 
ATOM     19  C   UNL     1      12.260  11.426  21.827  0.00  0.00    +0.020 A 
ATOM     20  C   UNL     1      11.562  11.065  22.968  0.00  0.00    +0.111 A 
ENDBRANCH  12  14
ENDBRANCH   3  12
ENDBRANCH  13   8
TORSDOF 5
ENDMDL
MODEL 3
REMARK VINA RESULT:      -6.3     26.211     29.172
REMARK  Name = 45783702
REMARK  6 active torsions:
REMARK  status: ('A' for Active; 'I' for Inactive)
REMARK    1  A    between atoms: O_2  and  C_24
REMARK    2  A    between atoms: O_2  and  C_25
REMARK    3  A    between atoms: N_3  and  C_12
REMARK    4  A    between atoms: C_8  and  C_13
REMARK    5  A    between atoms: C_12  and  C_14
REMARK    6  A    between atoms: C_15  and  C_18
REMARK                            x       y       z     vdW  Elec       q    Type
REMARK                         _______ _______ _______ _____ _____    ______ ____
ROOT
ATOM      1  O   UNL     1      -5.451 -11.970  16.608  0.00  0.00    -0.336 OA
ATOM      4  N   UNL     1      -5.737 -10.084  15.434  0.00  0.00    -0.190 NA
ATOM      5  N   UNL     1      -6.748 -11.526  16.894  0.00  0.00    -0.056 NA
ATOM     13  C   UNL     1      -4.926 -11.064  15.742  0.00  0.00    +0.245 A 
ATOM     15  C   UNL     1      -6.842 -10.410  16.165  0.00  0.00    +0.204 A 
ENDROOT
BRANCH  15  18
ATOM      7  N   UNL     1      -9.893  -8.697  14.905  0.00  0.00    -0.221 NA
ATOM     18  C   UNL     1      -8.025  -9.599  16.146  0.00  0.00    +0.041 A 
ATOM     21  C   UNL     1      -8.456  -8.937  17.291  0.00  0.00    +0.018 A 
ATOM     22  C   UNL     1      -8.772  -9.447  14.990  0.00  0.00    +0.126 A 
ATOM     23  C   UNL     1      -9.605  -8.156  17.245  0.00  0.00    +0.068 A 
ATOM     24  C   UNL     1     -10.282  -8.069  16.039  0.00  0.00    +0.214 A 
BRANCH  24   2
ATOM      2  O   UNL     1     -11.418  -7.305  15.966  0.00  0.00    -0.480 OA
ATOM     25  C   UNL     1     -11.239  -5.910  15.757  0.00  0.00    +0.279 C 
ENDBRANCH  24   2
ENDBRANCH  15  18
BRANCH  13   8
ATOM      3  N   UNL     1      -3.168 -10.560  14.054  0.00  0.00    -0.287 NA
ATOM      8  C   UNL     1      -3.510 -11.323  15.271  0.00  0.00    +0.146 C 
ATOM      9  C   UNL     1      -2.453 -10.900  16.307  0.00  0.00    +0.030 C 
ATOM     10  C   UNL     1      -1.527  -9.948  15.565  0.00  0.00    +0.017 C 
ATOM     11  C   UNL     1      -1.726 -10.318  14.110  0.00  0.00    +0.085 C 
BRANCH   3  12
ATOM     12  C   UNL     1      -3.563 -11.234  12.824  0.00  0.00    +0.121 C 
BRANCH  12  14
ATOM      6  N   UNL     1      -5.685  -8.722  10.947  0.00  0.00    -0.263 NA
ATOM     14  C   UNL     1      -4.006 -10.258  11.767  0.00  0.00    -0.015 A 
ATOM     16  C   UNL     1      -3.202  -9.978  10.667  0.00  0.00    +0.008 A 
ATOM     17  C   UNL     1      -5.228  -9.610  11.859  0.00  0.00    +0.115 A 
ATOM     19  C   UNL     1      -3.639  -9.072   9.707  0.00  0.00    +0.020 A 
ATOM     20  C   UNL     1      -4.876  -8.477   9.892  0.00  0.00    +0.111 A 
ENDBRANCH  12  14
ENDBRANCH   3  12
ENDBRANCH  13   8
TORSDOF 5
ENDMDL
MODEL 4
REMARK VINA RESULT:      -6.2     25.867     29.279
REMARK  Name = 45783702
REMARK  6 active torsions:
REMARK  status: ('A' for Active; 'I' for Inactive)
REMARK    1  A    between atoms: O_2  and  C_24
REMARK    2  A    between atoms: O_2  and  C_25
REMARK    3  A    between atoms: N_3  and  C_12
REMARK    4  A    between atoms: C_8  and  C_13
REMARK    5  A    between atoms: C_12  and  C_14
REMARK    6  A    between atoms: C_15  and  C_18
REMARK                            x       y       z     vdW  Elec       q    Type
REMARK                         _______ _______ _______ _____ _____    ______ ____
ROOT
ATOM      1  O   UNL     1      -5.098  -9.731  15.677  0.00  0.00    -0.336 OA
ATOM      4  N   UNL     1      -5.197 -11.594  16.918  0.00  0.00    -0.190 NA
ATOM      5  N   UNL     1      -6.304  -9.664  16.386  0.00  0.00    -0.056 NA
ATOM     13  C   UNL     1      -4.509 -10.899  16.048  0.00  0.00    +0.245 A 
ATOM     15  C   UNL     1      -6.290 -10.797  17.095  0.00  0.00    +0.204 A 
ENDROOT
BRANCH  15  18
ATOM      7  N   UNL     1      -9.607 -10.787  18.777  0.00  0.00    -0.221 NA
ATOM     18  C   UNL     1      -7.353 -11.161  17.986  0.00  0.00    +0.041 A 
ATOM     21  C   UNL     1      -7.195 -12.196  18.902  0.00  0.00    +0.018 A 
ATOM     22  C   UNL     1      -8.567 -10.494  17.964  0.00  0.00    +0.126 A 
ATOM     23  C   UNL     1      -8.242 -12.527  19.755  0.00  0.00    +0.068 A 
ATOM     24  C   UNL     1      -9.417 -11.799  19.654  0.00  0.00    +0.214 A 
BRANCH  24   2
ATOM      2  O   UNL     1     -10.463 -12.105  20.484  0.00  0.00    -0.480 OA
ATOM     25  C   UNL     1     -11.652 -11.340  20.325  0.00  0.00    +0.279 C 
ENDBRANCH  24   2
ENDBRANCH  15  18
BRANCH  13   8
ATOM      3  N   UNL     1      -2.963 -10.489  14.141  0.00  0.00    -0.287 NA
ATOM      8  C   UNL     1      -3.170 -11.210  15.413  0.00  0.00    +0.146 C 
ATOM      9  C   UNL     1      -1.981 -10.792  16.297  0.00  0.00    +0.030 C 
ATOM     10  C   UNL     1      -1.131  -9.887  15.419  0.00  0.00    +0.017 C 
ATOM     11  C   UNL     1      -1.519 -10.288  14.011  0.00  0.00    +0.085 C 
BRANCH   3  12
ATOM     12  C   UNL     1      -3.526 -11.183  12.990  0.00  0.00    +0.121 C 
BRANCH  12  14
ATOM      6  N   UNL     1      -5.734  -8.700  11.174  0.00  0.00    -0.263 NA
ATOM     14  C   UNL     1      -4.017 -10.220  11.941  0.00  0.00    -0.015 A 
ATOM     16  C   UNL     1      -3.261  -9.951  10.804  0.00  0.00    +0.008 A 
ATOM     17  C   UNL     1      -5.236  -9.575  12.077  0.00  0.00    +0.115 A 
ATOM     19  C   UNL     1      -3.742  -9.058   9.853  0.00  0.00    +0.020 A 
ATOM     20  C   UNL     1      -4.972  -8.465  10.083  0.00  0.00    +0.111 A 
ENDBRANCH  12  14
ENDBRANCH   3  12
ENDBRANCH  13   8
TORSDOF 5
ENDMDL
MODEL 5
REMARK VINA RESULT:      -6.0     13.767     17.670
REMARK  Name = 45783702
REMARK  6 active torsions:
REMARK  status: ('A' for Active; 'I' for Inactive)
REMARK    1  A    between atoms: O_2  and  C_24
REMARK    2  A    between atoms: O_2  and  C_25
REMARK    3  A    between atoms: N_3  and  C_12
REMARK    4  A    between atoms: C_8  and  C_13
REMARK    5  A    between atoms: C_12  and  C_14
REMARK    6  A    between atoms: C_15  and  C_18
REMARK                            x       y       z     vdW  Elec       q    Type
REMARK                         _______ _______ _______ _____ _____    ______ ____
ROOT
ATOM      1  O   UNL     1      11.860   6.516   4.159  0.00  0.00    -0.336 OA
ATOM      4  N   UNL     1      10.726   4.701   3.497  0.00  0.00    -0.190 NA
ATOM      5  N   UNL     1      12.307   6.229   2.863  0.00  0.00    -0.056 NA
ATOM     13  C   UNL     1      10.932   5.568   4.456  0.00  0.00    +0.245 A 
ATOM     15  C   UNL     1      11.591   5.146   2.541  0.00  0.00    +0.204 A 
ENDROOT
BRANCH  15  18
ATOM      7  N   UNL     1      10.734   3.876  -0.847  0.00  0.00    -0.221 NA
ATOM     18  C   UNL     1      11.720   4.486   1.274  0.00  0.00    +0.041 A 
ATOM     21  C   UNL     1      12.895   3.830   0.925  0.00  0.00    +0.018 A 
ATOM     22  C   UNL     1      10.678   4.480   0.360  0.00  0.00    +0.126 A 
ATOM     23  C   UNL     1      12.992   3.198  -0.309  0.00  0.00    +0.068 A 
ATOM     24  C   UNL     1      11.893   3.249  -1.152  0.00  0.00    +0.214 A 
BRANCH  24   2
ATOM      2  O   UNL     1      11.963   2.633  -2.374  0.00  0.00    -0.480 OA
ATOM     25  C   UNL     1      10.728   2.356  -3.022  0.00  0.00    +0.279 C 
ENDBRANCH  24   2
ENDBRANCH  15  18
BRANCH  13   8
ATOM      3  N   UNL     1      10.767   6.820   6.601  0.00  0.00    -0.287 NA
ATOM      8  C   UNL     1      10.288   5.660   5.823  0.00  0.00    +0.146 C 
ATOM      9  C   UNL     1       8.761   5.845   5.749  0.00  0.00    +0.030 C 
ATOM     10  C   UNL     1       8.471   7.097   6.563  0.00  0.00    +0.017 C 
ATOM     11  C   UNL     1       9.668   7.208   7.484  0.00  0.00    +0.085 C 
BRANCH   3  12
ATOM     12  C   UNL     1      11.995   6.547   7.339  0.00  0.00    +0.121 C 
BRANCH  12  14
ATOM      6  N   UNL     1      13.817   9.799   6.674  0.00  0.00    -0.263 NA
ATOM     14  C   UNL     1      13.092   7.511   6.977  0.00  0.00    -0.015 A 
ATOM     16  C   UNL     1      14.357   7.056   6.617  0.00  0.00    +0.008 A 
ATOM     17  C   UNL     1      12.875   8.880   6.989  0.00  0.00    +0.115 A 
ATOM     19  C   UNL     1      15.351   7.971   6.287  0.00  0.00    +0.020 A 
ATOM     20  C   UNL     1      15.032   9.318   6.331  0.00  0.00    +0.111 A 
ENDBRANCH  12  14
ENDBRANCH   3  12
ENDBRANCH  13   8
TORSDOF 5
ENDMDL
MODEL 6
REMARK VINA RESULT:      -5.6     27.482     29.096
REMARK  Name = 45783702
REMARK  6 active torsions:
REMARK  status: ('A' for Active; 'I' for Inactive)
REMARK    1  A    between atoms: O_2  and  C_24
REMARK    2  A    between atoms: O_2  and  C_25
REMARK    3  A    between atoms: N_3  and  C_12
REMARK    4  A    between atoms: C_8  and  C_13
REMARK    5  A    between atoms: C_12  and  C_14
REMARK    6  A    between atoms: C_15  and  C_18
REMARK                            x       y       z     vdW  Elec       q    Type
REMARK                         _______ _______ _______ _____ _____    ______ ____
ROOT
ATOM      1  O   UNL     1      -7.828  -9.652  11.603  0.00  0.00    -0.336 OA
ATOM      4  N   UNL     1      -5.774  -9.285  12.419  0.00  0.00    -0.190 NA
ATOM      5  N   UNL     1      -7.874 -10.018  12.955  0.00  0.00    -0.056 NA
ATOM     13  C   UNL     1      -6.556  -9.233  11.370  0.00  0.00    +0.245 A 
ATOM     15  C   UNL     1      -6.626  -9.772  13.366  0.00  0.00    +0.204 A 
ENDROOT
BRANCH  15  18
ATOM      7  N   UNL     1      -6.751 -10.121  17.066  0.00  0.00    -0.221 NA
ATOM     18  C   UNL     1      -6.200 -10.006  14.716  0.00  0.00    +0.041 A 
ATOM     21  C   UNL     1      -4.878 -10.328  15.002  0.00  0.00    +0.018 A 
ATOM     22  C   UNL     1      -7.089  -9.916  15.774  0.00  0.00    +0.126 A 
ATOM     23  C   UNL     1      -4.491 -10.548  16.320  0.00  0.00    +0.068 A 
ATOM     24  C   UNL     1      -5.457 -10.434  17.306  0.00  0.00    +0.214 A 
BRANCH  24   2
ATOM      2  O   UNL     1      -5.103 -10.645  18.613  0.00  0.00    -0.480 OA
ATOM     25  C   UNL     1      -4.363 -11.827  18.893  0.00  0.00    +0.279 C 
ENDBRANCH  24   2
ENDBRANCH  15  18
BRANCH  13   8
ATOM      3  N   UNL     1      -5.341  -9.701   9.250  0.00  0.00    -0.287 NA
ATOM      8  C   UNL     1      -6.244  -8.775   9.961  0.00  0.00    +0.146 C 
ATOM      9  C   UNL     1      -7.499  -8.693   9.072  0.00  0.00    +0.030 C 
ATOM     10  C   UNL     1      -7.183  -9.555   7.858  0.00  0.00    +0.017 C 
ATOM     11  C   UNL     1      -5.669  -9.588   7.829  0.00  0.00    +0.085 C 
BRANCH   3  12
ATOM     12  C   UNL     1      -3.930  -9.440   9.509  0.00  0.00    +0.121 C 
BRANCH  12  14
ATOM      6  N   UNL     1      -3.299 -12.663  11.392  0.00  0.00    -0.263 NA
ATOM     14  C   UNL     1      -3.353 -10.417  10.498  0.00  0.00    -0.015 A 
ATOM     16  C   UNL     1      -2.376 -10.024  11.408  0.00  0.00    +0.008 A 
ATOM     17  C   UNL     1      -3.776 -11.736  10.531  0.00  0.00    +0.115 A 
ATOM     19  C   UNL     1      -1.862 -10.949  12.309  0.00  0.00    +0.020 A 
ATOM     20  C   UNL     1      -2.352 -12.243  12.261  0.00  0.00    +0.111 A 
ENDBRANCH  12  14
ENDBRANCH   3  12
ENDBRANCH  13   8
TORSDOF 5
ENDMDL
MODEL 7
REMARK VINA RESULT:      -5.5     13.958     17.508
REMARK  Name = 45783702
REMARK  6 active torsions:
REMARK  status: ('A' for Active; 'I' for Inactive)
REMARK    1  A    between atoms: O_2  and  C_24
REMARK    2  A    between atoms: O_2  and  C_25
REMARK    3  A    between atoms: N_3  and  C_12
REMARK    4  A    between atoms: C_8  and  C_13
REMARK    5  A    between atoms: C_12  and  C_14
REMARK    6  A    between atoms: C_15  and  C_18
REMARK                            x       y       z     vdW  Elec       q    Type
REMARK                         _______ _______ _______ _____ _____    ______ ____
ROOT
ATOM      1  O   UNL     1      12.474   7.345   5.042  0.00  0.00    -0.336 OA
ATOM      4  N   UNL     1      10.803   5.929   4.572  0.00  0.00    -0.190 NA
ATOM      5  N   UNL     1      12.694   6.905   3.731  0.00  0.00    -0.056 NA
ATOM     13  C   UNL     1      11.342   6.723   5.464  0.00  0.00    +0.245 A 
ATOM     15  C   UNL     1      11.667   6.074   3.526  0.00  0.00    +0.204 A 
ENDROOT
BRANCH  15  18
ATOM      7  N   UNL     1      10.046   4.830   0.419  0.00  0.00    -0.221 NA
ATOM     18  C   UNL     1      11.478   5.372   2.290  0.00  0.00    +0.041 A 
ATOM     21  C   UNL     1      12.485   4.572   1.761  0.00  0.00    +0.018 A 
ATOM     22  C   UNL     1      10.289   5.466   1.586  0.00  0.00    +0.126 A 
ATOM     23  C   UNL     1      12.275   3.902   0.561  0.00  0.00    +0.068 A 
ATOM     24  C   UNL     1      11.049   4.063  -0.066  0.00  0.00    +0.214 A 
BRANCH  24   2
ATOM      2  O   UNL     1      10.816   3.413  -1.249  0.00  0.00    -0.480 OA
ATOM     25  C   UNL     1      10.519   4.225  -2.378  0.00  0.00    +0.279 C 
ENDBRANCH  24   2
ENDBRANCH  15  18
BRANCH  13   8
ATOM      3  N   UNL     1       9.518   7.599   6.912  0.00  0.00    -0.287 NA
ATOM      8  C   UNL     1      10.883   7.037   6.872  0.00  0.00    +0.146 C 
ATOM      9  C   UNL     1      10.817   5.787   7.768  0.00  0.00    +0.030 C 
ATOM     10  C   UNL     1       9.397   5.763   8.315  0.00  0.00    +0.017 C 
ATOM     11  C   UNL     1       8.948   7.205   8.201  0.00  0.00    +0.085 C 
BRANCH   3  12
ATOM     12  C   UNL     1       9.486   9.043   6.717  0.00  0.00    +0.121 C 
BRANCH  12  14
ATOM      6  N   UNL     1       8.444  11.087   3.706  0.00  0.00    -0.263 NA
ATOM     14  C   UNL     1       8.843   9.417   5.409  0.00  0.00    -0.015 A 
ATOM     16  C   UNL     1       8.079   8.499   4.696  0.00  0.00    +0.008 A 
ATOM     17  C   UNL     1       8.994  10.687   4.875  0.00  0.00    +0.115 A 
ATOM     19  C   UNL     1       7.497   8.874   3.491  0.00  0.00    +0.020 A 
ATOM     20  C   UNL     1       7.708  10.168   3.043  0.00  0.00    +0.111 A 
ENDBRANCH  12  14
ENDBRANCH   3  12
ENDBRANCH  13   8
TORSDOF 5
ENDMDL
MODEL 8
REMARK VINA RESULT:      -5.4     29.994     31.795
REMARK  Name = 45783702
REMARK  6 active torsions:
REMARK  status: ('A' for Active; 'I' for Inactive)
REMARK    1  A    between atoms: O_2  and  C_24
REMARK    2  A    between atoms: O_2  and  C_25
REMARK    3  A    between atoms: N_3  and  C_12
REMARK    4  A    between atoms: C_8  and  C_13
REMARK    5  A    between atoms: C_12  and  C_14
REMARK    6  A    between atoms: C_15  and  C_18
REMARK                            x       y       z     vdW  Elec       q    Type
REMARK                         _______ _______ _______ _____ _____    ______ ____
ROOT
ATOM      1  O   UNL     1     -14.038  -5.675  11.953  0.00  0.00    -0.336 OA
ATOM      4  N   UNL     1     -12.248  -4.829  13.001  0.00  0.00    -0.190 NA
ATOM      5  N   UNL     1     -13.658  -6.628  12.907  0.00  0.00    -0.056 NA
ATOM     13  C   UNL     1     -13.155  -4.648  12.074  0.00  0.00    +0.245 A 
ATOM     15  C   UNL     1     -12.597  -6.056  13.484  0.00  0.00    +0.204 A 
ENDROOT
BRANCH  15  18
ATOM      7  N   UNL     1     -10.871  -6.537  16.743  0.00  0.00    -0.221 NA
ATOM     18  C   UNL     1     -11.863  -6.686  14.543  0.00  0.00    +0.041 A 
ATOM     21  C   UNL     1     -11.431  -8.003  14.429  0.00  0.00    +0.018 A 
ATOM     22  C   UNL     1     -11.560  -6.003  15.710  0.00  0.00    +0.126 A 
ATOM     23  C   UNL     1     -10.720  -8.588  15.471  0.00  0.00    +0.068 A 
ATOM     24  C   UNL     1     -10.468  -7.820  16.596  0.00  0.00    +0.214 A 
BRANCH  24   2
ATOM      2  O   UNL     1      -9.769  -8.373  17.637  0.00  0.00    -0.480 OA
ATOM     25  C   UNL     1      -8.551  -9.032  17.312  0.00  0.00    +0.279 C 
ENDBRANCH  24   2
ENDBRANCH  15  18
BRANCH  13   8
ATOM      3  N   UNL     1     -12.911  -3.763   9.761  0.00  0.00    -0.287 NA
ATOM      8  C   UNL     1     -13.354  -3.474  11.140  0.00  0.00    +0.146 C 
ATOM      9  C   UNL     1     -14.833  -3.071  10.998  0.00  0.00    +0.030 C 
ATOM     10  C   UNL     1     -15.113  -3.104   9.503  0.00  0.00    +0.017 C 
ATOM     11  C   UNL     1     -13.742  -2.943   8.880  0.00  0.00    +0.085 C 
BRANCH   3  12
ATOM     12  C   UNL     1     -11.488  -3.523   9.554  0.00  0.00    +0.121 C 
BRANCH  12  14
ATOM      6  N   UNL     1      -8.778  -5.855   8.312  0.00  0.00    -0.263 NA
ATOM     14  C   UNL     1     -10.749  -4.791   9.222  0.00  0.00    -0.015 A 
ATOM     16  C   UNL     1     -11.304  -6.038   9.495  0.00  0.00    +0.008 A 
ATOM     17  C   UNL     1      -9.494  -4.755   8.634  0.00  0.00    +0.115 A 
ATOM     19  C   UNL     1     -10.597  -7.192   9.177  0.00  0.00    +0.020 A 
ATOM     20  C   UNL     1      -9.349  -7.048   8.592  0.00  0.00    +0.111 A 
ENDBRANCH  12  14
ENDBRANCH   3  12
ENDBRANCH  13   8
TORSDOF 5
ENDMDL
MODEL 9
REMARK VINA RESULT:      -5.3     27.785     30.422
REMARK  Name = 45783702
REMARK  6 active torsions:
REMARK  status: ('A' for Active; 'I' for Inactive)
REMARK    1  A    between atoms: O_2  and  C_24
REMARK    2  A    between atoms: O_2  and  C_25
REMARK    3  A    between atoms: N_3  and  C_12
REMARK    4  A    between atoms: C_8  and  C_13
REMARK    5  A    between atoms: C_12  and  C_14
REMARK    6  A    between atoms: C_15  and  C_18
REMARK                            x       y       z     vdW  Elec       q    Type
REMARK                         _______ _______ _______ _____ _____    ______ ____
ROOT
ATOM      1  O   UNL     1      -8.120  -9.450   8.676  0.00  0.00    -0.336 OA
ATOM      4  N   UNL     1      -6.390  -8.083   9.073  0.00  0.00    -0.190 NA
ATOM      5  N   UNL     1      -7.217 -10.181   9.459  0.00  0.00    -0.056 NA
ATOM     13  C   UNL     1      -7.556  -8.227   8.494  0.00  0.00    +0.245 A 
ATOM     15  C   UNL     1      -6.224  -9.307   9.652  0.00  0.00    +0.204 A 
ENDROOT
BRANCH  15  18
ATOM      7  N   UNL     1      -4.087 -10.612  12.402  0.00  0.00    -0.221 NA
ATOM     18  C   UNL     1      -5.053  -9.627  10.416  0.00  0.00    +0.041 A 
ATOM     21  C   UNL     1      -3.785  -9.286   9.959  0.00  0.00    +0.018 A 
ATOM     22  C   UNL     1      -5.149 -10.283  11.633  0.00  0.00    +0.126 A 
ATOM     23  C   UNL     1      -2.668  -9.607  10.721  0.00  0.00    +0.068 A 
ATOM     24  C   UNL     1      -2.870 -10.265  11.924  0.00  0.00    +0.214 A 
BRANCH  24   2
ATOM      2  O   UNL     1      -1.785 -10.593  12.694  0.00  0.00    -0.480 OA
ATOM     25  C   UNL     1      -1.891 -10.341  14.090  0.00  0.00    +0.279 C 
ENDBRANCH  24   2
ENDBRANCH  15  18
BRANCH  13   8
ATOM      3  N   UNL     1      -8.783  -7.794   6.373  0.00  0.00    -0.287 NA
ATOM      8  C   UNL     1      -8.347  -7.235   7.668  0.00  0.00    +0.146 C 
ATOM      9  C   UNL     1      -9.649  -6.791   8.360  0.00  0.00    +0.030 C 
ATOM     10  C   UNL     1     -10.754  -7.083   7.355  0.00  0.00    +0.017 C 
ATOM     11  C   UNL     1     -10.028  -7.108   6.026  0.00  0.00    +0.085 C 
BRANCH   3  12
ATOM     12  C   UNL     1      -7.777  -7.667   5.326  0.00  0.00    +0.121 C 
BRANCH  12  14
ATOM      6  N   UNL     1      -7.544 -10.470   2.792  0.00  0.00    -0.263 NA
ATOM     14  C   UNL     1      -7.441  -8.998   4.708  0.00  0.00    -0.015 A 
ATOM     16  C   UNL     1      -6.748  -9.968   5.425  0.00  0.00    +0.008 A 
ATOM     17  C   UNL     1      -7.814  -9.296   3.406  0.00  0.00    +0.115 A 
ATOM     19  C   UNL     1      -6.453 -11.188   4.827  0.00  0.00    +0.020 A 
ATOM     20  C   UNL     1      -6.870 -11.388   3.521  0.00  0.00    +0.111 A 
ENDBRANCH  12  14
ENDBRANCH   3  12
ENDBRANCH  13   8
TORSDOF 5
ENDMDL
MODEL 10
REMARK VINA RESULT:      -5.2      3.518      9.676
REMARK  Name = 45783702
REMARK  6 active torsions:
REMARK  status: ('A' for Active; 'I' for Inactive)
REMARK    1  A    between atoms: O_2  and  C_24
REMARK    2  A    between atoms: O_2  and  C_25
REMARK    3  A    between atoms: N_3  and  C_12
REMARK    4  A    between atoms: C_8  and  C_13
REMARK    5  A    between atoms: C_12  and  C_14
REMARK    6  A    between atoms: C_15  and  C_18
REMARK                            x       y       z     vdW  Elec       q    Type
REMARK                         _______ _______ _______ _____ _____    ______ ____
ROOT
ATOM      1  O   UNL     1      20.373   7.862  22.756  0.00  0.00    -0.336 OA
ATOM      4  N   UNL     1      19.553   6.184  21.518  0.00  0.00    -0.190 NA
ATOM      5  N   UNL     1      19.138   8.306  22.267  0.00  0.00    -0.056 NA
ATOM     13  C   UNL     1      20.542   6.605  22.267  0.00  0.00    +0.245 A 
ATOM     15  C   UNL     1      18.716   7.261  21.547  0.00  0.00    +0.204 A 
ENDROOT
BRANCH  15  18
ATOM      7  N   UNL     1      15.242   8.177  20.587  0.00  0.00    -0.221 NA
ATOM     18  C   UNL     1      17.466   7.264  20.845  0.00  0.00    +0.041 A 
ATOM     21  C   UNL     1      17.242   6.398  19.780  0.00  0.00    +0.018 A 
ATOM     22  C   UNL     1      16.443   8.126  21.205  0.00  0.00    +0.126 A 
ATOM     23  C   UNL     1      16.020   6.421  19.117  0.00  0.00    +0.068 A 
ATOM     24  C   UNL     1      15.062   7.321  19.555  0.00  0.00    +0.214 A 
BRANCH  24   2
ATOM      2  O   UNL     1      13.848   7.364  18.919  0.00  0.00    -0.480 OA
ATOM     25  C   UNL     1      12.719   6.923  19.664  0.00  0.00    +0.279 C 
ENDBRANCH  24   2
ENDBRANCH  15  18
BRANCH  13   8
ATOM      3  N   UNL     1      22.520   5.305  21.498  0.00  0.00    -0.287 NA
ATOM      8  C   UNL     1      21.820   5.894  22.657  0.00  0.00    +0.146 C 
ATOM      9  C   UNL     1      22.854   6.840  23.297  0.00  0.00    +0.030 C 
ATOM     10  C   UNL     1      24.118   6.668  22.467  0.00  0.00    +0.017 C 
ATOM     11  C   UNL     1      23.944   5.304  21.832  0.00  0.00    +0.085 C 
BRANCH   3  12
ATOM     12  C   UNL     1      22.036   3.973  21.154  0.00  0.00    +0.121 C 
BRANCH  12  14
ATOM      6  N   UNL     1      23.682   1.703  23.698  0.00  0.00    -0.263 NA
ATOM     14  C   UNL     1      22.905   2.893  21.741  0.00  0.00    -0.015 A 
ATOM     16  C   UNL     1      23.712   2.101  20.930  0.00  0.00    +0.008 A 
ATOM     17  C   UNL     1      22.926   2.656  23.106  0.00  0.00    +0.115 A 
ATOM     19  C   UNL     1      24.504   1.112  21.502  0.00  0.00    +0.020 A 
ATOM     20  C   UNL     1      24.453   0.955  22.878  0.00  0.00    +0.111 A 
ENDBRANCH  12  14
ENDBRANCH   3  12
ENDBRANCH  13   8
TORSDOF 5
ENDMDL
