MODEL 1
REMARK VINA RESULT:      -7.2      0.000      0.000
REMARK  Name = 45783945
REMARK  11 active torsions:
REMARK  status: ('A' for Active; 'I' for Inactive)
REMARK    1  A    between atoms: N_4  and  C_15
REMARK    2  A    between atoms: N_6  and  C_24
REMARK    3  A    between atoms: C_8  and  C_12
REMARK    4  A    between atoms: C_9  and  C_15
REMARK    5  A    between atoms: C_11  and  C_16
REMARK    6  A    between atoms: C_12  and  C_17
REMARK    7  A    between atoms: C_12  and  C_18
REMARK    8  A    between atoms: C_13  and  C_19
REMARK    9  A    between atoms: C_16  and  C_20
REMARK   10  A    between atoms: C_22  and  C_23
REMARK   11  A    between atoms: C_24  and  C_25
REMARK                            x       y       z     vdW  Elec       q    Type
REMARK                         _______ _______ _______ _____ _____    ______ ____
ROOT
ATOM      8  C   UNL     1      12.929   9.875  20.580  0.00  0.00    +0.000 C 
ATOM      9  C   UNL     1      11.485   9.792  21.135  0.00  0.00    +0.032 C 
ATOM     10  C   UNL     1      13.208   8.696  19.635  0.00  0.00    +0.012 C 
ATOM     11  C   UNL     1      13.031   7.334  20.334  0.00  0.00    +0.024 C 
ATOM     13  C   UNL     1      11.743   7.273  21.129  0.00  0.00    -0.073 C 
ATOM     14  C   UNL     1      11.059   8.381  21.467  0.00  0.00    -0.022 C 
ATOM     19  C   UNL     1      11.234   5.905  21.490  0.00  0.00    +0.039 C 
ENDROOT
BRANCH   8  12
ATOM     12  C   UNL     1      13.183  11.196  19.849  0.00  0.00    -0.013 C 
ATOM     17  C   UNL     1      14.409  11.896  20.424  0.00  0.00    +0.007 C 
ATOM     18  C   UNL     1      13.351  10.954  18.352  0.00  0.00    +0.007 C 
ENDBRANCH   8  12
BRANCH   9  15
ATOM     15  C   UNL     1      11.317  10.680  22.373  0.00  0.00    +0.113 C 
BRANCH  15   4
ATOM      3  O   UNL     1      12.938  12.723  23.609  0.00  0.00    -0.253 OA
ATOM      4  N   UNL     1      12.396  10.485  23.288  0.00  0.00    -0.299 N 
ATOM      6  N   UNL     1      14.131  11.061  24.706  0.00  0.00    -0.300 N 
ATOM     21  C   UNL     1      13.139  11.532  23.848  0.00  0.00    +0.300 C 
ATOM     31  H   UNL     1      12.599   9.542  23.605  0.00  0.00    +0.150 HD
ATOM     32  H   UNL     1      14.232  10.060  24.831  0.00  0.00    +0.150 HD
BRANCH   6  24
ATOM     24  C   UNL     1      15.036  11.938  25.412  0.00  0.00    +0.102 C 
ATOM     25  C   UNL     1      15.165  11.544  26.868  0.00  0.00    +0.024 C 
ENDBRANCH   6  24
ENDBRANCH  15   4
ENDBRANCH   9  15
BRANCH  11  16
ATOM     16  C   UNL     1      14.239   7.006  21.220  0.00  0.00    +0.105 C 
BRANCH  16  20
ATOM      2  O   UNL     1      16.644   6.637  21.026  0.00  0.00    -0.420 OA
ATOM      5  N   UNL     1      15.507   6.284  19.132  0.00  0.00    -0.112 NA
ATOM      7  N   UNL     1      16.844   6.040  18.879  0.00  0.00    -0.107 NA
ATOM     20  C   UNL     1      15.437   6.629  20.396  0.00  0.00    +0.218 A 
ATOM     22  C   UNL     1      17.470   6.259  20.012  0.00  0.00    +0.251 A 
BRANCH  22  23
ATOM      1  F   UNL     1      18.929   8.460  20.951  0.00  0.00    -0.205 F 
ATOM     23  C   UNL     1      18.862   6.162  20.340  0.00  0.00    +0.074 A 
ATOM     26  C   UNL     1      19.553   7.282  20.803  0.00  0.00    +0.136 A 
ATOM     27  C   UNL     1      19.526   4.944  20.193  0.00  0.00    +0.016 A 
ATOM     28  C   UNL     1      20.908   7.184  21.121  0.00  0.00    +0.039 A 
ATOM     29  C   UNL     1      20.881   4.846  20.509  0.00  0.00    +0.001 A 
ATOM     30  C   UNL     1      21.572   5.965  20.973  0.00  0.00    +0.003 A 
ENDBRANCH  22  23
ENDBRANCH  16  20
ENDBRANCH  11  16
TORSDOF 7
ENDMDL
MODEL 2
REMARK VINA RESULT:      -7.0     27.638     29.639
REMARK  Name = 45783945
REMARK  11 active torsions:
REMARK  status: ('A' for Active; 'I' for Inactive)
REMARK    1  A    between atoms: N_4  and  C_15
REMARK    2  A    between atoms: N_6  and  C_24
REMARK    3  A    between atoms: C_8  and  C_12
REMARK    4  A    between atoms: C_9  and  C_15
REMARK    5  A    between atoms: C_11  and  C_16
REMARK    6  A    between atoms: C_12  and  C_17
REMARK    7  A    between atoms: C_12  and  C_18
REMARK    8  A    between atoms: C_13  and  C_19
REMARK    9  A    between atoms: C_16  and  C_20
REMARK   10  A    between atoms: C_22  and  C_23
REMARK   11  A    between atoms: C_24  and  C_25
REMARK                            x       y       z     vdW  Elec       q    Type
REMARK                         _______ _______ _______ _____ _____    ______ ____
ROOT
ATOM      8  C   UNL     1      -6.544 -11.183  16.449  0.00  0.00    +0.000 C 
ATOM      9  C   UNL     1      -6.952 -11.286  17.940  0.00  0.00    +0.032 C 
ATOM     10  C   UNL     1      -5.471 -12.230  16.114  0.00  0.00    +0.012 C 
ATOM     11  C   UNL     1      -4.206 -12.066  16.979  0.00  0.00    +0.024 C 
ATOM     13  C   UNL     1      -4.546 -11.891  18.445  0.00  0.00    -0.073 C 
ATOM     14  C   UNL     1      -5.781 -11.555  18.857  0.00  0.00    -0.022 C 
ATOM     19  C   UNL     1      -3.443 -12.155  19.432  0.00  0.00    +0.039 C 
ENDROOT
BRANCH   8  12
ATOM     12  C   UNL     1      -7.746 -11.357  15.517  0.00  0.00    -0.013 C 
ATOM     17  C   UNL     1      -7.284 -11.471  14.068  0.00  0.00    +0.007 C 
ATOM     18  C   UNL     1      -8.562 -12.581  15.921  0.00  0.00    +0.007 C 
ENDBRANCH   8  12
BRANCH   9  15
ATOM     15  C   UNL     1      -7.681 -10.020  18.402  0.00  0.00    +0.113 C 
BRANCH  15   4
ATOM      3  O   UNL     1     -10.517 -10.447  18.083  0.00  0.00    -0.253 OA
ATOM      4  N   UNL     1      -8.627 -10.325  19.429  0.00  0.00    -0.299 N 
ATOM      6  N   UNL     1     -10.686 -10.802  20.370  0.00  0.00    -0.300 N 
ATOM     21  C   UNL     1      -9.994 -10.519  19.194  0.00  0.00    +0.300 C 
ATOM     31  H   UNL     1      -8.286 -10.474  20.374  0.00  0.00    +0.150 HD
ATOM     32  H   UNL     1     -10.171 -10.827  21.244  0.00  0.00    +0.150 HD
BRANCH   6  24
ATOM     24  C   UNL     1     -12.109 -11.045  20.402  0.00  0.00    +0.102 C 
ATOM     25  C   UNL     1     -12.885  -9.762  20.618  0.00  0.00    +0.024 C 
ENDBRANCH   6  24
ENDBRANCH  15   4
ENDBRANCH   9  15
BRANCH  11  16
ATOM     16  C   UNL     1      -3.338 -10.907  16.474  0.00  0.00    +0.105 C 
BRANCH  16  20
ATOM      2  O   UNL     1      -3.697 -10.448  14.104  0.00  0.00    -0.420 OA
ATOM      5  N   UNL     1      -1.976 -11.815  14.522  0.00  0.00    -0.112 NA
ATOM      7  N   UNL     1      -2.062 -11.643  13.154  0.00  0.00    -0.107 NA
ATOM     20  C   UNL     1      -2.948 -11.099  15.036  0.00  0.00    +0.218 A 
ATOM     22  C   UNL     1      -3.080 -10.839  12.955  0.00  0.00    +0.251 A 
BRANCH  22  23
ATOM      1  F   UNL     1      -1.536  -9.366  11.137  0.00  0.00    -0.205 F 
ATOM     23  C   UNL     1      -3.631 -10.317  11.739  0.00  0.00    +0.074 A 
ATOM     26  C   UNL     1      -2.830  -9.587  10.861  0.00  0.00    +0.136 A 
ATOM     27  C   UNL     1      -4.975 -10.540  11.436  0.00  0.00    +0.016 A 
ATOM     28  C   UNL     1      -3.371  -9.082   9.679  0.00  0.00    +0.039 A 
ATOM     29  C   UNL     1      -5.516 -10.033  10.254  0.00  0.00    +0.001 A 
ATOM     30  C   UNL     1      -4.714  -9.304   9.376  0.00  0.00    +0.003 A 
ENDBRANCH  22  23
ENDBRANCH  16  20
ENDBRANCH  11  16
TORSDOF 7
ENDMDL
MODEL 3
REMARK VINA RESULT:      -6.6     26.880     28.589
REMARK  Name = 45783945
REMARK  11 active torsions:
REMARK  status: ('A' for Active; 'I' for Inactive)
REMARK    1  A    between atoms: N_4  and  C_15
REMARK    2  A    between atoms: N_6  and  C_24
REMARK    3  A    between atoms: C_8  and  C_12
REMARK    4  A    between atoms: C_9  and  C_15
REMARK    5  A    between atoms: C_11  and  C_16
REMARK    6  A    between atoms: C_12  and  C_17
REMARK    7  A    between atoms: C_12  and  C_18
REMARK    8  A    between atoms: C_13  and  C_19
REMARK    9  A    between atoms: C_16  and  C_20
REMARK   10  A    between atoms: C_22  and  C_23
REMARK   11  A    between atoms: C_24  and  C_25
REMARK                            x       y       z     vdW  Elec       q    Type
REMARK                         _______ _______ _______ _____ _____    ______ ____
ROOT
ATOM      8  C   UNL     1     -12.863   8.441  20.627  0.00  0.00    +0.000 C 
ATOM      9  C   UNL     1     -13.482   8.353  22.045  0.00  0.00    +0.032 C 
ATOM     10  C   UNL     1     -11.653   9.387  20.630  0.00  0.00    +0.012 C 
ATOM     11  C   UNL     1     -12.026  10.810  21.089  0.00  0.00    +0.024 C 
ATOM     13  C   UNL     1     -12.872  10.792  22.345  0.00  0.00    -0.073 C 
ATOM     14  C   UNL     1     -13.505   9.681  22.764  0.00  0.00    -0.022 C 
ATOM     19  C   UNL     1     -12.939  12.069  23.136  0.00  0.00    +0.039 C 
ENDROOT
BRANCH   8  12
ATOM     12  C   UNL     1     -12.444   7.064  20.103  0.00  0.00    -0.013 C 
ATOM     17  C   UNL     1     -11.484   7.212  18.927  0.00  0.00    +0.007 C 
ATOM     18  C   UNL     1     -11.809   6.240  21.219  0.00  0.00    +0.007 C 
ENDBRANCH   8  12
BRANCH   9  15
ATOM     15  C   UNL     1     -14.902   7.776  21.994  0.00  0.00    +0.113 C 
BRANCH  15   4
ATOM      3  O   UNL     1     -14.954   4.893  22.116  0.00  0.00    -0.253 OA
ATOM      4  N   UNL     1     -15.163   6.968  23.143  0.00  0.00    -0.299 N 
ATOM      6  N   UNL     1     -15.455   5.034  24.378  0.00  0.00    -0.300 N 
ATOM     21  C   UNL     1     -15.172   5.567  23.123  0.00  0.00    +0.300 C 
ATOM     31  H   UNL     1     -15.287   7.427  24.040  0.00  0.00    +0.150 HD
ATOM     32  H   UNL     1     -15.634   5.670  25.148  0.00  0.00    +0.150 HD
BRANCH   6  24
ATOM     24  C   UNL     1     -15.523   3.614  24.628  0.00  0.00    +0.102 C 
ATOM     25  C   UNL     1     -16.067   3.319  26.010  0.00  0.00    +0.024 C 
ENDBRANCH   6  24
ENDBRANCH  15   4
ENDBRANCH   9  15
BRANCH  11  16
ATOM     16  C   UNL     1     -12.725  11.587  19.967  0.00  0.00    +0.105 C 
BRANCH  16  20
ATOM      2  O   UNL     1     -12.228  10.775  17.719  0.00  0.00    -0.420 OA
ATOM      5  N   UNL     1     -10.844  12.377  18.442  0.00  0.00    -0.112 NA
ATOM      7  N   UNL     1     -10.450  12.015  17.168  0.00  0.00    -0.107 NA
ATOM     20  C   UNL     1     -11.884  11.629  18.723  0.00  0.00    +0.218 A 
ATOM     22  C   UNL     1     -11.285  11.078  16.786  0.00  0.00    +0.251 A 
BRANCH  22  23
ATOM      1  F   UNL     1     -10.054   8.577  16.488  0.00  0.00    -0.205 F 
ATOM     23  C   UNL     1     -11.356  10.337  15.560  0.00  0.00    +0.074 A 
ATOM     26  C   UNL     1     -10.728   9.097  15.451  0.00  0.00    +0.136 A 
ATOM     27  C   UNL     1     -12.055  10.863  14.472  0.00  0.00    +0.016 A 
ATOM     28  C   UNL     1     -10.800   8.380  14.257  0.00  0.00    +0.039 A 
ATOM     29  C   UNL     1     -12.125  10.147  13.277  0.00  0.00    +0.001 A 
ATOM     30  C   UNL     1     -11.498   8.906  13.170  0.00  0.00    +0.003 A 
ENDBRANCH  22  23
ENDBRANCH  16  20
ENDBRANCH  11  16
TORSDOF 7
ENDMDL
MODEL 4
REMARK VINA RESULT:      -6.6     30.258     32.519
REMARK  Name = 45783945
REMARK  11 active torsions:
REMARK  status: ('A' for Active; 'I' for Inactive)
REMARK    1  A    between atoms: N_4  and  C_15
REMARK    2  A    between atoms: N_6  and  C_24
REMARK    3  A    between atoms: C_8  and  C_12
REMARK    4  A    between atoms: C_9  and  C_15
REMARK    5  A    between atoms: C_11  and  C_16
REMARK    6  A    between atoms: C_12  and  C_17
REMARK    7  A    between atoms: C_12  and  C_18
REMARK    8  A    between atoms: C_13  and  C_19
REMARK    9  A    between atoms: C_16  and  C_20
REMARK   10  A    between atoms: C_22  and  C_23
REMARK   11  A    between atoms: C_24  and  C_25
REMARK                            x       y       z     vdW  Elec       q    Type
REMARK                         _______ _______ _______ _____ _____    ______ ____
ROOT
ATOM      8  C   UNL     1     -15.393   1.336  29.913  0.00  0.00    +0.000 C 
ATOM      9  C   UNL     1     -16.643   1.493  29.010  0.00  0.00    +0.032 C 
ATOM     10  C   UNL     1     -15.700   1.817  31.340  0.00  0.00    +0.012 C 
ATOM     11  C   UNL     1     -16.144   3.292  31.375  0.00  0.00    +0.024 C 
ATOM     13  C   UNL     1     -17.192   3.588  30.321  0.00  0.00    -0.073 C 
ATOM     14  C   UNL     1     -17.410   2.767  29.279  0.00  0.00    -0.022 C 
ATOM     19  C   UNL     1     -18.017   4.830  30.517  0.00  0.00    +0.039 C 
ENDROOT
BRANCH   8  12
ATOM     12  C   UNL     1     -14.898  -0.113  29.950  0.00  0.00    -0.013 C 
ATOM     17  C   UNL     1     -13.381  -0.160  29.799  0.00  0.00    +0.007 C 
ATOM     18  C   UNL     1     -15.333  -0.792  31.244  0.00  0.00    +0.007 C 
ENDBRANCH   8  12
BRANCH   9  15
ATOM     15  C   UNL     1     -16.264   1.429  27.526  0.00  0.00    +0.113 C 
BRANCH  15   4
ATOM      3  O   UNL     1     -16.127   2.153  24.736  0.00  0.00    -0.253 OA
ATOM      4  N   UNL     1     -16.107   2.742  26.985  0.00  0.00    -0.299 N 
ATOM      6  N   UNL     1     -15.892   4.376  25.362  0.00  0.00    -0.300 N 
ATOM     21  C   UNL     1     -16.049   3.015  25.612  0.00  0.00    +0.300 C 
ATOM     31  H   UNL     1     -16.102   3.532  27.622  0.00  0.00    +0.150 HD
ATOM     32  H   UNL     1     -15.823   5.012  26.150  0.00  0.00    +0.150 HD
BRANCH   6  24
ATOM     24  C   UNL     1     -15.804   4.921  24.028  0.00  0.00    +0.102 C 
ATOM     25  C   UNL     1     -14.376   4.929  23.524  0.00  0.00    +0.024 C 
ENDBRANCH   6  24
ENDBRANCH  15   4
ENDBRANCH   9  15
BRANCH  11  16
ATOM     16  C   UNL     1     -14.944   4.234  31.235  0.00  0.00    +0.105 C 
BRANCH  16  20
ATOM      2  O   UNL     1     -13.834   6.059  32.418  0.00  0.00    -0.420 OA
ATOM      5  N   UNL     1     -15.253   4.876  33.681  0.00  0.00    -0.112 NA
ATOM      7  N   UNL     1     -14.701   5.867  34.471  0.00  0.00    -0.107 NA
ATOM     20  C   UNL     1     -14.719   5.026  32.491  0.00  0.00    +0.218 A 
ATOM     22  C   UNL     1     -13.879   6.532  33.694  0.00  0.00    +0.251 A 
BRANCH  22  23
ATOM      1  F   UNL     1     -13.014   7.128  36.292  0.00  0.00    -0.205 F 
ATOM     23  C   UNL     1     -13.038   7.659  33.974  0.00  0.00    +0.074 A 
ATOM     26  C   UNL     1     -12.631   7.922  35.281  0.00  0.00    +0.136 A 
ATOM     27  C   UNL     1     -12.630   8.495  32.934  0.00  0.00    +0.016 A 
ATOM     28  C   UNL     1     -11.813   9.020  35.550  0.00  0.00    +0.039 A 
ATOM     29  C   UNL     1     -11.813   9.593  33.203  0.00  0.00    +0.001 A 
ATOM     30  C   UNL     1     -11.405   9.856  34.510  0.00  0.00    +0.003 A 
ENDBRANCH  22  23
ENDBRANCH  16  20
ENDBRANCH  11  16
TORSDOF 7
ENDMDL
MODEL 5
REMARK VINA RESULT:      -6.5     25.863     29.697
REMARK  Name = 45783945
REMARK  11 active torsions:
REMARK  status: ('A' for Active; 'I' for Inactive)
REMARK    1  A    between atoms: N_4  and  C_15
REMARK    2  A    between atoms: N_6  and  C_24
REMARK    3  A    between atoms: C_8  and  C_12
REMARK    4  A    between atoms: C_9  and  C_15
REMARK    5  A    between atoms: C_11  and  C_16
REMARK    6  A    between atoms: C_12  and  C_17
REMARK    7  A    between atoms: C_12  and  C_18
REMARK    8  A    between atoms: C_13  and  C_19
REMARK    9  A    between atoms: C_16  and  C_20
REMARK   10  A    between atoms: C_22  and  C_23
REMARK   11  A    between atoms: C_24  and  C_25
REMARK                            x       y       z     vdW  Elec       q    Type
REMARK                         _______ _______ _______ _____ _____    ______ ____
ROOT
ATOM      8  C   UNL     1     -12.964   9.468  19.433  0.00  0.00    +0.000 C 
ATOM      9  C   UNL     1     -11.506   8.957  19.552  0.00  0.00    +0.032 C 
ATOM     10  C   UNL     1     -13.740   9.176  20.727  0.00  0.00    +0.012 C 
ATOM     11  C   UNL     1     -13.775   7.672  21.058  0.00  0.00    +0.024 C 
ATOM     13  C   UNL     1     -12.406   7.036  20.933  0.00  0.00    -0.073 C 
ATOM     14  C   UNL     1     -11.400   7.631  20.267  0.00  0.00    -0.022 C 
ATOM     19  C   UNL     1     -12.204   5.719  21.630  0.00  0.00    +0.039 C 
ENDROOT
BRANCH   8  12
ATOM     12  C   UNL     1     -13.018  10.967  19.124  0.00  0.00    -0.013 C 
ATOM     17  C   UNL     1     -14.463  11.454  19.101  0.00  0.00    +0.007 C 
ATOM     18  C   UNL     1     -12.200  11.752  20.144  0.00  0.00    +0.007 C 
ENDBRANCH   8  12
BRANCH   9  15
ATOM     15  C   UNL     1     -10.845   8.847  18.173  0.00  0.00    +0.113 C 
BRANCH  15   4
ATOM      3  O   UNL     1     -10.955  10.951  16.201  0.00  0.00    -0.253 OA
ATOM      4  N   UNL     1      -9.895   9.897  17.980  0.00  0.00    -0.299 N 
ATOM      6  N   UNL     1      -8.953  11.783  17.029  0.00  0.00    -0.300 N 
ATOM     21  C   UNL     1     -10.018  10.886  16.996  0.00  0.00    +0.300 C 
ATOM     31  H   UNL     1      -9.118   9.974  18.630  0.00  0.00    +0.150 HD
ATOM     32  H   UNL     1      -8.217  11.641  17.713  0.00  0.00    +0.150 HD
BRANCH   6  24
ATOM     24  C   UNL     1      -8.840  12.898  16.118  0.00  0.00    +0.102 C 
ATOM     25  C   UNL     1      -7.435  13.463  16.104  0.00  0.00    +0.024 C 
ENDBRANCH   6  24
ENDBRANCH  15   4
ENDBRANCH   9  15
BRANCH  11  16
ATOM     16  C   UNL     1     -14.802   6.939  20.189  0.00  0.00    +0.105 C 
BRANCH  16  20
ATOM      2  O   UNL     1     -15.645   6.159  22.343  0.00  0.00    -0.420 OA
ATOM      5  N   UNL     1     -16.296   4.916  20.601  0.00  0.00    -0.112 NA
ATOM      7  N   UNL     1     -16.841   4.365  21.745  0.00  0.00    -0.107 NA
ATOM     20  C   UNL     1     -15.607   5.960  20.997  0.00  0.00    +0.218 A 
ATOM     22  C   UNL     1     -16.434   5.122  22.737  0.00  0.00    +0.251 A 
BRANCH  22  23
ATOM      1  F   UNL     1     -15.413   3.026  24.294  0.00  0.00    -0.205 F 
ATOM     23  C   UNL     1     -16.689   5.028  24.145  0.00  0.00    +0.074 A 
ATOM     26  C   UNL     1     -16.164   3.968  24.884  0.00  0.00    +0.136 A 
ATOM     27  C   UNL     1     -17.467   6.000  24.775  0.00  0.00    +0.016 A 
ATOM     28  C   UNL     1     -16.415   3.881  26.253  0.00  0.00    +0.039 A 
ATOM     29  C   UNL     1     -17.718   5.912  26.144  0.00  0.00    +0.001 A 
ATOM     30  C   UNL     1     -17.192   4.853  26.883  0.00  0.00    +0.003 A 
ENDBRANCH  22  23
ENDBRANCH  16  20
ENDBRANCH  11  16
TORSDOF 7
ENDMDL
MODEL 6
REMARK VINA RESULT:      -6.3     27.714     30.415
REMARK  Name = 45783945
REMARK  11 active torsions:
REMARK  status: ('A' for Active; 'I' for Inactive)
REMARK    1  A    between atoms: N_4  and  C_15
REMARK    2  A    between atoms: N_6  and  C_24
REMARK    3  A    between atoms: C_8  and  C_12
REMARK    4  A    between atoms: C_9  and  C_15
REMARK    5  A    between atoms: C_11  and  C_16
REMARK    6  A    between atoms: C_12  and  C_17
REMARK    7  A    between atoms: C_12  and  C_18
REMARK    8  A    between atoms: C_13  and  C_19
REMARK    9  A    between atoms: C_16  and  C_20
REMARK   10  A    between atoms: C_22  and  C_23
REMARK   11  A    between atoms: C_24  and  C_25
REMARK                            x       y       z     vdW  Elec       q    Type
REMARK                         _______ _______ _______ _____ _____    ______ ____
ROOT
ATOM      8  C   UNL     1      -6.738 -10.127  10.104  0.00  0.00    +0.000 C 
ATOM      9  C   UNL     1      -5.935  -9.749   8.834  0.00  0.00    +0.032 C 
ATOM     10  C   UNL     1      -6.218  -9.345  11.319  0.00  0.00    +0.012 C 
ATOM     11  C   UNL     1      -4.724  -9.614  11.589  0.00  0.00    +0.024 C 
ATOM     13  C   UNL     1      -3.899  -9.522  10.322  0.00  0.00    -0.073 C 
ATOM     14  C   UNL     1      -4.458  -9.571   9.099  0.00  0.00    -0.022 C 
ATOM     19  C   UNL     1      -2.418  -9.327  10.491  0.00  0.00    +0.039 C 
ENDROOT
BRANCH   8  12
ATOM     12  C   UNL     1      -8.237  -9.870   9.925  0.00  0.00    -0.013 C 
ATOM     17  C   UNL     1      -8.992 -10.210  11.207  0.00  0.00    +0.007 C 
ATOM     18  C   UNL     1      -8.485  -8.420   9.522  0.00  0.00    +0.007 C 
ENDBRANCH   8  12
BRANCH   9  15
ATOM     15  C   UNL     1      -6.132 -10.789   7.725  0.00  0.00    +0.113 C 
BRANCH  15   4
ATOM      3  O   UNL     1      -5.681 -12.738   5.645  0.00  0.00    -0.253 OA
ATOM      4  N   UNL     1      -4.887 -11.111   7.103  0.00  0.00    -0.299 N 
ATOM      6  N   UNL     1      -3.426 -12.188   5.668  0.00  0.00    -0.300 N 
ATOM     21  C   UNL     1      -4.747 -12.074   6.096  0.00  0.00    +0.300 C 
ATOM     31  H   UNL     1      -4.065 -10.571   7.354  0.00  0.00    +0.150 HD
ATOM     32  H   UNL     1      -2.720 -11.607   6.108  0.00  0.00    +0.150 HD
BRANCH   6  24
ATOM     24  C   UNL     1      -3.014 -13.110   4.637  0.00  0.00    +0.102 C 
ATOM     25  C   UNL     1      -3.025 -12.456   3.271  0.00  0.00    +0.024 C 
ENDBRANCH   6  24
ENDBRANCH  15   4
ENDBRANCH   9  15
BRANCH  11  16
ATOM     16  C   UNL     1      -4.522 -10.967  12.279  0.00  0.00    +0.105 C 
BRANCH  16  20
ATOM      2  O   UNL     1      -4.855 -10.970  14.697  0.00  0.00    -0.420 OA
ATOM      5  N   UNL     1      -2.762 -10.502  14.062  0.00  0.00    -0.112 NA
ATOM      7  N   UNL     1      -2.806 -10.470  15.442  0.00  0.00    -0.107 NA
ATOM     20  C   UNL     1      -3.979 -10.798  13.670  0.00  0.00    +0.218 A 
ATOM     22  C   UNL     1      -4.046 -10.748  15.770  0.00  0.00    +0.251 A 
BRANCH  22  23
ATOM      1  F   UNL     1      -6.362  -9.310  16.420  0.00  0.00    -0.205 F 
ATOM     23  C   UNL     1      -4.669 -10.853  17.057  0.00  0.00    +0.074 A 
ATOM     26  C   UNL     1      -5.819 -10.119  17.342  0.00  0.00    +0.136 A 
ATOM     27  C   UNL     1      -4.118 -11.692  18.027  0.00  0.00    +0.016 A 
ATOM     28  C   UNL     1      -6.422 -10.224  18.595  0.00  0.00    +0.039 A 
ATOM     29  C   UNL     1      -4.719 -11.796  19.281  0.00  0.00    +0.001 A 
ATOM     30  C   UNL     1      -5.871 -11.062  19.565  0.00  0.00    +0.003 A 
ENDBRANCH  22  23
ENDBRANCH  16  20
ENDBRANCH  11  16
TORSDOF 7
ENDMDL
MODEL 7
REMARK VINA RESULT:      -6.3     27.874     29.707
REMARK  Name = 45783945
REMARK  11 active torsions:
REMARK  status: ('A' for Active; 'I' for Inactive)
REMARK    1  A    between atoms: N_4  and  C_15
REMARK    2  A    between atoms: N_6  and  C_24
REMARK    3  A    between atoms: C_8  and  C_12
REMARK    4  A    between atoms: C_9  and  C_15
REMARK    5  A    between atoms: C_11  and  C_16
REMARK    6  A    between atoms: C_12  and  C_17
REMARK    7  A    between atoms: C_12  and  C_18
REMARK    8  A    between atoms: C_13  and  C_19
REMARK    9  A    between atoms: C_16  and  C_20
REMARK   10  A    between atoms: C_22  and  C_23
REMARK   11  A    between atoms: C_24  and  C_25
REMARK                            x       y       z     vdW  Elec       q    Type
REMARK                         _______ _______ _______ _____ _____    ______ ____
ROOT
ATOM      8  C   UNL     1      -6.970 -11.787  16.508  0.00  0.00    +0.000 C 
ATOM      9  C   UNL     1      -7.314 -12.031  18.000  0.00  0.00    +0.032 C 
ATOM     10  C   UNL     1      -5.680 -12.528  16.128  0.00  0.00    +0.012 C 
ATOM     11  C   UNL     1      -4.478 -12.085  16.985  0.00  0.00    +0.024 C 
ATOM     13  C   UNL     1      -4.825 -12.042  18.460  0.00  0.00    -0.073 C 
ATOM     14  C   UNL     1      -6.097 -12.032  18.895  0.00  0.00    -0.022 C 
ATOM     19  C   UNL     1      -3.673 -12.057  19.427  0.00  0.00    +0.039 C 
ENDROOT
BRANCH   8  12
ATOM     12  C   UNL     1      -8.110 -12.222  15.583  0.00  0.00    -0.013 C 
ATOM     17  C   UNL     1      -8.032 -11.476  14.255  0.00  0.00    +0.007 C 
ATOM     18  C   UNL     1      -8.068 -13.731  15.359  0.00  0.00    +0.007 C 
ENDBRANCH   8  12
BRANCH   9  15
ATOM     15  C   UNL     1      -8.323 -10.996  18.511  0.00  0.00    +0.113 C 
BRANCH  15   4
ATOM      3  O   UNL     1     -10.577  -9.777  17.185  0.00  0.00    -0.253 OA
ATOM      4  N   UNL     1      -8.309  -9.826  17.691  0.00  0.00    -0.299 N 
ATOM      6  N   UNL     1      -9.154  -8.151  16.337  0.00  0.00    -0.300 N 
ATOM     21  C   UNL     1      -9.451  -9.293  17.078  0.00  0.00    +0.300 C 
ATOM     31  H   UNL     1      -7.440  -9.310  17.596  0.00  0.00    +0.150 HD
ATOM     32  H   UNL     1      -8.191  -7.833  16.296  0.00  0.00    +0.150 HD
BRANCH   6  24
ATOM     24  C   UNL     1     -10.155  -7.410  15.608  0.00  0.00    +0.102 C 
ATOM     25  C   UNL     1     -10.949  -6.501  16.524  0.00  0.00    +0.024 C 
ENDBRANCH   6  24
ENDBRANCH  15   4
ENDBRANCH   9  15
BRANCH  11  16
ATOM     16  C   UNL     1      -3.930 -10.735  16.511  0.00  0.00    +0.105 C 
BRANCH  16  20
ATOM      2  O   UNL     1      -4.068 -10.473  14.088  0.00  0.00    -0.420 OA
ATOM      5  N   UNL     1      -2.102 -11.254  14.815  0.00  0.00    -0.112 NA
ATOM      7  N   UNL     1      -2.040 -11.156  13.438  0.00  0.00    -0.107 NA
ATOM     20  C   UNL     1      -3.302 -10.844  15.151  0.00  0.00    +0.218 A 
ATOM     22  C   UNL     1      -3.208 -10.697  13.056  0.00  0.00    +0.251 A 
BRANCH  22  23
ATOM      1  F   UNL     1      -5.515 -11.920  12.038  0.00  0.00    -0.205 F 
ATOM     23  C   UNL     1      -3.710 -10.399  11.747  0.00  0.00    +0.074 A 
ATOM     26  C   UNL     1      -4.860 -11.031  11.276  0.00  0.00    +0.136 A 
ATOM     27  C   UNL     1      -3.042  -9.476  10.942  0.00  0.00    +0.016 A 
ATOM     28  C   UNL     1      -5.345 -10.739  10.001  0.00  0.00    +0.039 A 
ATOM     29  C   UNL     1      -3.526  -9.184   9.666  0.00  0.00    +0.001 A 
ATOM     30  C   UNL     1      -4.677  -9.816   9.196  0.00  0.00    +0.003 A 
ENDBRANCH  22  23
ENDBRANCH  16  20
ENDBRANCH  11  16
TORSDOF 7
ENDMDL
MODEL 8
REMARK VINA RESULT:      -6.3     26.852     28.552
REMARK  Name = 45783945
REMARK  11 active torsions:
REMARK  status: ('A' for Active; 'I' for Inactive)
REMARK    1  A    between atoms: N_4  and  C_15
REMARK    2  A    between atoms: N_6  and  C_24
REMARK    3  A    between atoms: C_8  and  C_12
REMARK    4  A    between atoms: C_9  and  C_15
REMARK    5  A    between atoms: C_11  and  C_16
REMARK    6  A    between atoms: C_12  and  C_17
REMARK    7  A    between atoms: C_12  and  C_18
REMARK    8  A    between atoms: C_13  and  C_19
REMARK    9  A    between atoms: C_16  and  C_20
REMARK   10  A    between atoms: C_22  and  C_23
REMARK   11  A    between atoms: C_24  and  C_25
REMARK                            x       y       z     vdW  Elec       q    Type
REMARK                         _______ _______ _______ _____ _____    ______ ____
ROOT
ATOM      8  C   UNL     1     -12.624   8.403  20.636  0.00  0.00    +0.000 C 
ATOM      9  C   UNL     1     -12.489   8.854  19.159  0.00  0.00    +0.032 C 
ATOM     10  C   UNL     1     -13.567   9.345  21.399  0.00  0.00    +0.012 C 
ATOM     11  C   UNL     1     -13.075  10.805  21.378  0.00  0.00    +0.024 C 
ATOM     13  C   UNL     1     -12.666  11.240  19.986  0.00  0.00    -0.073 C 
ATOM     14  C   UNL     1     -12.420  10.355  19.004  0.00  0.00    -0.022 C 
ATOM     19  C   UNL     1     -12.587  12.721  19.735  0.00  0.00    +0.039 C 
ENDROOT
BRANCH   8  12
ATOM     12  C   UNL     1     -13.131   6.962  20.745  0.00  0.00    -0.013 C 
ATOM     17  C   UNL     1     -12.058   6.065  21.355  0.00  0.00    +0.007 C 
ATOM     18  C   UNL     1     -14.412   6.908  21.571  0.00  0.00    +0.007 C 
ENDBRANCH   8  12
BRANCH   9  15
ATOM     15  C   UNL     1     -11.263   8.216  18.496  0.00  0.00    +0.113 C 
BRANCH  15   4
ATOM      3  O   UNL     1     -10.294   9.435  16.067  0.00  0.00    -0.253 OA
ATOM      4  N   UNL     1     -11.560   7.818  17.157  0.00  0.00    -0.299 N 
ATOM      6  N   UNL     1     -11.499   7.873  14.845  0.00  0.00    -0.300 N 
ATOM     21  C   UNL     1     -11.049   8.464  16.023  0.00  0.00    +0.300 C 
ATOM     31  H   UNL     1     -12.119   6.984  17.010  0.00  0.00    +0.150 HD
ATOM     32  H   UNL     1     -12.131   7.082  14.907  0.00  0.00    +0.150 HD
BRANCH   6  24
ATOM     24  C   UNL     1     -11.118   8.348  13.536  0.00  0.00    +0.102 C 
ATOM     25  C   UNL     1     -10.055   7.466  12.913  0.00  0.00    +0.024 C 
ENDBRANCH   6  24
ENDBRANCH  15   4
ENDBRANCH   9  15
BRANCH  11  16
ATOM     16  C   UNL     1     -11.933  11.017  22.378  0.00  0.00    +0.105 C 
BRANCH  16  20
ATOM      2  O   UNL     1     -11.816  11.223  24.808  0.00  0.00    -0.420 OA
ATOM      5  N   UNL     1     -13.393  12.492  23.856  0.00  0.00    -0.112 NA
ATOM      7  N   UNL     1     -13.438  12.707  25.220  0.00  0.00    -0.107 NA
ATOM     20  C   UNL     1     -12.432  11.621  23.661  0.00  0.00    +0.218 A 
ATOM     22  C   UNL     1     -12.501  11.946  25.736  0.00  0.00    +0.251 A 
BRANCH  22  23
ATOM      1  F   UNL     1     -12.125   9.398  26.841  0.00  0.00    -0.205 F 
ATOM     23  C   UNL     1     -12.096  11.762  27.098  0.00  0.00    +0.074 A 
ATOM     26  C   UNL     1     -11.921  10.477  27.611  0.00  0.00    +0.136 A 
ATOM     27  C   UNL     1     -11.878  12.874  27.913  0.00  0.00    +0.016 A 
ATOM     28  C   UNL     1     -11.527  10.303  28.938  0.00  0.00    +0.039 A 
ATOM     29  C   UNL     1     -11.485  12.700  29.240  0.00  0.00    +0.001 A 
ATOM     30  C   UNL     1     -11.309  11.415  29.752  0.00  0.00    +0.003 A 
ENDBRANCH  22  23
ENDBRANCH  16  20
ENDBRANCH  11  16
TORSDOF 7
ENDMDL
MODEL 9
REMARK VINA RESULT:      -6.2     15.551     17.656
REMARK  Name = 45783945
REMARK  11 active torsions:
REMARK  status: ('A' for Active; 'I' for Inactive)
REMARK    1  A    between atoms: N_4  and  C_15
REMARK    2  A    between atoms: N_6  and  C_24
REMARK    3  A    between atoms: C_8  and  C_12
REMARK    4  A    between atoms: C_9  and  C_15
REMARK    5  A    between atoms: C_11  and  C_16
REMARK    6  A    between atoms: C_12  and  C_17
REMARK    7  A    between atoms: C_12  and  C_18
REMARK    8  A    between atoms: C_13  and  C_19
REMARK    9  A    between atoms: C_16  and  C_20
REMARK   10  A    between atoms: C_22  and  C_23
REMARK   11  A    between atoms: C_24  and  C_25
REMARK                            x       y       z     vdW  Elec       q    Type
REMARK                         _______ _______ _______ _____ _____    ______ ____
ROOT
ATOM      8  C   UNL     1       9.141   8.573   5.902  0.00  0.00    +0.000 C 
ATOM      9  C   UNL     1       8.804   8.455   7.410  0.00  0.00    +0.032 C 
ATOM     10  C   UNL     1       8.773   7.274   5.169  0.00  0.00    +0.012 C 
ATOM     11  C   UNL     1       9.515   6.051   5.741  0.00  0.00    +0.024 C 
ATOM     13  C   UNL     1       9.454   6.014   7.255  0.00  0.00    -0.073 C 
ATOM     14  C   UNL     1       9.122   7.094   7.983  0.00  0.00    -0.022 C 
ATOM     19  C   UNL     1       9.741   4.692   7.912  0.00  0.00    +0.039 C 
ENDROOT
BRANCH   8  12
ATOM     12  C   UNL     1       8.423   9.757   5.249  0.00  0.00    -0.013 C 
ATOM     17  C   UNL     1       9.429  10.685   4.577  0.00  0.00    +0.007 C 
ATOM     18  C   UNL     1       7.387   9.264   4.243  0.00  0.00    +0.007 C 
ENDBRANCH   8  12
BRANCH   9  15
ATOM     15  C   UNL     1       9.528   9.534   8.223  0.00  0.00    +0.113 C 
BRANCH  15   4
ATOM      3  O   UNL     1      11.221  11.743   7.461  0.00  0.00    -0.253 OA
ATOM      4  N   UNL     1      10.935   9.495   7.979  0.00  0.00    -0.299 N 
ATOM      6  N   UNL     1      13.036  10.296   7.434  0.00  0.00    -0.300 N 
ATOM     21  C   UNL     1      11.691  10.616   7.610  0.00  0.00    +0.300 C 
ATOM     31  H   UNL     1      11.432   8.625   8.142  0.00  0.00    +0.150 HD
ATOM     32  H   UNL     1      13.330   9.334   7.566  0.00  0.00    +0.150 HD
BRANCH   6  24
ATOM     24  C   UNL     1      14.028  11.273   7.054  0.00  0.00    +0.102 C 
ATOM     25  C   UNL     1      15.338  10.614   6.674  0.00  0.00    +0.024 C 
ENDBRANCH   6  24
ENDBRANCH  15   4
ENDBRANCH   9  15
BRANCH  11  16
ATOM     16  C   UNL     1      10.967   6.005   5.250  0.00  0.00    +0.105 C 
BRANCH  16  20
ATOM      2  O   UNL     1      12.128   5.609   3.139  0.00  0.00    -0.420 OA
ATOM      5  N   UNL     1      10.308   4.342   3.435  0.00  0.00    -0.112 NA
ATOM      7  N   UNL     1      10.861   4.016   2.212  0.00  0.00    -0.107 NA
ATOM     20  C   UNL     1      11.080   5.275   3.942  0.00  0.00    +0.218 A 
ATOM     22  C   UNL     1      11.920   4.779   2.080  0.00  0.00    +0.251 A 
BRANCH  22  23
ATOM      1  F   UNL     1      14.016   2.939   1.799  0.00  0.00    -0.205 F 
ATOM     23  C   UNL     1      12.875   4.872   1.014  0.00  0.00    +0.074 A 
ATOM     26  C   UNL     1      13.904   3.938   0.911  0.00  0.00    +0.136 A 
ATOM     27  C   UNL     1      12.773   5.905   0.081  0.00  0.00    +0.016 A 
ATOM     28  C   UNL     1      14.831   4.032  -0.127  0.00  0.00    +0.039 A 
ATOM     29  C   UNL     1      13.700   6.000  -0.957  0.00  0.00    +0.001 A 
ATOM     30  C   UNL     1      14.729   5.064  -1.061  0.00  0.00    +0.003 A 
ENDBRANCH  22  23
ENDBRANCH  16  20
ENDBRANCH  11  16
TORSDOF 7
ENDMDL
MODEL 10
REMARK VINA RESULT:      -6.2     17.376     19.773
REMARK  Name = 45783945
REMARK  11 active torsions:
REMARK  status: ('A' for Active; 'I' for Inactive)
REMARK    1  A    between atoms: N_4  and  C_15
REMARK    2  A    between atoms: N_6  and  C_24
REMARK    3  A    between atoms: C_8  and  C_12
REMARK    4  A    between atoms: C_9  and  C_15
REMARK    5  A    between atoms: C_11  and  C_16
REMARK    6  A    between atoms: C_12  and  C_17
REMARK    7  A    between atoms: C_12  and  C_18
REMARK    8  A    between atoms: C_13  and  C_19
REMARK    9  A    between atoms: C_16  and  C_20
REMARK   10  A    between atoms: C_22  and  C_23
REMARK   11  A    between atoms: C_24  and  C_25
REMARK                            x       y       z     vdW  Elec       q    Type
REMARK                         _______ _______ _______ _____ _____    ______ ____
ROOT
ATOM      8  C   UNL     1      12.757   7.466   5.065  0.00  0.00    +0.000 C 
ATOM      9  C   UNL     1      11.554   8.423   5.261  0.00  0.00    +0.032 C 
ATOM     10  C   UNL     1      13.093   7.326   3.573  0.00  0.00    +0.012 C 
ATOM     11  C   UNL     1      11.903   6.788   2.755  0.00  0.00    +0.024 C 
ATOM     13  C   UNL     1      10.615   7.511   3.094  0.00  0.00    -0.073 C 
ATOM     14  C   UNL     1      10.481   8.247   4.211  0.00  0.00    -0.022 C 
ATOM     19  C   UNL     1       9.496   7.405   2.095  0.00  0.00    +0.039 C 
ENDROOT
BRANCH   8  12
ATOM     12  C   UNL     1      13.993   7.943   5.833  0.00  0.00    -0.013 C 
ATOM     17  C   UNL     1      15.255   7.308   5.256  0.00  0.00    +0.007 C 
ATOM     18  C   UNL     1      14.089   9.465   5.797  0.00  0.00    +0.007 C 
ENDBRANCH   8  12
BRANCH   9  15
ATOM     15  C   UNL     1      10.936   8.257   6.654  0.00  0.00    +0.113 C 
BRANCH  15   4
ATOM      3  O   UNL     1       9.001   6.817   8.239  0.00  0.00    -0.253 OA
ATOM      4  N   UNL     1      11.019   6.898   7.087  0.00  0.00    -0.299 N 
ATOM      6  N   UNL     1      10.367   4.944   8.140  0.00  0.00    -0.300 N 
ATOM     21  C   UNL     1      10.034   6.267   7.859  0.00  0.00    +0.300 C 
ATOM     31  H   UNL     1      11.800   6.333   6.768  0.00  0.00    +0.150 HD
ATOM     32  H   UNL     1      11.249   4.579   7.795  0.00  0.00    +0.150 HD
BRANCH   6  24
ATOM     24  C   UNL     1       9.519   4.072   8.919  0.00  0.00    +0.102 C 
ATOM     25  C   UNL     1       9.471   4.498  10.371  0.00  0.00    +0.024 C 
ENDBRANCH   6  24
ENDBRANCH  15   4
ENDBRANCH   9  15
BRANCH  11  16
ATOM     16  C   UNL     1      11.747   5.274   2.937  0.00  0.00    +0.105 C 
BRANCH  16  20
ATOM      2  O   UNL     1      11.173   4.641   0.650  0.00  0.00    -0.420 OA
ATOM      5  N   UNL     1      13.102   3.777   1.384  0.00  0.00    -0.112 NA
ATOM      7  N   UNL     1      12.905   3.341   0.088  0.00  0.00    -0.107 NA
ATOM     20  C   UNL     1      12.069   4.533   1.671  0.00  0.00    +0.218 A 
ATOM     22  C   UNL     1      11.768   3.869  -0.300  0.00  0.00    +0.251 A 
BRANCH  22  23
ATOM      1  F   UNL     1      12.042   1.631  -1.966  0.00  0.00    -0.205 F 
ATOM     23  C   UNL     1      11.068   3.760  -1.547  0.00  0.00    +0.074 A 
ATOM     26  C   UNL     1      11.233   2.631  -2.348  0.00  0.00    +0.136 A 
ATOM     27  C   UNL     1      10.222   4.791  -1.959  0.00  0.00    +0.016 A 
ATOM     28  C   UNL     1      10.551   2.530  -3.561  0.00  0.00    +0.039 A 
ATOM     29  C   UNL     1       9.541   4.691  -3.172  0.00  0.00    +0.001 A 
ATOM     30  C   UNL     1       9.705   3.560  -3.972  0.00  0.00    +0.003 A 
ENDBRANCH  22  23
ENDBRANCH  16  20
ENDBRANCH  11  16
TORSDOF 7
ENDMDL
