MODEL 1
REMARK VINA RESULT:      -7.9      0.000      0.000
REMARK  Name = 45360554
REMARK  7 active torsions:
REMARK  status: ('A' for Active; 'I' for Inactive)
REMARK    1  A    between atoms: O_6  and  C_12
REMARK    2  A    between atoms: N_8  and  C_11
REMARK    3  A    between atoms: N_9  and  C_13
REMARK    4  A    between atoms: N_10  and  C_29
REMARK    5  A    between atoms: C_18  and  C_22
REMARK    6  A    between atoms: C_22  and  C_23
REMARK    7  A    between atoms: C_33  and  C_36
REMARK                            x       y       z     vdW  Elec       q    Type
REMARK                         _______ _______ _______ _____ _____    ______ ____
ROOT
ATOM      4  O   UNL     1      10.564   8.406   5.624  0.00  0.00    -0.342 OA
ATOM      5  O   UNL     1       9.821   8.045   7.792  0.00  0.00    -0.347 OA
ATOM     11  C   UNL     1      12.157   7.683   7.284  0.00  0.00    +0.143 C 
ATOM     12  C   UNL     1      11.875   6.203   6.939  0.00  0.00    +0.159 C 
ATOM     13  C   UNL     1      10.912   6.023   5.744  0.00  0.00    +0.136 C 
ATOM     14  C   UNL     1      10.915   8.549   7.008  0.00  0.00    +0.270 C 
ATOM     15  C   UNL     1       9.870   7.155   5.629  0.00  0.00    +0.170 C 
ATOM     19  C   UNL     1       9.000   7.326   6.859  0.00  0.00    +0.196 C 
ENDROOT
BRANCH  13   9
ATOM      7  O   UNL     1      10.247   4.419   3.466  0.00  0.00    -0.252 OA
ATOM      9  N   UNL     1      11.662   5.920   4.511  0.00  0.00    -0.291 N 
ATOM     10  N   UNL     1      12.180   5.211   2.394  0.00  0.00    -0.269 N 
ATOM     24  C   UNL     1      11.265   5.109   3.445  0.00  0.00    +0.304 C 
ATOM     37  H   UNL     1      12.555   6.397   4.450  0.00  0.00    +0.151 HD
ATOM     39  H   UNL     1      12.973   5.830   2.538  0.00  0.00    +0.156 HD
BRANCH  10  29
ATOM     29  C   UNL     1      12.142   4.554   1.142  0.00  0.00    +0.035 A 
ATOM     31  C   UNL     1      11.210   4.940   0.179  0.00  0.00    +0.035 A 
ATOM     32  C   UNL     1      13.036   3.517   0.872  0.00  0.00    +0.023 A 
ATOM     33  C   UNL     1      11.172   4.291  -1.055  0.00  0.00    +0.057 A 
ATOM     34  C   UNL     1      12.998   2.868  -0.362  0.00  0.00    +0.002 A 
ATOM     35  C   UNL     1      12.066   3.255  -1.325  0.00  0.00    +0.012 A 
BRANCH  33  36
ATOM      1  F   UNL     1      10.623   5.695  -2.912  0.00  0.00    -0.166 F 
ATOM      2  F   UNL     1       9.020   5.177  -1.537  0.00  0.00    -0.166 F 
ATOM      3  F   UNL     1       9.798   3.689  -2.919  0.00  0.00    -0.166 F 
ATOM     36  C   UNL     1      10.176   4.704  -2.086  0.00  0.00    +0.417 C 
ENDBRANCH  33  36
ENDBRANCH  10  29
ENDBRANCH  13   9
BRANCH  11   8
ATOM      8  N   UNL     1      13.290   8.176   6.498  0.00  0.00    -0.293 NA
ATOM     16  C   UNL     1      14.410   7.229   6.559  0.00  0.00    +0.085 C 
ATOM     17  C   UNL     1      13.696   9.509   6.963  0.00  0.00    +0.085 C 
ATOM     18  C   UNL     1      16.042   9.107   6.109  0.00  0.00    -0.004 C 
ATOM     20  C   UNL     1      15.583   7.703   5.699  0.00  0.00    +0.019 C 
ATOM     21  C   UNL     1      14.845  10.063   6.116  0.00  0.00    +0.019 C 
BRANCH  18  22
ATOM     22  C   UNL     1      17.144   9.615   5.185  0.00  0.00    +0.038 C 
BRANCH  22  23
ATOM     23  C   UNL     1      18.457   8.933   5.457  0.00  0.00    -0.047 A 
ATOM     25  C   UNL     1      19.053   8.149   4.470  0.00  0.00    +0.003 A 
ATOM     26  C   UNL     1      19.079   9.086   6.696  0.00  0.00    +0.003 A 
ATOM     27  C   UNL     1      20.271   7.517   4.721  0.00  0.00    +0.000 A 
ATOM     28  C   UNL     1      20.297   8.454   6.948  0.00  0.00    +0.000 A 
ATOM     30  C   UNL     1      20.893   7.670   5.961  0.00  0.00    +0.000 A 
ENDBRANCH  22  23
ENDBRANCH  18  22
ENDBRANCH  11   8
BRANCH  12   6
ATOM      6  O   UNL     1      11.292   5.588   8.096  0.00  0.00    -0.388 OA
ATOM     38  H   UNL     1      10.506   6.106   8.340  0.00  0.00    +0.210 HD
ENDBRANCH  12   6
TORSDOF 7
ENDMDL
MODEL 2
REMARK VINA RESULT:      -7.7      2.103      2.622
REMARK  Name = 45360554
REMARK  7 active torsions:
REMARK  status: ('A' for Active; 'I' for Inactive)
REMARK    1  A    between atoms: O_6  and  C_12
REMARK    2  A    between atoms: N_8  and  C_11
REMARK    3  A    between atoms: N_9  and  C_13
REMARK    4  A    between atoms: N_10  and  C_29
REMARK    5  A    between atoms: C_18  and  C_22
REMARK    6  A    between atoms: C_22  and  C_23
REMARK    7  A    between atoms: C_33  and  C_36
REMARK                            x       y       z     vdW  Elec       q    Type
REMARK                         _______ _______ _______ _____ _____    ______ ____
ROOT
ATOM      4  O   UNL     1      10.185   8.792   5.787  0.00  0.00    -0.342 OA
ATOM      5  O   UNL     1       9.551   7.955   7.856  0.00  0.00    -0.347 OA
ATOM     11  C   UNL     1      11.787   7.505   7.050  0.00  0.00    +0.143 C 
ATOM     12  C   UNL     1      11.304   6.203   6.374  0.00  0.00    +0.159 C 
ATOM     13  C   UNL     1      10.248   6.438   5.271  0.00  0.00    +0.136 C 
ATOM     14  C   UNL     1      10.643   8.533   7.122  0.00  0.00    +0.270 C 
ATOM     15  C   UNL     1       9.346   7.659   5.544  0.00  0.00    +0.170 C 
ATOM     19  C   UNL     1       8.589   7.589   6.856  0.00  0.00    +0.196 C 
ENDROOT
BRANCH  13   9
ATOM      7  O   UNL     1      11.200   4.328   3.583  0.00  0.00    -0.252 OA
ATOM      9  N   UNL     1      10.896   6.584   3.984  0.00  0.00    -0.291 N 
ATOM     10  N   UNL     1      11.915   5.942   2.035  0.00  0.00    -0.269 N 
ATOM     24  C   UNL     1      11.331   5.497   3.224  0.00  0.00    +0.304 C 
ATOM     37  H   UNL     1      11.111   7.521   3.659  0.00  0.00    +0.151 HD
ATOM     39  H   UNL     1      11.944   6.948   1.890  0.00  0.00    +0.156 HD
BRANCH  10  29
ATOM     29  C   UNL     1      12.478   5.162   0.998  0.00  0.00    +0.035 A 
ATOM     31  C   UNL     1      13.861   5.125   0.824  0.00  0.00    +0.035 A 
ATOM     32  C   UNL     1      11.649   4.429   0.148  0.00  0.00    +0.023 A 
ATOM     33  C   UNL     1      14.416   4.356  -0.199  0.00  0.00    +0.057 A 
ATOM     34  C   UNL     1      12.204   3.660  -0.875  0.00  0.00    +0.002 A 
ATOM     35  C   UNL     1      13.587   3.624  -1.048  0.00  0.00    +0.012 A 
BRANCH  33  36
ATOM      1  F   UNL     1      16.523   5.476  -0.024  0.00  0.00    -0.166 F 
ATOM      2  F   UNL     1      16.255   4.095  -1.682  0.00  0.00    -0.166 F 
ATOM      3  F   UNL     1      16.512   3.338   0.340  0.00  0.00    -0.166 F 
ATOM     36  C   UNL     1      15.896   4.317  -0.385  0.00  0.00    +0.417 C 
ENDBRANCH  33  36
ENDBRANCH  10  29
ENDBRANCH  13   9
BRANCH  11   8
ATOM      8  N   UNL     1      12.916   8.071   6.309  0.00  0.00    -0.293 NA
ATOM     16  C   UNL     1      13.989   7.078   6.171  0.00  0.00    +0.085 C 
ATOM     17  C   UNL     1      13.403   9.291   6.965  0.00  0.00    +0.085 C 
ATOM     18  C   UNL     1      15.696   8.932   5.962  0.00  0.00    -0.004 C 
ATOM     20  C   UNL     1      15.155   7.635   5.351  0.00  0.00    +0.019 C 
ATOM     21  C   UNL     1      14.548   9.925   6.172  0.00  0.00    +0.019 C 
BRANCH  18  22
ATOM     22  C   UNL     1      16.790   9.536   5.087  0.00  0.00    +0.038 C 
BRANCH  22  23
ATOM     23  C   UNL     1      18.116   8.860   5.309  0.00  0.00    -0.047 A 
ATOM     25  C   UNL     1      18.753   8.963   6.545  0.00  0.00    +0.003 A 
ATOM     26  C   UNL     1      18.708   8.130   4.278  0.00  0.00    +0.003 A 
ATOM     27  C   UNL     1      19.982   8.335   6.751  0.00  0.00    +0.000 A 
ATOM     28  C   UNL     1      19.936   7.502   4.484  0.00  0.00    +0.000 A 
ATOM     30  C   UNL     1      20.574   7.605   5.720  0.00  0.00    +0.000 A 
ENDBRANCH  22  23
ENDBRANCH  18  22
ENDBRANCH  11   8
BRANCH  12   6
ATOM      6  O   UNL     1      10.731   5.369   7.390  0.00  0.00    -0.388 OA
ATOM     38  H   UNL     1       9.963   4.917   7.000  0.00  0.00    +0.210 HD
ENDBRANCH  12   6
TORSDOF 7
ENDMDL
MODEL 3
REMARK VINA RESULT:      -7.6     13.109     15.726
REMARK  Name = 45360554
REMARK  7 active torsions:
REMARK  status: ('A' for Active; 'I' for Inactive)
REMARK    1  A    between atoms: O_6  and  C_12
REMARK    2  A    between atoms: N_8  and  C_11
REMARK    3  A    between atoms: N_9  and  C_13
REMARK    4  A    between atoms: N_10  and  C_29
REMARK    5  A    between atoms: C_18  and  C_22
REMARK    6  A    between atoms: C_22  and  C_23
REMARK    7  A    between atoms: C_33  and  C_36
REMARK                            x       y       z     vdW  Elec       q    Type
REMARK                         _______ _______ _______ _____ _____    ______ ____
ROOT
ATOM      4  O   UNL     1      13.444   9.260  20.990  0.00  0.00    -0.342 OA
ATOM      5  O   UNL     1      11.836   7.641  21.408  0.00  0.00    -0.347 OA
ATOM     11  C   UNL     1      13.879   6.993  20.289  0.00  0.00    +0.143 C 
ATOM     12  C   UNL     1      13.240   7.275  18.911  0.00  0.00    +0.159 C 
ATOM     13  C   UNL     1      12.828   8.751  18.715  0.00  0.00    +0.136 C 
ATOM     14  C   UNL     1      13.251   7.890  21.371  0.00  0.00    +0.270 C 
ATOM     15  C   UNL     1      12.402   9.442  20.026  0.00  0.00    +0.170 C 
ATOM     19  C   UNL     1      11.246   8.765  20.738  0.00  0.00    +0.196 C 
ENDROOT
BRANCH  13   9
ATOM      7  O   UNL     1      12.828   9.918  16.099  0.00  0.00    -0.252 OA
ATOM      9  N   UNL     1      13.907   9.491  18.098  0.00  0.00    -0.291 N 
ATOM     10  N   UNL     1      15.012  10.688  16.485  0.00  0.00    -0.269 N 
ATOM     24  C   UNL     1      13.824  10.029  16.812  0.00  0.00    +0.304 C 
ATOM     37  H   UNL     1      14.791   9.555  18.594  0.00  0.00    +0.151 HD
ATOM     39  H   UNL     1      15.743  10.687  17.192  0.00  0.00    +0.156 HD
BRANCH  10  29
ATOM     29  C   UNL     1      15.330  11.360  15.283  0.00  0.00    +0.035 A 
ATOM     31  C   UNL     1      16.662  11.505  14.895  0.00  0.00    +0.035 A 
ATOM     32  C   UNL     1      14.311  11.880  14.484  0.00  0.00    +0.023 A 
ATOM     33  C   UNL     1      16.976  12.169  13.709  0.00  0.00    +0.057 A 
ATOM     34  C   UNL     1      14.625  12.544  13.298  0.00  0.00    +0.002 A 
ATOM     35  C   UNL     1      15.958  12.688  12.911  0.00  0.00    +0.012 A 
BRANCH  33  36
ATOM      1  F   UNL     1      18.874  13.598  13.428  0.00  0.00    -0.166 F 
ATOM      2  F   UNL     1      18.605  11.992  11.987  0.00  0.00    -0.166 F 
ATOM      3  F   UNL     1      19.266  11.546  14.010  0.00  0.00    -0.166 F 
ATOM     36  C   UNL     1      18.401  12.324  13.295  0.00  0.00    +0.417 C 
ENDBRANCH  33  36
ENDBRANCH  10  29
ENDBRANCH  13   9
BRANCH  11   8
ATOM      8  N   UNL     1      15.324   7.225  20.232  0.00  0.00    -0.293 NA
ATOM     16  C   UNL     1      15.992   6.135  19.508  0.00  0.00    +0.085 C 
ATOM     17  C   UNL     1      15.874   7.379  21.584  0.00  0.00    +0.085 C 
ATOM     18  C   UNL     1      18.135   6.592  20.769  0.00  0.00    -0.004 C 
ATOM     20  C   UNL     1      17.495   6.390  19.391  0.00  0.00    +0.019 C 
ATOM     21  C   UNL     1      17.375   7.677  21.539  0.00  0.00    +0.019 C 
BRANCH  18  22
ATOM     22  C   UNL     1      19.614   6.944  20.642  0.00  0.00    +0.038 C 
BRANCH  22  23
ATOM     23  C   UNL     1      20.494   5.852  21.187  0.00  0.00    -0.047 A 
ATOM     25  C   UNL     1      21.173   6.040  22.391  0.00  0.00    +0.003 A 
ATOM     26  C   UNL     1      20.632   4.653  20.488  0.00  0.00    +0.003 A 
ATOM     27  C   UNL     1      21.988   5.027  22.897  0.00  0.00    +0.000 A 
ATOM     28  C   UNL     1      21.447   3.640  20.994  0.00  0.00    +0.000 A 
ATOM     30  C   UNL     1      22.126   3.828  22.198  0.00  0.00    +0.000 A 
ENDBRANCH  22  23
ENDBRANCH  18  22
ENDBRANCH  11   8
BRANCH  12   6
ATOM      6  O   UNL     1      12.071   6.452  18.796  0.00  0.00    -0.388 OA
ATOM     38  H   UNL     1      12.230   5.642  19.310  0.00  0.00    +0.210 HD
ENDBRANCH  12   6
TORSDOF 7
ENDMDL
MODEL 4
REMARK VINA RESULT:      -7.5     12.754     15.328
REMARK  Name = 45360554
REMARK  7 active torsions:
REMARK  status: ('A' for Active; 'I' for Inactive)
REMARK    1  A    between atoms: O_6  and  C_12
REMARK    2  A    between atoms: N_8  and  C_11
REMARK    3  A    between atoms: N_9  and  C_13
REMARK    4  A    between atoms: N_10  and  C_29
REMARK    5  A    between atoms: C_18  and  C_22
REMARK    6  A    between atoms: C_22  and  C_23
REMARK    7  A    between atoms: C_33  and  C_36
REMARK                            x       y       z     vdW  Elec       q    Type
REMARK                         _______ _______ _______ _____ _____    ______ ____
ROOT
ATOM      4  O   UNL     1      13.094   9.180  21.158  0.00  0.00    -0.342 OA
ATOM      5  O   UNL     1      11.592   7.466  21.595  0.00  0.00    -0.347 OA
ATOM     11  C   UNL     1      13.641   6.950  20.419  0.00  0.00    +0.143 C 
ATOM     12  C   UNL     1      12.952   7.210  19.061  0.00  0.00    +0.159 C 
ATOM     13  C   UNL     1      12.451   8.662  18.893  0.00  0.00    +0.136 C 
ATOM     14  C   UNL     1      12.989   7.797  21.527  0.00  0.00    +0.270 C 
ATOM     15  C   UNL     1      12.019   9.313  20.223  0.00  0.00    +0.170 C 
ATOM     19  C   UNL     1      10.923   8.562  20.954  0.00  0.00    +0.196 C 
ENDROOT
BRANCH  13   9
ATOM      7  O   UNL     1      12.512   9.506  16.156  0.00  0.00    -0.252 OA
ATOM      9  N   UNL     1      13.471   9.470  18.259  0.00  0.00    -0.291 N 
ATOM     10  N   UNL     1      14.537  10.615  16.584  0.00  0.00    -0.269 N 
ATOM     24  C   UNL     1      13.423   9.838  16.913  0.00  0.00    +0.304 C 
ATOM     37  H   UNL     1      14.295   9.714  18.800  0.00  0.00    +0.151 HD
ATOM     39  H   UNL     1      15.201  10.799  17.332  0.00  0.00    +0.156 HD
BRANCH  10  29
ATOM     29  C   UNL     1      14.861  11.181  15.330  0.00  0.00    +0.035 A 
ATOM     31  C   UNL     1      13.850  11.664  14.499  0.00  0.00    +0.035 A 
ATOM     32  C   UNL     1      16.194  11.256  14.922  0.00  0.00    +0.023 A 
ATOM     33  C   UNL     1      14.170  12.222  13.261  0.00  0.00    +0.057 A 
ATOM     34  C   UNL     1      16.514  11.814  13.684  0.00  0.00    +0.002 A 
ATOM     35  C   UNL     1      15.502  12.296  12.854  0.00  0.00    +0.012 A 
BRANCH  33  36
ATOM      1  F   UNL     1      12.914  14.090  12.453  0.00  0.00    -0.166 F 
ATOM      2  F   UNL     1      11.871  12.193  12.659  0.00  0.00    -0.166 F 
ATOM      3  F   UNL     1      13.302  12.484  11.048  0.00  0.00    -0.166 F 
ATOM     36  C   UNL     1      13.089  12.738  12.373  0.00  0.00    +0.417 C 
ENDBRANCH  33  36
ENDBRANCH  10  29
ENDBRANCH  13   9
BRANCH  11   8
ATOM      8  N   UNL     1      15.068   7.266  20.329  0.00  0.00    -0.293 NA
ATOM     16  C   UNL     1      15.786   6.204  19.613  0.00  0.00    +0.085 C 
ATOM     17  C   UNL     1      15.633   7.478  21.668  0.00  0.00    +0.085 C 
ATOM     18  C   UNL     1      17.921   6.810  20.824  0.00  0.00    -0.004 C 
ATOM     20  C   UNL     1      17.269   6.544  19.462  0.00  0.00    +0.019 C 
ATOM     21  C   UNL     1      17.112   7.863  21.588  0.00  0.00    +0.019 C 
BRANCH  18  22
ATOM     22  C   UNL     1      19.374   7.245  20.661  0.00  0.00    +0.038 C 
BRANCH  22  23
ATOM     23  C   UNL     1      20.328   6.203  21.177  0.00  0.00    -0.047 A 
ATOM     25  C   UNL     1      21.008   6.413  22.377  0.00  0.00    +0.003 A 
ATOM     26  C   UNL     1      20.533   5.027  20.456  0.00  0.00    +0.003 A 
ATOM     27  C   UNL     1      21.893   5.446  22.856  0.00  0.00    +0.000 A 
ATOM     28  C   UNL     1      21.417   4.060  20.936  0.00  0.00    +0.000 A 
ATOM     30  C   UNL     1      22.097   4.270  22.135  0.00  0.00    +0.000 A 
ENDBRANCH  22  23
ENDBRANCH  18  22
ENDBRANCH  11   8
BRANCH  12   6
ATOM      6  O   UNL     1      11.830   6.322  18.963  0.00  0.00    -0.388 OA
ATOM     38  H   UNL     1      11.163   6.752  18.400  0.00  0.00    +0.210 HD
ENDBRANCH  12   6
TORSDOF 7
ENDMDL
MODEL 5
REMARK VINA RESULT:      -7.4      4.143      6.845
REMARK  Name = 45360554
REMARK  7 active torsions:
REMARK  status: ('A' for Active; 'I' for Inactive)
REMARK    1  A    between atoms: O_6  and  C_12
REMARK    2  A    between atoms: N_8  and  C_11
REMARK    3  A    between atoms: N_9  and  C_13
REMARK    4  A    between atoms: N_10  and  C_29
REMARK    5  A    between atoms: C_18  and  C_22
REMARK    6  A    between atoms: C_22  and  C_23
REMARK    7  A    between atoms: C_33  and  C_36
REMARK                            x       y       z     vdW  Elec       q    Type
REMARK                         _______ _______ _______ _____ _____    ______ ____
ROOT
ATOM      4  O   UNL     1      14.628   4.680   1.716  0.00  0.00    -0.342 OA
ATOM      5  O   UNL     1      14.454   5.503  -0.446  0.00  0.00    -0.347 OA
ATOM     11  C   UNL     1      14.564   7.069   1.393  0.00  0.00    +0.143 C 
ATOM     12  C   UNL     1      13.024   7.064   1.517  0.00  0.00    +0.159 C 
ATOM     13  C   UNL     1      12.439   5.679   1.874  0.00  0.00    +0.136 C 
ATOM     14  C   UNL     1      15.065   5.725   0.836  0.00  0.00    +0.270 C 
ATOM     15  C   UNL     1      13.267   4.507   1.308  0.00  0.00    +0.170 C 
ATOM     19  C   UNL     1      13.426   4.531  -0.200  0.00  0.00    +0.196 C 
ENDROOT
BRANCH  13   9
ATOM      7  O   UNL     1      10.368   6.770   3.525  0.00  0.00    -0.252 OA
ATOM      9  N   UNL     1      12.317   5.545   3.310  0.00  0.00    -0.291 N 
ATOM     10  N   UNL     1      11.413   5.816   5.398  0.00  0.00    -0.269 N 
ATOM     24  C   UNL     1      11.270   6.111   4.040  0.00  0.00    +0.304 C 
ATOM     37  H   UNL     1      13.067   5.084   3.815  0.00  0.00    +0.151 HD
ATOM     39  H   UNL     1      12.221   5.257   5.661  0.00  0.00    +0.156 HD
BRANCH  10  29
ATOM     29  C   UNL     1      10.569   6.203   6.465  0.00  0.00    +0.035 A 
ATOM     31  C   UNL     1      10.315   5.316   7.511  0.00  0.00    +0.035 A 
ATOM     32  C   UNL     1       9.989   7.472   6.470  0.00  0.00    +0.023 A 
ATOM     33  C   UNL     1       9.482   5.698   8.563  0.00  0.00    +0.057 A 
ATOM     34  C   UNL     1       9.156   7.853   7.522  0.00  0.00    +0.002 A 
ATOM     35  C   UNL     1       8.903   6.966   8.568  0.00  0.00    +0.012 A 
BRANCH  33  36
ATOM      1  F   UNL     1       8.957   3.472   9.267  0.00  0.00    -0.166 F 
ATOM      2  F   UNL     1       8.126   5.114  10.426  0.00  0.00    -0.166 F 
ATOM      3  F   UNL     1      10.243   4.638  10.568  0.00  0.00    -0.166 F 
ATOM     36  C   UNL     1       9.210   4.749   9.682  0.00  0.00    +0.417 C 
ENDBRANCH  33  36
ENDBRANCH  10  29
ENDBRANCH  13   9
BRANCH  11   8
ATOM      8  N   UNL     1      15.174   7.322   2.700  0.00  0.00    -0.293 NA
ATOM     16  C   UNL     1      14.396   8.318   3.447  0.00  0.00    +0.085 C 
ATOM     17  C   UNL     1      16.570   7.749   2.542  0.00  0.00    +0.085 C 
ATOM     18  C   UNL     1      16.461   8.975   4.751  0.00  0.00    -0.004 C 
ATOM     20  C   UNL     1      14.989   8.554   4.837  0.00  0.00    +0.019 C 
ATOM     21  C   UNL     1      17.239   7.965   3.901  0.00  0.00    +0.019 C 
BRANCH  18  22
ATOM     22  C   UNL     1      17.075   9.112   6.141  0.00  0.00    +0.038 C 
BRANCH  22  23
ATOM     23  C   UNL     1      18.554   9.375   6.071  0.00  0.00    -0.047 A 
ATOM     25  C   UNL     1      19.028  10.533   5.454  0.00  0.00    +0.003 A 
ATOM     26  C   UNL     1      19.452   8.462   6.624  0.00  0.00    +0.003 A 
ATOM     27  C   UNL     1      20.401  10.777   5.391  0.00  0.00    +0.000 A 
ATOM     28  C   UNL     1      20.824   8.707   6.561  0.00  0.00    +0.000 A 
ATOM     30  C   UNL     1      21.298   9.864   5.944  0.00  0.00    +0.000 A 
ENDBRANCH  22  23
ENDBRANCH  18  22
ENDBRANCH  11   8
BRANCH  12   6
ATOM      6  O   UNL     1      12.483   7.481   0.257  0.00  0.00    -0.388 OA
ATOM     38  H   UNL     1      11.594   7.094   0.176  0.00  0.00    +0.210 HD
ENDBRANCH  12   6
TORSDOF 7
ENDMDL
MODEL 6
REMARK VINA RESULT:      -7.4     25.872     28.955
REMARK  Name = 45360554
REMARK  7 active torsions:
REMARK  status: ('A' for Active; 'I' for Inactive)
REMARK    1  A    between atoms: O_6  and  C_12
REMARK    2  A    between atoms: N_8  and  C_11
REMARK    3  A    between atoms: N_9  and  C_13
REMARK    4  A    between atoms: N_10  and  C_29
REMARK    5  A    between atoms: C_18  and  C_22
REMARK    6  A    between atoms: C_22  and  C_23
REMARK    7  A    between atoms: C_33  and  C_36
REMARK                            x       y       z     vdW  Elec       q    Type
REMARK                         _______ _______ _______ _____ _____    ______ ____
ROOT
ATOM      4  O   UNL     1      -4.827 -10.272  18.185  0.00  0.00    -0.342 OA
ATOM      5  O   UNL     1      -4.345 -12.227  19.338  0.00  0.00    -0.347 OA
ATOM     11  C   UNL     1      -4.249 -12.244  16.922  0.00  0.00    +0.143 C 
ATOM     12  C   UNL     1      -5.737 -12.655  16.844  0.00  0.00    +0.159 C 
ATOM     13  C   UNL     1      -6.696 -11.607  17.452  0.00  0.00    +0.136 C 
ATOM     14  C   UNL     1      -3.979 -11.430  18.199  0.00  0.00    +0.270 C 
ATOM     15  C   UNL     1      -6.073 -10.821  18.624  0.00  0.00    +0.170 C 
ATOM     19  C   UNL     1      -5.603 -11.691  19.774  0.00  0.00    +0.196 C 
ENDROOT
BRANCH  13   9
ATOM      7  O   UNL     1      -9.400 -10.829  16.913  0.00  0.00    -0.252 OA
ATOM      9  N   UNL     1      -7.144 -10.688  16.428  0.00  0.00    -0.291 N 
ATOM     10  N   UNL     1      -8.617  -9.455  15.178  0.00  0.00    -0.269 N 
ATOM     24  C   UNL     1      -8.488 -10.363  16.232  0.00  0.00    +0.304 C 
ATOM     37  H   UNL     1      -6.457 -10.325  15.774  0.00  0.00    +0.151 HD
ATOM     39  H   UNL     1      -7.758  -9.168  14.715  0.00  0.00    +0.156 HD
BRANCH  10  29
ATOM     29  C   UNL     1      -9.803  -8.881  14.665  0.00  0.00    +0.035 A 
ATOM     31  C   UNL     1     -10.365  -7.767  15.287  0.00  0.00    +0.035 A 
ATOM     32  C   UNL     1     -10.414  -9.432  13.537  0.00  0.00    +0.023 A 
ATOM     33  C   UNL     1     -11.536  -7.202  14.782  0.00  0.00    +0.057 A 
ATOM     34  C   UNL     1     -11.585  -8.867  13.032  0.00  0.00    +0.002 A 
ATOM     35  C   UNL     1     -12.145  -7.752  13.655  0.00  0.00    +0.012 A 
BRANCH  33  36
ATOM      1  F   UNL     1     -12.253  -4.925  14.625  0.00  0.00    -0.166 F 
ATOM      2  F   UNL     1     -11.406  -5.582  16.517  0.00  0.00    -0.166 F 
ATOM      3  F   UNL     1     -13.397  -6.228  15.927  0.00  0.00    -0.166 F 
ATOM     36  C   UNL     1     -12.137  -6.009  15.447  0.00  0.00    +0.417 C 
ENDBRANCH  33  36
ENDBRANCH  10  29
ENDBRANCH  13   9
BRANCH  11   8
ATOM      8  N   UNL     1      -3.882 -11.455  15.744  0.00  0.00    -0.293 NA
ATOM     16  C   UNL     1      -4.564 -11.967  14.548  0.00  0.00    +0.085 C 
ATOM     17  C   UNL     1      -2.425 -11.449  15.563  0.00  0.00    +0.085 C 
ATOM     18  C   UNL     1      -2.721 -11.043  13.084  0.00  0.00    -0.004 C 
ATOM     20  C   UNL     1      -4.234 -11.120  13.318  0.00  0.00    +0.019 C 
ATOM     21  C   UNL     1      -2.021 -10.583  14.367  0.00  0.00    +0.019 C 
BRANCH  18  22
ATOM     22  C   UNL     1      -2.392 -10.117  11.917  0.00  0.00    +0.038 C 
BRANCH  22  23
ATOM     23  C   UNL     1      -3.231 -10.427  10.708  0.00  0.00    -0.047 A 
ATOM     25  C   UNL     1      -3.753  -9.389   9.936  0.00  0.00    +0.003 A 
ATOM     26  C   UNL     1      -3.486 -11.753  10.357  0.00  0.00    +0.003 A 
ATOM     27  C   UNL     1      -4.530  -9.677   8.814  0.00  0.00    +0.000 A 
ATOM     28  C   UNL     1      -4.263 -12.041   9.235  0.00  0.00    +0.000 A 
ATOM     30  C   UNL     1      -4.785 -11.003   8.463  0.00  0.00    +0.000 A 
ENDBRANCH  22  23
ENDBRANCH  18  22
ENDBRANCH  11   8
BRANCH  12   6
ATOM      6  O   UNL     1      -5.888 -13.887  17.561  0.00  0.00    -0.388 OA
ATOM     38  H   UNL     1      -5.420 -14.578  17.060  0.00  0.00    +0.210 HD
ENDBRANCH  12   6
TORSDOF 7
ENDMDL
MODEL 7
REMARK VINA RESULT:      -7.2     41.800     44.148
REMARK  Name = 45360554
REMARK  7 active torsions:
REMARK  status: ('A' for Active; 'I' for Inactive)
REMARK    1  A    between atoms: O_6  and  C_12
REMARK    2  A    between atoms: N_8  and  C_11
REMARK    3  A    between atoms: N_9  and  C_13
REMARK    4  A    between atoms: N_10  and  C_29
REMARK    5  A    between atoms: C_18  and  C_22
REMARK    6  A    between atoms: C_22  and  C_23
REMARK    7  A    between atoms: C_33  and  C_36
REMARK                            x       y       z     vdW  Elec       q    Type
REMARK                         _______ _______ _______ _____ _____    ______ ____
ROOT
ATOM      4  O   UNL     1      -7.072 -11.531  40.589  0.00  0.00    -0.342 OA
ATOM      5  O   UNL     1      -6.113 -12.490  38.707  0.00  0.00    -0.347 OA
ATOM     11  C   UNL     1      -5.764 -10.133  39.123  0.00  0.00    +0.143 C 
ATOM     12  C   UNL     1      -7.025  -9.780  38.302  0.00  0.00    +0.159 C 
ATOM     13  C   UNL     1      -8.327 -10.361  38.896  0.00  0.00    +0.136 C 
ATOM     14  C   UNL     1      -5.905 -11.529  39.756  0.00  0.00    +0.270 C 
ATOM     15  C   UNL     1      -8.116 -11.703  39.626  0.00  0.00    +0.170 C 
ATOM     19  C   UNL     1      -7.515 -12.793  38.759  0.00  0.00    +0.196 C 
ENDROOT
BRANCH  13   9
ATOM      7  O   UNL     1      -9.556  -7.875  38.175  0.00  0.00    -0.252 OA
ATOM      9  N   UNL     1      -8.935  -9.403  39.795  0.00  0.00    -0.291 N 
ATOM     10  N   UNL     1     -10.019  -7.492  40.445  0.00  0.00    -0.269 N 
ATOM     24  C   UNL     1      -9.515  -8.211  39.358  0.00  0.00    +0.304 C 
ATOM     37  H   UNL     1      -8.868  -9.572  40.794  0.00  0.00    +0.151 HD
ATOM     39  H   UNL     1      -9.902  -7.911  41.363  0.00  0.00    +0.156 HD
BRANCH  10  29
ATOM     29  C   UNL     1     -10.677  -6.240  40.428  0.00  0.00    +0.035 A 
ATOM     31  C   UNL     1      -9.987  -5.094  40.035  0.00  0.00    +0.035 A 
ATOM     32  C   UNL     1     -12.017  -6.151  40.807  0.00  0.00    +0.023 A 
ATOM     33  C   UNL     1     -10.635  -3.859  40.020  0.00  0.00    +0.057 A 
ATOM     34  C   UNL     1     -12.666  -4.916  40.792  0.00  0.00    +0.002 A 
ATOM     35  C   UNL     1     -11.974  -3.770  40.398  0.00  0.00    +0.012 A 
BRANCH  33  36
ATOM      1  F   UNL     1      -9.892  -1.646  40.543  0.00  0.00    -0.166 F 
ATOM      2  F   UNL     1     -10.422  -2.063  38.476  0.00  0.00    -0.166 F 
ATOM      3  F   UNL     1      -8.580  -2.858  39.314  0.00  0.00    -0.166 F 
ATOM     36  C   UNL     1      -9.896  -2.633  39.599  0.00  0.00    +0.417 C 
ENDBRANCH  33  36
ENDBRANCH  10  29
ENDBRANCH  13   9
BRANCH  11   8
ATOM      8  N   UNL     1      -5.547  -9.134  40.170  0.00  0.00    -0.293 NA
ATOM     16  C   UNL     1      -5.667  -7.777  39.621  0.00  0.00    +0.085 C 
ATOM     17  C   UNL     1      -4.240  -9.333  40.809  0.00  0.00    +0.085 C 
ATOM     18  C   UNL     1      -4.162  -6.887  41.447  0.00  0.00    -0.004 C 
ATOM     20  C   UNL     1      -5.498  -6.721  40.714  0.00  0.00    +0.019 C 
ATOM     21  C   UNL     1      -4.021  -8.330  41.944  0.00  0.00    +0.019 C 
BRANCH  18  22
ATOM     22  C   UNL     1      -4.042  -5.896  42.600  0.00  0.00    +0.038 C 
BRANCH  22  23
ATOM     23  C   UNL     1      -3.057  -4.801  42.292  0.00  0.00    -0.047 A 
ATOM     25  C   UNL     1      -2.991  -3.673  43.108  0.00  0.00    +0.003 A 
ATOM     26  C   UNL     1      -2.209  -4.917  41.190  0.00  0.00    +0.003 A 
ATOM     27  C   UNL     1      -2.077  -2.658  42.823  0.00  0.00    +0.000 A 
ATOM     28  C   UNL     1      -1.294  -3.902  40.905  0.00  0.00    +0.000 A 
ATOM     30  C   UNL     1      -1.228  -2.773  41.721  0.00  0.00    +0.000 A 
ENDBRANCH  22  23
ENDBRANCH  18  22
ENDBRANCH  11   8
BRANCH  12   6
ATOM      6  O   UNL     1      -6.847 -10.305  36.980  0.00  0.00    -0.388 OA
ATOM     38  H   UNL     1      -7.678 -10.163  36.494  0.00  0.00    +0.210 HD
ENDBRANCH  12   6
TORSDOF 7
ENDMDL
MODEL 8
REMARK VINA RESULT:      -7.1      4.405      9.153
REMARK  Name = 45360554
REMARK  7 active torsions:
REMARK  status: ('A' for Active; 'I' for Inactive)
REMARK    1  A    between atoms: O_6  and  C_12
REMARK    2  A    between atoms: N_8  and  C_11
REMARK    3  A    between atoms: N_9  and  C_13
REMARK    4  A    between atoms: N_10  and  C_29
REMARK    5  A    between atoms: C_18  and  C_22
REMARK    6  A    between atoms: C_22  and  C_23
REMARK    7  A    between atoms: C_33  and  C_36
REMARK                            x       y       z     vdW  Elec       q    Type
REMARK                         _______ _______ _______ _____ _____    ______ ____
ROOT
ATOM      4  O   UNL     1      13.946   9.071   2.446  0.00  0.00    -0.342 OA
ATOM      5  O   UNL     1      16.167   9.619   2.060  0.00  0.00    -0.347 OA
ATOM     11  C   UNL     1      15.481   7.310   1.847  0.00  0.00    +0.143 C 
ATOM     12  C   UNL     1      15.801   7.055   3.337  0.00  0.00    +0.159 C 
ATOM     13  C   UNL     1      14.946   7.903   4.304  0.00  0.00    +0.136 C 
ATOM     14  C   UNL     1      15.085   8.781   1.623  0.00  0.00    +0.270 C 
ATOM     15  C   UNL     1      14.558   9.279   3.723  0.00  0.00    +0.170 C 
ATOM     19  C   UNL     1      15.740  10.141   3.327  0.00  0.00    +0.196 C 
ENDROOT
BRANCH  13   9
ATOM      7  O   UNL     1      13.080   8.623   6.355  0.00  0.00    -0.252 OA
ATOM      9  N   UNL     1      13.753   7.176   4.682  0.00  0.00    -0.291 N 
ATOM     10  N   UNL     1      11.832   6.703   5.839  0.00  0.00    -0.269 N 
ATOM     24  C   UNL     1      12.895   7.600   5.699  0.00  0.00    +0.304 C 
ATOM     37  H   UNL     1      13.577   6.279   4.241  0.00  0.00    +0.151 HD
ATOM     39  H   UNL     1      11.827   5.901   5.214  0.00  0.00    +0.156 HD
BRANCH  10  29
ATOM     29  C   UNL     1      10.754   6.769   6.752  0.00  0.00    +0.035 A 
ATOM     31  C   UNL     1      10.587   5.769   7.709  0.00  0.00    +0.035 A 
ATOM     32  C   UNL     1       9.856   7.835   6.693  0.00  0.00    +0.023 A 
ATOM     33  C   UNL     1       9.523   5.834   8.609  0.00  0.00    +0.057 A 
ATOM     34  C   UNL     1       8.792   7.901   7.593  0.00  0.00    +0.002 A 
ATOM     35  C   UNL     1       8.626   6.900   8.550  0.00  0.00    +0.012 A 
BRANCH  33  36
ATOM      1  F   UNL     1       9.256   3.508   9.102  0.00  0.00    -0.166 F 
ATOM      2  F   UNL     1       8.209   4.930  10.371  0.00  0.00    -0.166 F 
ATOM      3  F   UNL     1      10.364   4.698  10.538  0.00  0.00    -0.166 F 
ATOM     36  C   UNL     1       9.344   4.764   9.632  0.00  0.00    +0.417 C 
ENDBRANCH  33  36
ENDBRANCH  10  29
ENDBRANCH  13   9
BRANCH  11   8
ATOM      8  N   UNL     1      14.395   6.432   1.407  0.00  0.00    -0.293 NA
ATOM     16  C   UNL     1      14.717   5.029   1.700  0.00  0.00    +0.085 C 
ATOM     17  C   UNL     1      14.124   6.626  -0.023  0.00  0.00    +0.085 C 
ATOM     18  C   UNL     1      13.208   4.274  -0.183  0.00  0.00    -0.004 C 
ATOM     20  C   UNL     1      13.569   4.103   1.297  0.00  0.00    +0.019 C 
ATOM     21  C   UNL     1      12.954   5.755  -0.487  0.00  0.00    +0.019 C 
BRANCH  18  22
ATOM     22  C   UNL     1      11.999   3.422  -0.556  0.00  0.00    +0.038 C 
BRANCH  22  23
ATOM     23  C   UNL     1      11.772   3.399  -2.043  0.00  0.00    -0.047 A 
ATOM     25  C   UNL     1      10.551   3.821  -2.569  0.00  0.00    +0.003 A 
ATOM     26  C   UNL     1      12.783   2.957  -2.896  0.00  0.00    +0.003 A 
ATOM     27  C   UNL     1      10.341   3.801  -3.948  0.00  0.00    +0.000 A 
ATOM     28  C   UNL     1      12.573   2.937  -4.276  0.00  0.00    +0.000 A 
ATOM     30  C   UNL     1      11.352   3.358  -4.801  0.00  0.00    +0.000 A 
ENDBRANCH  22  23
ENDBRANCH  18  22
ENDBRANCH  11   8
BRANCH  12   6
ATOM      6  O   UNL     1      17.184   7.372   3.547  0.00  0.00    -0.388 OA
ATOM     38  H   UNL     1      17.296   7.587   4.489  0.00  0.00    +0.210 HD
ENDBRANCH  12   6
TORSDOF 7
ENDMDL
MODEL 9
REMARK VINA RESULT:      -7.0      4.528      8.756
REMARK  Name = 45360554
REMARK  7 active torsions:
REMARK  status: ('A' for Active; 'I' for Inactive)
REMARK    1  A    between atoms: O_6  and  C_12
REMARK    2  A    between atoms: N_8  and  C_11
REMARK    3  A    between atoms: N_9  and  C_13
REMARK    4  A    between atoms: N_10  and  C_29
REMARK    5  A    between atoms: C_18  and  C_22
REMARK    6  A    between atoms: C_22  and  C_23
REMARK    7  A    between atoms: C_33  and  C_36
REMARK                            x       y       z     vdW  Elec       q    Type
REMARK                         _______ _______ _______ _____ _____    ______ ____
ROOT
ATOM      4  O   UNL     1      11.440   5.916   6.555  0.00  0.00    -0.342 OA
ATOM      5  O   UNL     1       9.400   7.020   6.509  0.00  0.00    -0.347 OA
ATOM     11  C   UNL     1      10.612   6.723   4.438  0.00  0.00    +0.143 C 
ATOM     12  C   UNL     1      11.339   8.071   4.645  0.00  0.00    +0.159 C 
ATOM     13  C   UNL     1      12.217   8.107   5.916  0.00  0.00    +0.136 C 
ATOM     14  C   UNL     1      10.237   6.097   5.794  0.00  0.00    +0.270 C 
ATOM     15  C   UNL     1      11.663   7.235   7.061  0.00  0.00    +0.170 C 
ATOM     19  C   UNL     1      10.259   7.605   7.499  0.00  0.00    +0.196 C 
ENDROOT
BRANCH  13   9
ATOM      7  O   UNL     1      14.498   9.816   5.630  0.00  0.00    -0.252 OA
ATOM      9  N   UNL     1      13.569   7.700   5.598  0.00  0.00    -0.291 N 
ATOM     10  N   UNL     1      15.809   7.924   5.167  0.00  0.00    -0.269 N 
ATOM     24  C   UNL     1      14.627   8.603   5.477  0.00  0.00    +0.304 C 
ATOM     37  H   UNL     1      13.737   6.723   5.378  0.00  0.00    +0.151 HD
ATOM     39  H   UNL     1      15.743   6.914   5.075  0.00  0.00    +0.156 HD
BRANCH  10  29
ATOM     29  C   UNL     1      17.096   8.471   4.961  0.00  0.00    +0.035 A 
ATOM     31  C   UNL     1      18.063   8.378   5.962  0.00  0.00    +0.035 A 
ATOM     32  C   UNL     1      17.400   9.106   3.756  0.00  0.00    +0.023 A 
ATOM     33  C   UNL     1      19.333   8.918   5.760  0.00  0.00    +0.057 A 
ATOM     34  C   UNL     1      18.670   9.647   3.554  0.00  0.00    +0.002 A 
ATOM     35  C   UNL     1      19.635   9.552   4.556  0.00  0.00    +0.012 A 
BRANCH  33  36
ATOM      1  F   UNL     1      21.475   9.579   6.593  0.00  0.00    -0.166 F 
ATOM      2  F   UNL     1      20.825   7.545   6.999  0.00  0.00    -0.166 F 
ATOM      3  F   UNL     1      19.920   9.213   8.059  0.00  0.00    -0.166 F 
ATOM     36  C   UNL     1      20.366   8.819   6.831  0.00  0.00    +0.417 C 
ENDBRANCH  33  36
ENDBRANCH  10  29
ENDBRANCH  13   9
BRANCH  11   8
ATOM      8  N   UNL     1      11.464   5.801   3.685  0.00  0.00    -0.293 NA
ATOM     16  C   UNL     1      12.111   6.497   2.565  0.00  0.00    +0.085 C 
ATOM     17  C   UNL     1      10.686   4.648   3.215  0.00  0.00    +0.085 C 
ATOM     18  C   UNL     1      12.308   4.314   1.304  0.00  0.00    -0.004 C 
ATOM     20  C   UNL     1      13.049   5.560   1.801  0.00  0.00    +0.019 C 
ATOM     21  C   UNL     1      11.574   3.647   2.473  0.00  0.00    +0.019 C 
BRANCH  18  22
ATOM     22  C   UNL     1      13.266   3.337   0.630  0.00  0.00    +0.038 C 
BRANCH  22  23
ATOM     23  C   UNL     1      13.204   3.443  -0.870  0.00  0.00    -0.047 A 
ATOM     25  C   UNL     1      12.271   2.692  -1.584  0.00  0.00    +0.003 A 
ATOM     26  C   UNL     1      14.080   4.293  -1.546  0.00  0.00    +0.003 A 
ATOM     27  C   UNL     1      12.212   2.790  -2.974  0.00  0.00    +0.000 A 
ATOM     28  C   UNL     1      14.021   4.391  -2.937  0.00  0.00    +0.000 A 
ATOM     30  C   UNL     1      13.088   3.640  -3.650  0.00  0.00    +0.000 A 
ENDBRANCH  22  23
ENDBRANCH  18  22
ENDBRANCH  11   8
BRANCH  12   6
ATOM      6  O   UNL     1      10.340   9.095   4.747  0.00  0.00    -0.388 OA
ATOM     38  H   UNL     1      10.685   9.784   5.341  0.00  0.00    +0.210 HD
ENDBRANCH  12   6
TORSDOF 7
ENDMDL
MODEL 10
REMARK VINA RESULT:      -6.8     27.215     30.034
REMARK  Name = 45360554
REMARK  7 active torsions:
REMARK  status: ('A' for Active; 'I' for Inactive)
REMARK    1  A    between atoms: O_6  and  C_12
REMARK    2  A    between atoms: N_8  and  C_11
REMARK    3  A    between atoms: N_9  and  C_13
REMARK    4  A    between atoms: N_10  and  C_29
REMARK    5  A    between atoms: C_18  and  C_22
REMARK    6  A    between atoms: C_22  and  C_23
REMARK    7  A    between atoms: C_33  and  C_36
REMARK                            x       y       z     vdW  Elec       q    Type
REMARK                         _______ _______ _______ _____ _____    ______ ____
ROOT
ATOM      4  O   UNL     1      -4.151 -13.559  14.074  0.00  0.00    -0.342 OA
ATOM      5  O   UNL     1      -2.069 -12.824  13.362  0.00  0.00    -0.347 OA
ATOM     11  C   UNL     1      -3.347 -11.427  14.866  0.00  0.00    +0.143 C 
ATOM     12  C   UNL     1      -4.012 -10.710  13.670  0.00  0.00    +0.159 C 
ATOM     13  C   UNL     1      -4.853 -11.650  12.779  0.00  0.00    +0.136 C 
ATOM     14  C   UNL     1      -2.963 -12.869  14.486  0.00  0.00    +0.270 C 
ATOM     15  C   UNL     1      -4.306 -13.092  12.730  0.00  0.00    +0.170 C 
ATOM     19  C   UNL     1      -2.876 -13.196  12.235  0.00  0.00    +0.196 C 
ENDROOT
BRANCH  13   9
ATOM      7  O   UNL     1      -6.575  -9.382  13.088  0.00  0.00    -0.252 OA
ATOM      9  N   UNL     1      -6.229 -11.663  13.228  0.00  0.00    -0.291 N 
ATOM     10  N   UNL     1      -8.283 -10.825  13.803  0.00  0.00    -0.269 N 
ATOM     24  C   UNL     1      -7.000 -10.506  13.351  0.00  0.00    +0.304 C 
ATOM     37  H   UNL     1      -6.624 -12.545  13.540  0.00  0.00    +0.151 HD
ATOM     39  H   UNL     1      -8.474 -11.809  13.974  0.00  0.00    +0.156 HD
BRANCH  10  29
ATOM     29  C   UNL     1      -9.359  -9.943  14.057  0.00  0.00    +0.035 A 
ATOM     31  C   UNL     1      -9.461  -9.304  15.291  0.00  0.00    +0.035 A 
ATOM     32  C   UNL     1     -10.321  -9.714  13.071  0.00  0.00    +0.023 A 
ATOM     33  C   UNL     1     -10.524  -8.435  15.542  0.00  0.00    +0.057 A 
ATOM     34  C   UNL     1     -11.383  -8.845  13.322  0.00  0.00    +0.002 A 
ATOM     35  C   UNL     1     -11.483  -8.206  14.557  0.00  0.00    +0.012 A 
BRANCH  33  36
ATOM      1  F   UNL     1     -11.076  -6.462  16.777  0.00  0.00    -0.166 F 
ATOM      2  F   UNL     1      -9.438  -7.684  17.519  0.00  0.00    -0.166 F 
ATOM      3  F   UNL     1     -11.492  -8.366  17.728  0.00  0.00    -0.166 F 
ATOM     36  C   UNL     1     -10.633  -7.751  16.863  0.00  0.00    +0.417 C 
ENDBRANCH  33  36
ENDBRANCH  10  29
ENDBRANCH  13   9
BRANCH  11   8
ATOM      8  N   UNL     1      -4.257 -11.443  16.013  0.00  0.00    -0.293 NA
ATOM     16  C   UNL     1      -4.989 -10.174  16.107  0.00  0.00    +0.085 C 
ATOM     17  C   UNL     1      -3.519 -11.723  17.251  0.00  0.00    +0.085 C 
ATOM     18  C   UNL     1      -5.286 -10.512  18.595  0.00  0.00    -0.004 C 
ATOM     20  C   UNL     1      -5.985 -10.194  17.268  0.00  0.00    +0.019 C 
ATOM     21  C   UNL     1      -4.464 -11.797  18.453  0.00  0.00    +0.019 C 
BRANCH  18  22
ATOM     22  C   UNL     1      -6.296 -10.630  19.733  0.00  0.00    +0.038 C 
BRANCH  22  23
ATOM     23  C   UNL     1      -7.552 -11.330  19.291  0.00  0.00    -0.047 A 
ATOM     25  C   UNL     1      -8.658 -10.587  18.882  0.00  0.00    +0.003 A 
ATOM     26  C   UNL     1      -7.609 -12.724  19.290  0.00  0.00    +0.003 A 
ATOM     27  C   UNL     1      -9.823 -11.236  18.472  0.00  0.00    +0.000 A 
ATOM     28  C   UNL     1      -8.774 -13.374  18.880  0.00  0.00    +0.000 A 
ATOM     30  C   UNL     1      -9.880 -12.630  18.471  0.00  0.00    +0.000 A 
ENDBRANCH  22  23
ENDBRANCH  18  22
ENDBRANCH  11   8
BRANCH  12   6
ATOM      6  O   UNL     1      -2.969 -10.132  12.873  0.00  0.00    -0.388 OA
ATOM     38  H   UNL     1      -2.317  -9.742  13.480  0.00  0.00    +0.210 HD
ENDBRANCH  12   6
TORSDOF 7
ENDMDL
