MODEL 1
REMARK VINA RESULT:      -7.0      0.000      0.000
REMARK  Name = 7134606
REMARK  15 active torsions:
REMARK  status: ('A' for Active; 'I' for Inactive)
REMARK    1  A    between atoms: S_1  and  C_25
REMARK    2  A    between atoms: S_1  and  C_34
REMARK    3  A    between atoms: O_6  and  C_28
REMARK    4  A    between atoms: O_8  and  C_33
REMARK    5  A    between atoms: O_8  and  C_35
REMARK    6  A    between atoms: N_10  and  C_13
REMARK    7  A    between atoms: N_11  and  C_21
REMARK    8  A    between atoms: C_14  and  C_18
REMARK    9  A    between atoms: C_19  and  C_20
REMARK   10  A    between atoms: C_20  and  C_24
REMARK   11  A    between atoms: C_21  and  C_23
REMARK   12  A    between atoms: C_21  and  C_26
REMARK   13  A    between atoms: C_22  and  C_25
REMARK   14  A    between atoms: C_23  and  C_27
REMARK   15  A    between atoms: C_24  and  C_28
REMARK                            x       y       z     vdW  Elec       q    Type
REMARK                         _______ _______ _______ _____ _____    ______ ____
ROOT
ATOM      3  O   UNL     1      12.561   6.645  18.662  0.00  0.00    -0.276 OA
ATOM      9  N   UNL     1      14.568   6.924  19.810  0.00  0.00    -0.290 N 
ATOM     13  C   UNL     1      17.458   6.517  19.901  0.00  0.00    +0.077 C 
ATOM     14  C   UNL     1      15.294   7.257  21.047  0.00  0.00    +0.164 C 
ATOM     15  C   UNL     1      16.623   6.512  21.184  0.00  0.00    +0.054 C 
ATOM     16  C   UNL     1      16.614   6.043  18.719  0.00  0.00    +0.041 C 
ATOM     17  C   UNL     1      15.358   6.892  18.574  0.00  0.00    +0.110 C 
ATOM     19  C   UNL     1      13.177   6.791  19.722  0.00  0.00    +0.217 C 
ENDROOT
BRANCH  14  18
ATOM      2  O   UNL     1      16.548   9.269  20.755  0.00  0.00    -0.274 OA
ATOM     11  N   UNL     1      14.334   9.414  21.459  0.00  0.00    -0.302 N 
ATOM     18  C   UNL     1      15.478   8.747  21.057  0.00  0.00    +0.234 C 
ATOM     37  H   UNL     1      13.490   8.889  21.662  0.00  0.00    +0.150 HD
BRANCH  11  21
ATOM     21  C   UNL     1      14.257  10.853  21.575  0.00  0.00    +0.163 C 
BRANCH  21  26
ATOM      5  O   UNL     1      12.746  11.754  23.251  0.00  0.00    -0.274 OA
ATOM     12  N   UNL     1      14.642  10.664  23.954  0.00  0.00    -0.328 N 
ATOM     26  C   UNL     1      13.791  11.163  22.990  0.00  0.00    +0.231 C 
ATOM     38  H   UNL     1      15.500  10.174  23.724  0.00  0.00    +0.145 HD
ATOM     39  H   UNL     1      14.441  10.787  24.940  0.00  0.00    +0.145 HD
ENDBRANCH  21  26
BRANCH  21  23
ATOM     23  C   UNL     1      13.297  11.467  20.550  0.00  0.00    +0.067 C 
BRANCH  23  27
ATOM     27  C   UNL     1      13.621  11.064  19.132  0.00  0.00    -0.045 A 
ATOM     29  C   UNL     1      14.749  11.585  18.499  0.00  0.00    +0.007 A 
ATOM     30  C   UNL     1      12.791  10.170  18.454  0.00  0.00    +0.007 A 
ATOM     31  C   UNL     1      15.048  11.213  17.189  0.00  0.00    +0.046 A 
ATOM     32  C   UNL     1      13.090   9.798  17.144  0.00  0.00    +0.046 A 
ATOM     33  C   UNL     1      14.218  10.320  16.511  0.00  0.00    +0.120 A 
BRANCH  33   8
ATOM      8  O   UNL     1      14.509   9.957  15.232  0.00  0.00    -0.495 OA
ATOM     35  C   UNL     1      15.504  10.720  14.551  0.00  0.00    +0.277 C 
ENDBRANCH  33   8
ENDBRANCH  23  27
ENDBRANCH  21  23
ENDBRANCH  11  21
ENDBRANCH  14  18
BRANCH  13  10
ATOM      4  O   UNL     1      20.042   7.321  20.925  0.00  0.00    -0.275 OA
ATOM     10  N   UNL     1      18.633   5.694  20.049  0.00  0.00    -0.312 N 
ATOM     22  C   UNL     1      19.835   6.167  20.552  0.00  0.00    +0.223 C 
ATOM     36  H   UNL     1      18.548   4.707  19.822  0.00  0.00    +0.149 HD
BRANCH  22  25
ATOM     25  C   UNL     1      20.916   5.113  20.590  0.00  0.00    +0.164 C 
BRANCH  25   1
ATOM      1  S   UNL     1      22.520   5.925  20.797  0.00  0.00    -0.155 S 
ATOM     34  C   UNL     1      23.586   4.511  20.435  0.00  0.00    +0.085 C 
ENDBRANCH  25   1
ENDBRANCH  22  25
ENDBRANCH  13  10
BRANCH  19  20
ATOM     20  C   UNL     1      12.408   6.818  21.019  0.00  0.00    +0.107 C 
BRANCH  20  24
ATOM     24  C   UNL     1      11.182   7.697  20.870  0.00  0.00    +0.129 C 
BRANCH  24  28
ATOM      7  O   UNL     1      10.950   8.686  23.063  0.00  0.00    -0.251 OA
ATOM     28  C   UNL     1      10.514   7.931  22.203  0.00  0.00    +0.305 C 
BRANCH  28   6
ATOM      6  O   UNL     1       9.387   7.194  22.358  0.00  0.00    -0.481 OA
ATOM     40  H   UNL     1       9.249   6.929  23.293  0.00  0.00    +0.295 HD
ENDBRANCH  28   6
ENDBRANCH  24  28
ENDBRANCH  20  24
ENDBRANCH  19  20
TORSDOF 13
ENDMDL
MODEL 2
REMARK VINA RESULT:      -6.7      2.439      3.980
REMARK  Name = 7134606
REMARK  15 active torsions:
REMARK  status: ('A' for Active; 'I' for Inactive)
REMARK    1  A    between atoms: S_1  and  C_25
REMARK    2  A    between atoms: S_1  and  C_34
REMARK    3  A    between atoms: O_6  and  C_28
REMARK    4  A    between atoms: O_8  and  C_33
REMARK    5  A    between atoms: O_8  and  C_35
REMARK    6  A    between atoms: N_10  and  C_13
REMARK    7  A    between atoms: N_11  and  C_21
REMARK    8  A    between atoms: C_14  and  C_18
REMARK    9  A    between atoms: C_19  and  C_20
REMARK   10  A    between atoms: C_20  and  C_24
REMARK   11  A    between atoms: C_21  and  C_23
REMARK   12  A    between atoms: C_21  and  C_26
REMARK   13  A    between atoms: C_22  and  C_25
REMARK   14  A    between atoms: C_23  and  C_27
REMARK   15  A    between atoms: C_24  and  C_28
REMARK                            x       y       z     vdW  Elec       q    Type
REMARK                         _______ _______ _______ _____ _____    ______ ____
ROOT
ATOM      3  O   UNL     1      12.033   6.496  19.236  0.00  0.00    -0.276 OA
ATOM      9  N   UNL     1      14.002   7.097  20.325  0.00  0.00    -0.290 N 
ATOM     13  C   UNL     1      16.920   7.194  20.313  0.00  0.00    +0.077 C 
ATOM     14  C   UNL     1      14.703   7.529  21.545  0.00  0.00    +0.164 C 
ATOM     15  C   UNL     1      16.145   7.022  21.622  0.00  0.00    +0.054 C 
ATOM     16  C   UNL     1      16.129   6.602  19.148  0.00  0.00    +0.041 C 
ATOM     17  C   UNL     1      14.740   7.223  19.063  0.00  0.00    +0.110 C 
ATOM     19  C   UNL     1      12.652   6.728  20.279  0.00  0.00    +0.217 C 
ENDROOT
BRANCH  14  18
ATOM      2  O   UNL     1      15.201   9.727  20.751  0.00  0.00    -0.274 OA
ATOM     11  N   UNL     1      13.882   9.488  22.653  0.00  0.00    -0.302 N 
ATOM     18  C   UNL     1      14.629   9.028  21.584  0.00  0.00    +0.234 C 
ATOM     37  H   UNL     1      13.426   8.825  23.272  0.00  0.00    +0.150 HD
BRANCH  11  21
ATOM     21  C   UNL     1      13.675  10.892  22.929  0.00  0.00    +0.163 C 
BRANCH  21  26
ATOM      5  O   UNL     1      15.807  12.033  23.177  0.00  0.00    -0.274 OA
ATOM     12  N   UNL     1      14.855  11.067  25.031  0.00  0.00    -0.328 N 
ATOM     26  C   UNL     1      14.898  11.384  23.689  0.00  0.00    +0.231 C 
ATOM     38  H   UNL     1      14.097  10.533  25.443  0.00  0.00    +0.145 HD
ATOM     39  H   UNL     1      15.603  11.349  25.657  0.00  0.00    +0.145 HD
ENDBRANCH  21  26
BRANCH  21  23
ATOM     23  C   UNL     1      12.403  11.142  23.745  0.00  0.00    +0.067 C 
BRANCH  23  27
ATOM     27  C   UNL     1      11.577  12.285  23.206  0.00  0.00    -0.045 A 
ATOM     29  C   UNL     1      10.718  12.984  24.053  0.00  0.00    +0.007 A 
ATOM     30  C   UNL     1      11.674  12.641  21.860  0.00  0.00    +0.007 A 
ATOM     31  C   UNL     1       9.954  14.040  23.554  0.00  0.00    +0.046 A 
ATOM     32  C   UNL     1      10.911  13.697  21.362  0.00  0.00    +0.046 A 
ATOM     33  C   UNL     1      10.051  14.396  22.209  0.00  0.00    +0.120 A 
BRANCH  33   8
ATOM      8  O   UNL     1       9.306  15.426  21.722  0.00  0.00    -0.495 OA
ATOM     35  C   UNL     1       8.013  15.107  21.211  0.00  0.00    +0.277 C 
ENDBRANCH  33   8
ENDBRANCH  23  27
ENDBRANCH  21  23
ENDBRANCH  11  21
ENDBRANCH  14  18
BRANCH  13  10
ATOM      4  O   UNL     1      19.370   8.422  21.241  0.00  0.00    -0.275 OA
ATOM     10  N   UNL     1      18.224   6.582  20.404  0.00  0.00    -0.312 N 
ATOM     22  C   UNL     1      19.347   7.253  20.863  0.00  0.00    +0.223 C 
ATOM     36  H   UNL     1      18.299   5.597  20.168  0.00  0.00    +0.149 HD
BRANCH  22  25
ATOM     25  C   UNL     1      20.593   6.399  20.845  0.00  0.00    +0.164 C 
BRANCH  25   1
ATOM      1  S   UNL     1      21.034   5.969  22.546  0.00  0.00    -0.155 S 
ATOM     34  C   UNL     1      21.832   4.379  22.224  0.00  0.00    +0.085 C 
ENDBRANCH  25   1
ENDBRANCH  22  25
ENDBRANCH  13  10
BRANCH  19  20
ATOM     20  C   UNL     1      11.937   6.599  21.600  0.00  0.00    +0.107 C 
BRANCH  20  24
ATOM     24  C   UNL     1      10.554   7.210  21.496  0.00  0.00    +0.129 C 
BRANCH  24  28
ATOM      7  O   UNL     1      11.315   9.396  20.799  0.00  0.00    -0.251 OA
ATOM     28  C   UNL     1      10.618   8.717  21.544  0.00  0.00    +0.305 C 
BRANCH  28   6
ATOM      6  O   UNL     1       9.838   9.243  22.520  0.00  0.00    -0.481 OA
ATOM     40  H   UNL     1       8.909   9.355  22.226  0.00  0.00    +0.295 HD
ENDBRANCH  28   6
ENDBRANCH  24  28
ENDBRANCH  20  24
ENDBRANCH  19  20
TORSDOF 13
ENDMDL
MODEL 3
REMARK VINA RESULT:      -6.4      3.612      7.826
REMARK  Name = 7134606
REMARK  15 active torsions:
REMARK  status: ('A' for Active; 'I' for Inactive)
REMARK    1  A    between atoms: S_1  and  C_25
REMARK    2  A    between atoms: S_1  and  C_34
REMARK    3  A    between atoms: O_6  and  C_28
REMARK    4  A    between atoms: O_8  and  C_33
REMARK    5  A    between atoms: O_8  and  C_35
REMARK    6  A    between atoms: N_10  and  C_13
REMARK    7  A    between atoms: N_11  and  C_21
REMARK    8  A    between atoms: C_14  and  C_18
REMARK    9  A    between atoms: C_19  and  C_20
REMARK   10  A    between atoms: C_20  and  C_24
REMARK   11  A    between atoms: C_21  and  C_23
REMARK   12  A    between atoms: C_21  and  C_26
REMARK   13  A    between atoms: C_22  and  C_25
REMARK   14  A    between atoms: C_23  and  C_27
REMARK   15  A    between atoms: C_24  and  C_28
REMARK                            x       y       z     vdW  Elec       q    Type
REMARK                         _______ _______ _______ _____ _____    ______ ____
ROOT
ATOM      3  O   UNL     1      11.618   6.308  19.922  0.00  0.00    -0.276 OA
ATOM      9  N   UNL     1      12.261   8.384  20.760  0.00  0.00    -0.290 N 
ATOM     13  C   UNL     1      11.730  10.601  22.584  0.00  0.00    +0.077 C 
ATOM     14  C   UNL     1      13.090   9.596  20.664  0.00  0.00    +0.164 C 
ATOM     15  C   UNL     1      12.403  10.841  21.230  0.00  0.00    +0.054 C 
ATOM     16  C   UNL     1      10.813   9.382  22.510  0.00  0.00    +0.041 C 
ATOM     17  C   UNL     1      11.581   8.153  22.040  0.00  0.00    +0.110 C 
ATOM     19  C   UNL     1      12.207   7.384  19.781  0.00  0.00    +0.217 C 
ENDROOT
BRANCH  14  18
ATOM      2  O   UNL     1      14.634   8.183  21.814  0.00  0.00    -0.274 OA
ATOM     11  N   UNL     1      15.204  10.409  21.445  0.00  0.00    -0.302 N 
ATOM     18  C   UNL     1      14.383   9.298  21.363  0.00  0.00    +0.234 C 
ATOM     37  H   UNL     1      14.915  11.282  21.015  0.00  0.00    +0.150 HD
BRANCH  11  21
ATOM     21  C   UNL     1      16.497  10.392  22.092  0.00  0.00    +0.163 C 
BRANCH  21  26
ATOM      5  O   UNL     1      17.289  12.689  22.105  0.00  0.00    -0.274 OA
ATOM     12  N   UNL     1      16.156  11.907  23.944  0.00  0.00    -0.328 N 
ATOM     26  C   UNL     1      16.716  11.773  22.691  0.00  0.00    +0.231 C 
ATOM     38  H   UNL     1      15.682  11.144  24.415  0.00  0.00    +0.145 HD
ATOM     39  H   UNL     1      16.217  12.784  24.450  0.00  0.00    +0.145 HD
ENDBRANCH  21  26
BRANCH  21  23
ATOM     23  C   UNL     1      17.628  10.046  21.118  0.00  0.00    +0.067 C 
BRANCH  23  27
ATOM     27  C   UNL     1      18.446   8.861  21.569  0.00  0.00    -0.045 A 
ATOM     29  C   UNL     1      19.451   9.030  22.521  0.00  0.00    +0.007 A 
ATOM     30  C   UNL     1      18.198   7.597  21.032  0.00  0.00    +0.007 A 
ATOM     31  C   UNL     1      20.208   7.935  22.937  0.00  0.00    +0.046 A 
ATOM     32  C   UNL     1      18.955   6.502  21.449  0.00  0.00    +0.046 A 
ATOM     33  C   UNL     1      19.959   6.671  22.401  0.00  0.00    +0.120 A 
BRANCH  33   8
ATOM      8  O   UNL     1      20.698   5.602  22.807  0.00  0.00    -0.495 OA
ATOM     35  C   UNL     1      21.467   4.928  21.812  0.00  0.00    +0.277 C 
ENDBRANCH  33   8
ENDBRANCH  23  27
ENDBRANCH  21  23
ENDBRANCH  11  21
ENDBRANCH  14  18
BRANCH  13  10
ATOM      4  O   UNL     1      11.316  11.529  25.293  0.00  0.00    -0.275 OA
ATOM     10  N   UNL     1      10.992  11.767  23.005  0.00  0.00    -0.312 N 
ATOM     22  C   UNL     1      10.845  12.136  24.333  0.00  0.00    +0.223 C 
ATOM     36  H   UNL     1      10.611  12.370  22.280  0.00  0.00    +0.149 HD
BRANCH  22  25
ATOM     25  C   UNL     1      10.014  13.384  24.511  0.00  0.00    +0.164 C 
BRANCH  25   1
ATOM      1  S   UNL     1      10.268  14.467  23.084  0.00  0.00    -0.155 S 
ATOM     34  C   UNL     1       8.563  15.029  22.866  0.00  0.00    +0.085 C 
ENDBRANCH  25   1
ENDBRANCH  22  25
ENDBRANCH  13  10
BRANCH  19  20
ATOM     20  C   UNL     1      12.910   7.670  18.478  0.00  0.00    +0.107 C 
BRANCH  20  24
ATOM     24  C   UNL     1      11.946   8.322  17.507  0.00  0.00    +0.129 C 
BRANCH  24  28
ATOM      7  O   UNL     1      13.116   8.639  15.416  0.00  0.00    -0.251 OA
ATOM     28  C   UNL     1      12.684   9.116  16.458  0.00  0.00    +0.305 C 
BRANCH  28   6
ATOM      6  O   UNL     1      12.841  10.418  16.804  0.00  0.00    -0.481 OA
ATOM     40  H   UNL     1      12.197  10.999  16.346  0.00  0.00    +0.295 HD
ENDBRANCH  28   6
ENDBRANCH  24  28
ENDBRANCH  20  24
ENDBRANCH  19  20
TORSDOF 13
ENDMDL
MODEL 4
REMARK VINA RESULT:      -6.1     13.168     16.383
REMARK  Name = 7134606
REMARK  15 active torsions:
REMARK  status: ('A' for Active; 'I' for Inactive)
REMARK    1  A    between atoms: S_1  and  C_25
REMARK    2  A    between atoms: S_1  and  C_34
REMARK    3  A    between atoms: O_6  and  C_28
REMARK    4  A    between atoms: O_8  and  C_33
REMARK    5  A    between atoms: O_8  and  C_35
REMARK    6  A    between atoms: N_10  and  C_13
REMARK    7  A    between atoms: N_11  and  C_21
REMARK    8  A    between atoms: C_14  and  C_18
REMARK    9  A    between atoms: C_19  and  C_20
REMARK   10  A    between atoms: C_20  and  C_24
REMARK   11  A    between atoms: C_21  and  C_23
REMARK   12  A    between atoms: C_21  and  C_26
REMARK   13  A    between atoms: C_22  and  C_25
REMARK   14  A    between atoms: C_23  and  C_27
REMARK   15  A    between atoms: C_24  and  C_28
REMARK                            x       y       z     vdW  Elec       q    Type
REMARK                         _______ _______ _______ _____ _____    ______ ____
ROOT
ATOM      3  O   UNL     1       8.413   7.815   7.668  0.00  0.00    -0.276 OA
ATOM      9  N   UNL     1       9.862   6.966   6.055  0.00  0.00    -0.290 N 
ATOM     13  C   UNL     1      10.358   6.323   3.251  0.00  0.00    +0.077 C 
ATOM     14  C   UNL     1      11.082   6.221   5.703  0.00  0.00    +0.164 C 
ATOM     15  C   UNL     1      10.968   5.476   4.371  0.00  0.00    +0.054 C 
ATOM     16  C   UNL     1       9.042   6.944   3.714  0.00  0.00    +0.041 C 
ATOM     17  C   UNL     1       9.243   7.758   4.986  0.00  0.00    +0.110 C 
ATOM     19  C   UNL     1       9.356   7.083   7.355  0.00  0.00    +0.217 C 
ENDROOT
BRANCH  14  18
ATOM      2  O   UNL     1      12.242   8.159   6.482  0.00  0.00    -0.274 OA
ATOM     11  N   UNL     1      13.155   6.927   4.731  0.00  0.00    -0.302 N 
ATOM     18  C   UNL     1      12.211   7.210   5.702  0.00  0.00    +0.234 C 
ATOM     37  H   UNL     1      13.050   6.099   4.153  0.00  0.00    +0.150 HD
BRANCH  11  21
ATOM     21  C   UNL     1      14.330   7.740   4.508  0.00  0.00    +0.163 C 
BRANCH  21  26
ATOM      5  O   UNL     1      16.022   7.622   2.769  0.00  0.00    -0.274 OA
ATOM     12  N   UNL     1      13.973   6.662   2.375  0.00  0.00    -0.328 N 
ATOM     26  C   UNL     1      14.879   7.366   3.139  0.00  0.00    +0.231 C 
ATOM     38  H   UNL     1      13.033   6.454   2.694  0.00  0.00    +0.145 HD
ATOM     39  H   UNL     1      14.218   6.338   1.445  0.00  0.00    +0.145 HD
ENDBRANCH  21  26
BRANCH  21  23
ATOM     23  C   UNL     1      15.396   7.526   5.588  0.00  0.00    +0.067 C 
BRANCH  23  27
ATOM     27  C   UNL     1      16.114   8.800   5.960  0.00  0.00    -0.045 A 
ATOM     29  C   UNL     1      15.388   9.909   6.393  0.00  0.00    +0.007 A 
ATOM     30  C   UNL     1      17.505   8.868   5.870  0.00  0.00    +0.007 A 
ATOM     31  C   UNL     1      16.052  11.087   6.736  0.00  0.00    +0.046 A 
ATOM     32  C   UNL     1      18.169  10.046   6.213  0.00  0.00    +0.046 A 
ATOM     33  C   UNL     1      17.443  11.155   6.646  0.00  0.00    +0.120 A 
BRANCH  33   8
ATOM      8  O   UNL     1      18.091  12.304   6.980  0.00  0.00    -0.495 OA
ATOM     35  C   UNL     1      18.611  12.396   8.305  0.00  0.00    +0.277 C 
ENDBRANCH  33   8
ENDBRANCH  23  27
ENDBRANCH  21  23
ENDBRANCH  11  21
ENDBRANCH  14  18
BRANCH  13  10
ATOM      4  O   UNL     1      11.409   6.840   0.605  0.00  0.00    -0.275 OA
ATOM     10  N   UNL     1      10.157   5.532   2.061  0.00  0.00    -0.312 N 
ATOM     22  C   UNL     1      10.702   5.860   0.829  0.00  0.00    +0.223 C 
ATOM     36  H   UNL     1       9.632   4.667   2.155  0.00  0.00    +0.149 HD
BRANCH  22  25
ATOM     25  C   UNL     1      10.329   4.883  -0.260  0.00  0.00    +0.164 C 
BRANCH  25   1
ATOM      1  S   UNL     1      11.837   4.320  -1.086  0.00  0.00    -0.155 S 
ATOM     34  C   UNL     1      12.641   3.533   0.329  0.00  0.00    +0.085 C 
ENDBRANCH  25   1
ENDBRANCH  22  25
ENDBRANCH  13  10
BRANCH  19  20
ATOM     20  C   UNL     1      10.015   6.242   8.420  0.00  0.00    +0.107 C 
BRANCH  20  24
ATOM     24  C   UNL     1       9.115   5.077   8.783  0.00  0.00    +0.129 C 
BRANCH  24  28
ATOM      7  O   UNL     1      10.344   4.414  10.756  0.00  0.00    -0.251 OA
ATOM     28  C   UNL     1       9.273   4.699  10.236  0.00  0.00    +0.305 C 
BRANCH  28   6
ATOM      6  O   UNL     1       8.092   4.684  10.902  0.00  0.00    -0.481 OA
ATOM     40  H   UNL     1       8.061   3.971  11.575  0.00  0.00    +0.295 HD
ENDBRANCH  28   6
ENDBRANCH  24  28
ENDBRANCH  20  24
ENDBRANCH  19  20
TORSDOF 13
ENDMDL
MODEL 5
REMARK VINA RESULT:      -6.0     28.079     31.110
REMARK  Name = 7134606
REMARK  15 active torsions:
REMARK  status: ('A' for Active; 'I' for Inactive)
REMARK    1  A    between atoms: S_1  and  C_25
REMARK    2  A    between atoms: S_1  and  C_34
REMARK    3  A    between atoms: O_6  and  C_28
REMARK    4  A    between atoms: O_8  and  C_33
REMARK    5  A    between atoms: O_8  and  C_35
REMARK    6  A    between atoms: N_10  and  C_13
REMARK    7  A    between atoms: N_11  and  C_21
REMARK    8  A    between atoms: C_14  and  C_18
REMARK    9  A    between atoms: C_19  and  C_20
REMARK   10  A    between atoms: C_20  and  C_24
REMARK   11  A    between atoms: C_21  and  C_23
REMARK   12  A    between atoms: C_21  and  C_26
REMARK   13  A    between atoms: C_22  and  C_25
REMARK   14  A    between atoms: C_23  and  C_27
REMARK   15  A    between atoms: C_24  and  C_28
REMARK                            x       y       z     vdW  Elec       q    Type
REMARK                         _______ _______ _______ _____ _____    ______ ____
ROOT
ATOM      3  O   UNL     1      -4.260  -9.844  17.051  0.00  0.00    -0.276 OA
ATOM      9  N   UNL     1      -6.303 -10.805  17.622  0.00  0.00    -0.290 N 
ATOM     13  C   UNL     1      -7.853 -12.423  19.495  0.00  0.00    +0.077 C 
ATOM     14  C   UNL     1      -7.675 -11.195  17.258  0.00  0.00    +0.164 C 
ATOM     15  C   UNL     1      -8.162 -12.444  17.996  0.00  0.00    +0.054 C 
ATOM     16  C   UNL     1      -6.374 -12.118  19.726  0.00  0.00    +0.041 C 
ATOM     17  C   UNL     1      -5.977 -10.810  19.053  0.00  0.00    +0.110 C 
ATOM     19  C   UNL     1      -5.361 -10.295  16.721  0.00  0.00    +0.217 C 
ENDROOT
BRANCH  14  18
ATOM      2  O   UNL     1      -8.134  -8.856  17.406  0.00  0.00    -0.274 OA
ATOM     11  N   UNL     1      -9.826 -10.371  17.914  0.00  0.00    -0.302 N 
ATOM     18  C   UNL     1      -8.551 -10.006  17.521  0.00  0.00    +0.234 C 
ATOM     37  H   UNL     1     -10.080 -11.353  17.952  0.00  0.00    +0.150 HD
BRANCH  11  21
ATOM     21  C   UNL     1     -10.856  -9.413  18.249  0.00  0.00    +0.163 C 
BRANCH  21  26
ATOM      5  O   UNL     1     -12.538  -9.758  19.969  0.00  0.00    -0.274 OA
ATOM     12  N   UNL     1     -10.334 -10.127  20.498  0.00  0.00    -0.328 N 
ATOM     26  C   UNL     1     -11.353  -9.759  19.645  0.00  0.00    +0.231 C 
ATOM     38  H   UNL     1      -9.359 -10.127  20.217  0.00  0.00    +0.145 HD
ATOM     39  H   UNL     1     -10.529 -10.397  21.456  0.00  0.00    +0.145 HD
ENDBRANCH  21  26
BRANCH  21  23
ATOM     23  C   UNL     1     -12.017  -9.436  17.248  0.00  0.00    +0.067 C 
BRANCH  23  27
ATOM     27  C   UNL     1     -12.094  -8.181  16.414  0.00  0.00    -0.045 A 
ATOM     29  C   UNL     1     -13.224  -7.928  15.637  0.00  0.00    +0.007 A 
ATOM     30  C   UNL     1     -11.033  -7.274  16.419  0.00  0.00    +0.007 A 
ATOM     31  C   UNL     1     -13.295  -6.768  14.865  0.00  0.00    +0.046 A 
ATOM     32  C   UNL     1     -11.105  -6.114  15.647  0.00  0.00    +0.046 A 
ATOM     33  C   UNL     1     -12.235  -5.861  14.871  0.00  0.00    +0.120 A 
BRANCH  33   8
ATOM      8  O   UNL     1     -12.304  -4.730  14.117  0.00  0.00    -0.495 OA
ATOM     35  C   UNL     1     -13.502  -4.517  13.372  0.00  0.00    +0.277 C 
ENDBRANCH  33   8
ENDBRANCH  23  27
ENDBRANCH  21  23
ENDBRANCH  11  21
ENDBRANCH  14  18
BRANCH  13  10
ATOM      4  O   UNL     1     -10.383 -13.101  20.724  0.00  0.00    -0.275 OA
ATOM     10  N   UNL     1      -8.216 -13.675  20.112  0.00  0.00    -0.312 N 
ATOM     22  C   UNL     1      -9.459 -13.911  20.679  0.00  0.00    +0.223 C 
ATOM     36  H   UNL     1      -7.538 -14.432  20.076  0.00  0.00    +0.149 HD
BRANCH  22  25
ATOM     25  C   UNL     1      -9.584 -15.293  21.275  0.00  0.00    +0.164 C 
BRANCH  25   1
ATOM      1  S   UNL     1      -9.887 -15.141  23.052  0.00  0.00    -0.155 S 
ATOM     34  C   UNL     1      -8.221 -15.518  23.643  0.00  0.00    +0.085 C 
ENDBRANCH  25   1
ENDBRANCH  22  25
ENDBRANCH  13  10
BRANCH  19  20
ATOM     20  C   UNL     1      -5.734 -10.320  15.260  0.00  0.00    +0.107 C 
BRANCH  20  24
ATOM     24  C   UNL     1      -4.842 -11.296  14.520  0.00  0.00    +0.129 C 
BRANCH  24  28
ATOM      7  O   UNL     1      -3.904 -10.296  12.529  0.00  0.00    -0.251 OA
ATOM     28  C   UNL     1      -3.789 -10.572  13.717  0.00  0.00    +0.305 C 
BRANCH  28   6
ATOM      6  O   UNL     1      -2.685 -10.279  14.448  0.00  0.00    -0.481 OA
ATOM     40  H   UNL     1      -2.210  -9.497  14.096  0.00  0.00    +0.295 HD
ENDBRANCH  28   6
ENDBRANCH  24  28
ENDBRANCH  20  24
ENDBRANCH  19  20
TORSDOF 13
ENDMDL
MODEL 6
REMARK VINA RESULT:      -5.9      3.726      7.805
REMARK  Name = 7134606
REMARK  15 active torsions:
REMARK  status: ('A' for Active; 'I' for Inactive)
REMARK    1  A    between atoms: S_1  and  C_25
REMARK    2  A    between atoms: S_1  and  C_34
REMARK    3  A    between atoms: O_6  and  C_28
REMARK    4  A    between atoms: O_8  and  C_33
REMARK    5  A    between atoms: O_8  and  C_35
REMARK    6  A    between atoms: N_10  and  C_13
REMARK    7  A    between atoms: N_11  and  C_21
REMARK    8  A    between atoms: C_14  and  C_18
REMARK    9  A    between atoms: C_19  and  C_20
REMARK   10  A    between atoms: C_20  and  C_24
REMARK   11  A    between atoms: C_21  and  C_23
REMARK   12  A    between atoms: C_21  and  C_26
REMARK   13  A    between atoms: C_22  and  C_25
REMARK   14  A    between atoms: C_23  and  C_27
REMARK   15  A    between atoms: C_24  and  C_28
REMARK                            x       y       z     vdW  Elec       q    Type
REMARK                         _______ _______ _______ _____ _____    ______ ____
ROOT
ATOM      3  O   UNL     1      11.259   7.908  18.492  0.00  0.00    -0.276 OA
ATOM      9  N   UNL     1      12.048   9.233  20.237  0.00  0.00    -0.290 N 
ATOM     13  C   UNL     1      11.600  10.387  22.881  0.00  0.00    +0.077 C 
ATOM     14  C   UNL     1      13.012  10.217  20.754  0.00  0.00    +0.164 C 
ATOM     15  C   UNL     1      12.419  11.135  21.825  0.00  0.00    +0.054 C 
ATOM     16  C   UNL     1      10.564   9.490  22.208  0.00  0.00    +0.041 C 
ATOM     17  C   UNL     1      11.230   8.529  21.231  0.00  0.00    +0.110 C 
ATOM     19  C   UNL     1      11.975   8.828  18.899  0.00  0.00    +0.217 C 
ENDROOT
BRANCH  14  18
ATOM      2  O   UNL     1      14.357   9.227  22.462  0.00  0.00    -0.274 OA
ATOM     11  N   UNL     1      15.043   9.052  20.245  0.00  0.00    -0.302 N 
ATOM     18  C   UNL     1      14.194   9.445  21.264  0.00  0.00    +0.234 C 
ATOM     37  H   UNL     1      14.803   9.259  19.281  0.00  0.00    +0.150 HD
BRANCH  11  21
ATOM     21  C   UNL     1      16.265   8.314  20.473  0.00  0.00    +0.163 C 
BRANCH  21  26
ATOM      5  O   UNL     1      15.605   6.099  19.723  0.00  0.00    -0.274 OA
ATOM     12  N   UNL     1      15.920   6.449  21.971  0.00  0.00    -0.328 N 
ATOM     26  C   UNL     1      15.879   6.853  20.653  0.00  0.00    +0.231 C 
ATOM     38  H   UNL     1      16.151   7.081  22.730  0.00  0.00    +0.145 HD
ATOM     39  H   UNL     1      15.699   5.493  22.229  0.00  0.00    +0.145 HD
ENDBRANCH  21  26
BRANCH  21  23
ATOM     23  C   UNL     1      17.027   8.820  21.702  0.00  0.00    +0.067 C 
BRANCH  23  27
ATOM     27  C   UNL     1      18.500   9.016  21.437  0.00  0.00    -0.045 A 
ATOM     29  C   UNL     1      18.997  10.292  21.172  0.00  0.00    +0.007 A 
ATOM     30  C   UNL     1      19.364   7.921  21.456  0.00  0.00    +0.007 A 
ATOM     31  C   UNL     1      20.358  10.473  20.927  0.00  0.00    +0.046 A 
ATOM     32  C   UNL     1      20.725   8.102  21.211  0.00  0.00    +0.046 A 
ATOM     33  C   UNL     1      21.222   9.378  20.946  0.00  0.00    +0.120 A 
BRANCH  33   8
ATOM      8  O   UNL     1      22.550   9.554  20.705  0.00  0.00    -0.495 OA
ATOM     35  C   UNL     1      23.457   8.718  21.422  0.00  0.00    +0.277 C 
ENDBRANCH  33   8
ENDBRANCH  23  27
ENDBRANCH  21  23
ENDBRANCH  11  21
ENDBRANCH  14  18
BRANCH  13  10
ATOM      4  O   UNL     1      12.714  11.530  25.294  0.00  0.00    -0.275 OA
ATOM     10  N   UNL     1      10.961  11.312  23.785  0.00  0.00    -0.312 N 
ATOM     22  C   UNL     1      11.575  11.809  24.924  0.00  0.00    +0.223 C 
ATOM     36  H   UNL     1      10.035  11.650  23.536  0.00  0.00    +0.149 HD
BRANCH  22  25
ATOM     25  C   UNL     1      10.690  12.746  25.712  0.00  0.00    +0.164 C 
BRANCH  25   1
ATOM      1  S   UNL     1      10.666  14.358  24.892  0.00  0.00    -0.155 S 
ATOM     34  C   UNL     1      11.628  15.291  26.105  0.00  0.00    +0.085 C 
ENDBRANCH  25   1
ENDBRANCH  22  25
ENDBRANCH  13  10
BRANCH  19  20
ATOM     20  C   UNL     1      12.824   9.587  17.910  0.00  0.00    +0.107 C 
BRANCH  20  24
ATOM     24  C   UNL     1      12.908   8.817  16.608  0.00  0.00    +0.129 C 
BRANCH  24  28
ATOM      7  O   UNL     1      10.807   8.911  15.416  0.00  0.00    -0.251 OA
ATOM     28  C   UNL     1      11.934   9.358  15.590  0.00  0.00    +0.305 C 
BRANCH  28   6
ATOM      6  O   UNL     1      12.450  10.383  14.867  0.00  0.00    -0.481 OA
ATOM     40  H   UNL     1      13.426  10.321  14.790  0.00  0.00    +0.295 HD
ENDBRANCH  28   6
ENDBRANCH  24  28
ENDBRANCH  20  24
ENDBRANCH  19  20
TORSDOF 13
ENDMDL
MODEL 7
REMARK VINA RESULT:      -5.8     27.153     30.007
REMARK  Name = 7134606
REMARK  15 active torsions:
REMARK  status: ('A' for Active; 'I' for Inactive)
REMARK    1  A    between atoms: S_1  and  C_25
REMARK    2  A    between atoms: S_1  and  C_34
REMARK    3  A    between atoms: O_6  and  C_28
REMARK    4  A    between atoms: O_8  and  C_33
REMARK    5  A    between atoms: O_8  and  C_35
REMARK    6  A    between atoms: N_10  and  C_13
REMARK    7  A    between atoms: N_11  and  C_21
REMARK    8  A    between atoms: C_14  and  C_18
REMARK    9  A    between atoms: C_19  and  C_20
REMARK   10  A    between atoms: C_20  and  C_24
REMARK   11  A    between atoms: C_21  and  C_23
REMARK   12  A    between atoms: C_21  and  C_26
REMARK   13  A    between atoms: C_22  and  C_25
REMARK   14  A    between atoms: C_23  and  C_27
REMARK   15  A    between atoms: C_24  and  C_28
REMARK                            x       y       z     vdW  Elec       q    Type
REMARK                         _______ _______ _______ _____ _____    ______ ____
ROOT
ATOM      3  O   UNL     1     -12.165  -8.743  17.263  0.00  0.00    -0.276 OA
ATOM      9  N   UNL     1     -10.314  -9.746  16.268  0.00  0.00    -0.290 N 
ATOM     13  C   UNL     1      -8.493  -9.897  13.991  0.00  0.00    +0.077 C 
ATOM     14  C   UNL     1      -9.329 -10.839  16.218  0.00  0.00    +0.164 C 
ATOM     15  C   UNL     1      -8.846 -11.148  14.799  0.00  0.00    +0.054 C 
ATOM     16  C   UNL     1      -9.646  -8.895  14.035  0.00  0.00    +0.041 C 
ATOM     17  C   UNL     1     -10.009  -8.550  15.474  0.00  0.00    +0.110 C 
ATOM     19  C   UNL     1     -11.419  -9.717  17.127  0.00  0.00    +0.217 C 
ENDROOT
BRANCH  14  18
ATOM      2  O   UNL     1      -8.134  -9.336  17.639  0.00  0.00    -0.274 OA
ATOM     11  N   UNL     1      -7.277 -11.471  17.281  0.00  0.00    -0.302 N 
ATOM     18  C   UNL     1      -8.200 -10.451  17.127  0.00  0.00    +0.234 C 
ATOM     37  H   UNL     1      -7.439 -12.368  16.834  0.00  0.00    +0.150 HD
BRANCH  11  21
ATOM     21  C   UNL     1      -6.085 -11.344  18.088  0.00  0.00    +0.163 C 
BRANCH  21  26
ATOM      5  O   UNL     1      -6.988 -12.116  20.208  0.00  0.00    -0.274 OA
ATOM     12  N   UNL     1      -6.336  -9.921  20.025  0.00  0.00    -0.328 N 
ATOM     26  C   UNL     1      -6.536 -11.194  19.533  0.00  0.00    +0.231 C 
ATOM     38  H   UNL     1      -5.958  -9.169  19.459  0.00  0.00    +0.145 HD
ATOM     39  H   UNL     1      -6.580  -9.689  20.982  0.00  0.00    +0.145 HD
ENDBRANCH  21  26
BRANCH  21  23
ATOM     23  C   UNL     1      -5.226 -10.146  17.669  0.00  0.00    +0.067 C 
BRANCH  23  27
ATOM     27  C   UNL     1      -4.338 -10.448  16.487  0.00  0.00    -0.045 A 
ATOM     29  C   UNL     1      -4.864 -10.424  15.196  0.00  0.00    +0.007 A 
ATOM     30  C   UNL     1      -2.991 -10.752  16.686  0.00  0.00    +0.007 A 
ATOM     31  C   UNL     1      -4.044 -10.703  14.103  0.00  0.00    +0.046 A 
ATOM     32  C   UNL     1      -2.171 -11.031  15.592  0.00  0.00    +0.046 A 
ATOM     33  C   UNL     1      -2.697 -11.007  14.301  0.00  0.00    +0.120 A 
BRANCH  33   8
ATOM      8  O   UNL     1      -1.897 -11.280  13.235  0.00  0.00    -0.495 OA
ATOM     35  C   UNL     1      -1.836 -10.301  12.200  0.00  0.00    +0.277 C 
ENDBRANCH  33   8
ENDBRANCH  23  27
ENDBRANCH  21  23
ENDBRANCH  11  21
ENDBRANCH  14  18
BRANCH  13  10
ATOM      4  O   UNL     1      -6.368  -8.797  12.363  0.00  0.00    -0.275 OA
ATOM     10  N   UNL     1      -8.170 -10.240  12.627  0.00  0.00    -0.312 N 
ATOM     22  C   UNL     1      -7.129  -9.657  11.923  0.00  0.00    +0.223 C 
ATOM     36  H   UNL     1      -8.706 -10.985  12.191  0.00  0.00    +0.149 HD
BRANCH  22  25
ATOM     25  C   UNL     1      -7.009 -10.175  10.509  0.00  0.00    +0.164 C 
BRANCH  25   1
ATOM      1  S   UNL     1      -5.284 -10.615  10.189  0.00  0.00    -0.155 S 
ATOM     34  C   UNL     1      -4.825  -9.189   9.177  0.00  0.00    +0.085 C 
ENDBRANCH  25   1
ENDBRANCH  22  25
ENDBRANCH  13  10
BRANCH  19  20
ATOM     20  C   UNL     1     -11.701 -10.972  17.915  0.00  0.00    +0.107 C 
BRANCH  20  24
ATOM     24  C   UNL     1     -11.712 -10.656  19.397  0.00  0.00    +0.129 C 
BRANCH  24  28
ATOM      7  O   UNL     1     -10.401 -12.388  20.458  0.00  0.00    -0.251 OA
ATOM     28  C   UNL     1     -10.496 -11.225  20.085  0.00  0.00    +0.305 C 
BRANCH  28   6
ATOM      6  O   UNL     1      -9.521 -10.300  20.270  0.00  0.00    -0.481 OA
ATOM     40  H   UNL     1      -8.743 -10.677  20.735  0.00  0.00    +0.295 HD
ENDBRANCH  28   6
ENDBRANCH  24  28
ENDBRANCH  20  24
ENDBRANCH  19  20
TORSDOF 13
ENDMDL
MODEL 8
REMARK VINA RESULT:      -5.8     26.883     29.917
REMARK  Name = 7134606
REMARK  15 active torsions:
REMARK  status: ('A' for Active; 'I' for Inactive)
REMARK    1  A    between atoms: S_1  and  C_25
REMARK    2  A    between atoms: S_1  and  C_34
REMARK    3  A    between atoms: O_6  and  C_28
REMARK    4  A    between atoms: O_8  and  C_33
REMARK    5  A    between atoms: O_8  and  C_35
REMARK    6  A    between atoms: N_10  and  C_13
REMARK    7  A    between atoms: N_11  and  C_21
REMARK    8  A    between atoms: C_14  and  C_18
REMARK    9  A    between atoms: C_19  and  C_20
REMARK   10  A    between atoms: C_20  and  C_24
REMARK   11  A    between atoms: C_21  and  C_23
REMARK   12  A    between atoms: C_21  and  C_26
REMARK   13  A    between atoms: C_22  and  C_25
REMARK   14  A    between atoms: C_23  and  C_27
REMARK   15  A    between atoms: C_24  and  C_28
REMARK                            x       y       z     vdW  Elec       q    Type
REMARK                         _______ _______ _______ _____ _____    ______ ____
ROOT
ATOM      3  O   UNL     1      -5.457 -11.414   9.872  0.00  0.00    -0.276 OA
ATOM      9  N   UNL     1      -6.078 -10.750  12.016  0.00  0.00    -0.290 N 
ATOM     13  C   UNL     1      -8.135 -10.635  14.085  0.00  0.00    +0.077 C 
ATOM     14  C   UNL     1      -5.820  -9.959  13.230  0.00  0.00    +0.164 C 
ATOM     15  C   UNL     1      -7.100  -9.516  13.943  0.00  0.00    +0.054 C 
ATOM     16  C   UNL     1      -8.391 -11.293  12.730  0.00  0.00    +0.041 C 
ATOM     17  C   UNL     1      -7.091 -11.806  12.122  0.00  0.00    +0.110 C 
ATOM     19  C   UNL     1      -5.325 -10.658  10.839  0.00  0.00    +0.217 C 
ENDROOT
BRANCH  14  18
ATOM      2  O   UNL     1      -4.698 -11.971  13.863  0.00  0.00    -0.274 OA
ATOM     11  N   UNL     1      -4.485 -10.089  15.216  0.00  0.00    -0.302 N 
ATOM     18  C   UNL     1      -4.941 -10.793  14.116  0.00  0.00    +0.234 C 
ATOM     37  H   UNL     1      -4.722  -9.107  15.319  0.00  0.00    +0.150 HD
BRANCH  11  21
ATOM     21  C   UNL     1      -3.640 -10.671  16.234  0.00  0.00    +0.163 C 
BRANCH  21  26
ATOM      5  O   UNL     1      -1.403 -10.117  15.462  0.00  0.00    -0.274 OA
ATOM     12  N   UNL     1      -2.152 -12.272  15.203  0.00  0.00    -0.328 N 
ATOM     26  C   UNL     1      -2.292 -10.956  15.588  0.00  0.00    +0.231 C 
ATOM     38  H   UNL     1      -2.892 -12.957  15.315  0.00  0.00    +0.145 HD
ATOM     39  H   UNL     1      -1.294 -12.600  14.772  0.00  0.00    +0.145 HD
ENDBRANCH  21  26
BRANCH  21  23
ATOM     23  C   UNL     1      -4.235 -11.958  16.816  0.00  0.00    +0.067 C 
BRANCH  23  27
ATOM     27  C   UNL     1      -5.431 -11.701  17.699  0.00  0.00    -0.045 A 
ATOM     29  C   UNL     1      -6.637 -12.354  17.447  0.00  0.00    +0.007 A 
ATOM     30  C   UNL     1      -5.331 -10.809  18.768  0.00  0.00    +0.007 A 
ATOM     31  C   UNL     1      -7.743 -12.116  18.263  0.00  0.00    +0.046 A 
ATOM     32  C   UNL     1      -6.437 -10.571  19.584  0.00  0.00    +0.046 A 
ATOM     33  C   UNL     1      -7.642 -11.224  19.332  0.00  0.00    +0.120 A 
BRANCH  33   8
ATOM      8  O   UNL     1      -8.722 -10.992  20.127  0.00  0.00    -0.495 OA
ATOM     35  C   UNL     1      -9.994 -10.905  19.488  0.00  0.00    +0.277 C 
ENDBRANCH  33   8
ENDBRANCH  23  27
ENDBRANCH  21  23
ENDBRANCH  11  21
ENDBRANCH  14  18
BRANCH  13  10
ATOM      4  O   UNL     1      -8.466  -9.194  16.572  0.00  0.00    -0.275 OA
ATOM     10  N   UNL     1      -9.365 -10.128  14.644  0.00  0.00    -0.312 N 
ATOM     22  C   UNL     1      -9.428  -9.446  15.849  0.00  0.00    +0.223 C 
ATOM     36  H   UNL     1     -10.212 -10.236  14.092  0.00  0.00    +0.149 HD
BRANCH  22  25
ATOM     25  C   UNL     1     -10.833  -9.036  16.223  0.00  0.00    +0.164 C 
BRANCH  25   1
ATOM      1  S   UNL     1     -10.777  -7.417  17.027  0.00  0.00    -0.155 S 
ATOM     34  C   UNL     1     -10.682  -6.384  15.547  0.00  0.00    +0.085 C 
ENDBRANCH  25   1
ENDBRANCH  22  25
ENDBRANCH  13  10
BRANCH  19  20
ATOM     20  C   UNL     1      -4.304  -9.551  10.770  0.00  0.00    +0.107 C 
BRANCH  20  24
ATOM     24  C   UNL     1      -2.945 -10.126  10.424  0.00  0.00    +0.129 C 
BRANCH  24  28
ATOM      7  O   UNL     1      -1.402  -9.682  12.230  0.00  0.00    -0.251 OA
ATOM     28  C   UNL     1      -2.162 -10.461  11.669  0.00  0.00    +0.305 C 
BRANCH  28   6
ATOM      6  O   UNL     1      -2.371 -11.734  12.090  0.00  0.00    -0.481 OA
ATOM     40  H   UNL     1      -1.849 -11.943  12.894  0.00  0.00    +0.295 HD
ENDBRANCH  28   6
ENDBRANCH  24  28
ENDBRANCH  20  24
ENDBRANCH  19  20
TORSDOF 13
ENDMDL
MODEL 9
REMARK VINA RESULT:      -5.8     26.405     29.814
REMARK  Name = 7134606
REMARK  15 active torsions:
REMARK  status: ('A' for Active; 'I' for Inactive)
REMARK    1  A    between atoms: S_1  and  C_25
REMARK    2  A    between atoms: S_1  and  C_34
REMARK    3  A    between atoms: O_6  and  C_28
REMARK    4  A    between atoms: O_8  and  C_33
REMARK    5  A    between atoms: O_8  and  C_35
REMARK    6  A    between atoms: N_10  and  C_13
REMARK    7  A    between atoms: N_11  and  C_21
REMARK    8  A    between atoms: C_14  and  C_18
REMARK    9  A    between atoms: C_19  and  C_20
REMARK   10  A    between atoms: C_20  and  C_24
REMARK   11  A    between atoms: C_21  and  C_23
REMARK   12  A    between atoms: C_21  and  C_26
REMARK   13  A    between atoms: C_22  and  C_25
REMARK   14  A    between atoms: C_23  and  C_27
REMARK   15  A    between atoms: C_24  and  C_28
REMARK                            x       y       z     vdW  Elec       q    Type
REMARK                         _______ _______ _______ _____ _____    ______ ____
ROOT
ATOM      3  O   UNL     1      -2.558 -12.183  12.008  0.00  0.00    -0.276 OA
ATOM      9  N   UNL     1      -4.447 -10.821  11.984  0.00  0.00    -0.290 N 
ATOM     13  C   UNL     1      -6.738  -9.774  10.508  0.00  0.00    +0.077 C 
ATOM     14  C   UNL     1      -5.258  -9.755  12.595  0.00  0.00    +0.164 C 
ATOM     15  C   UNL     1      -6.031  -8.925  11.568  0.00  0.00    +0.054 C 
ATOM     16  C   UNL     1      -5.754 -10.758   9.877  0.00  0.00    +0.041 C 
ATOM     17  C   UNL     1      -5.096 -11.626  10.942  0.00  0.00    +0.110 C 
ATOM     19  C   UNL     1      -3.177 -11.204  12.434  0.00  0.00    +0.217 C 
ENDROOT
BRANCH  14  18
ATOM      2  O   UNL     1      -6.001 -11.578  13.949  0.00  0.00    -0.274 OA
ATOM     11  N   UNL     1      -7.186  -9.575  14.005  0.00  0.00    -0.302 N 
ATOM     18  C   UNL     1      -6.168 -10.415  13.589  0.00  0.00    +0.234 C 
ATOM     37  H   UNL     1      -7.220  -8.619  13.667  0.00  0.00    +0.150 HD
BRANCH  11  21
ATOM     21  C   UNL     1      -8.210  -9.977  14.943  0.00  0.00    +0.163 C 
BRANCH  21  26
ATOM      5  O   UNL     1     -10.529  -9.256  14.857  0.00  0.00    -0.274 OA
ATOM     12  N   UNL     1      -9.546 -10.031  12.930  0.00  0.00    -0.328 N 
ATOM     26  C   UNL     1      -9.553  -9.725  14.275  0.00  0.00    +0.231 C 
ATOM     38  H   UNL     1      -8.733 -10.415  12.461  0.00  0.00    +0.145 HD
ATOM     39  H   UNL     1     -10.375  -9.895  12.361  0.00  0.00    +0.145 HD
ENDBRANCH  21  26
BRANCH  21  23
ATOM     23  C   UNL     1      -8.118  -9.208  16.266  0.00  0.00    +0.067 C 
BRANCH  23  27
ATOM     27  C   UNL     1      -7.212  -9.878  17.270  0.00  0.00    -0.045 A 
ATOM     29  C   UNL     1      -5.836  -9.920  17.047  0.00  0.00    +0.007 A 
ATOM     30  C   UNL     1      -7.751 -10.455  18.420  0.00  0.00    +0.007 A 
ATOM     31  C   UNL     1      -4.998 -10.539  17.975  0.00  0.00    +0.046 A 
ATOM     32  C   UNL     1      -6.913 -11.074  19.348  0.00  0.00    +0.046 A 
ATOM     33  C   UNL     1      -5.538 -11.116  19.125  0.00  0.00    +0.120 A 
BRANCH  33   8
ATOM      8  O   UNL     1      -4.721 -11.722  20.030  0.00  0.00    -0.495 OA
ATOM     35  C   UNL     1      -3.583 -12.414  19.518  0.00  0.00    +0.277 C 
ENDBRANCH  33   8
ENDBRANCH  23  27
ENDBRANCH  21  23
ENDBRANCH  11  21
ENDBRANCH  14  18
BRANCH  13  10
ATOM      4  O   UNL     1      -8.995 -10.419   8.816  0.00  0.00    -0.275 OA
ATOM     10  N   UNL     1      -7.339  -8.938   9.497  0.00  0.00    -0.312 N 
ATOM     22  C   UNL     1      -8.424  -9.333   8.731  0.00  0.00    +0.223 C 
ATOM     36  H   UNL     1      -6.975  -7.996   9.389  0.00  0.00    +0.149 HD
BRANCH  22  25
ATOM     25  C   UNL     1      -8.854  -8.285   7.732  0.00  0.00    +0.164 C 
BRANCH  25   1
ATOM      1  S   UNL     1      -7.978  -6.743   8.085  0.00  0.00    -0.155 S 
ATOM     34  C   UNL     1      -9.405  -5.707   8.481  0.00  0.00    +0.085 C 
ENDBRANCH  25   1
ENDBRANCH  22  25
ENDBRANCH  13  10
BRANCH  19  20
ATOM     20  C   UNL     1      -2.544 -10.342  13.497  0.00  0.00    +0.107 C 
BRANCH  20  24
ATOM     24  C   UNL     1      -2.531 -11.083  14.819  0.00  0.00    +0.129 C 
BRANCH  24  28
ATOM      7  O   UNL     1      -0.716  -9.618  15.452  0.00  0.00    -0.251 OA
ATOM     28  C   UNL     1      -1.512 -10.495  15.763  0.00  0.00    +0.305 C 
BRANCH  28   6
ATOM      6  O   UNL     1      -1.553 -11.062  16.995  0.00  0.00    -0.481 OA
ATOM     40  H   UNL     1      -2.387 -11.558  17.141  0.00  0.00    +0.295 HD
ENDBRANCH  28   6
ENDBRANCH  24  28
ENDBRANCH  20  24
ENDBRANCH  19  20
TORSDOF 13
ENDMDL
MODEL 10
REMARK VINA RESULT:      -5.7     14.194     17.478
REMARK  Name = 7134606
REMARK  15 active torsions:
REMARK  status: ('A' for Active; 'I' for Inactive)
REMARK    1  A    between atoms: S_1  and  C_25
REMARK    2  A    between atoms: S_1  and  C_34
REMARK    3  A    between atoms: O_6  and  C_28
REMARK    4  A    between atoms: O_8  and  C_33
REMARK    5  A    between atoms: O_8  and  C_35
REMARK    6  A    between atoms: N_10  and  C_13
REMARK    7  A    between atoms: N_11  and  C_21
REMARK    8  A    between atoms: C_14  and  C_18
REMARK    9  A    between atoms: C_19  and  C_20
REMARK   10  A    between atoms: C_20  and  C_24
REMARK   11  A    between atoms: C_21  and  C_23
REMARK   12  A    between atoms: C_21  and  C_26
REMARK   13  A    between atoms: C_22  and  C_25
REMARK   14  A    between atoms: C_23  and  C_27
REMARK   15  A    between atoms: C_24  and  C_28
REMARK                            x       y       z     vdW  Elec       q    Type
REMARK                         _______ _______ _______ _____ _____    ______ ____
ROOT
ATOM      3  O   UNL     1       9.042   9.780   2.519  0.00  0.00    -0.276 OA
ATOM      9  N   UNL     1      10.005   7.661   2.443  0.00  0.00    -0.290 N 
ATOM     13  C   UNL     1      11.529   5.675   0.940  0.00  0.00    +0.077 C 
ATOM     14  C   UNL     1      10.155   6.308   3.003  0.00  0.00    +0.164 C 
ATOM     15  C   UNL     1      10.454   5.247   1.941  0.00  0.00    +0.054 C 
ATOM     16  C   UNL     1      11.190   7.044   0.352  0.00  0.00    +0.041 C 
ATOM     17  C   UNL     1      11.008   8.078   1.456  0.00  0.00    +0.110 C 
ATOM     19  C   UNL     1       9.077   8.605   2.897  0.00  0.00    +0.217 C 
ENDROOT
BRANCH  14  18
ATOM      2  O   UNL     1      12.417   6.512   3.743  0.00  0.00    -0.274 OA
ATOM     11  N   UNL     1      10.731   6.270   5.328  0.00  0.00    -0.302 N 
ATOM     18  C   UNL     1      11.233   6.384   4.044  0.00  0.00    +0.234 C 
ATOM     37  H   UNL     1       9.728   6.194   5.472  0.00  0.00    +0.150 HD
BRANCH  11  21
ATOM     21  C   UNL     1      11.564   6.289   6.509  0.00  0.00    +0.163 C 
BRANCH  21  26
ATOM      5  O   UNL     1      11.006   5.615   8.776  0.00  0.00    -0.274 OA
ATOM     12  N   UNL     1      10.003   4.518   7.025  0.00  0.00    -0.328 N 
ATOM     26  C   UNL     1      10.862   5.451   7.567  0.00  0.00    +0.231 C 
ATOM     38  H   UNL     1       9.891   4.395   6.024  0.00  0.00    +0.145 HD
ATOM     39  H   UNL     1       9.459   3.902   7.621  0.00  0.00    +0.145 HD
ENDBRANCH  21  26
BRANCH  21  23
ATOM     23  C   UNL     1      11.803   7.712   7.027  0.00  0.00    +0.067 C 
BRANCH  23  27
ATOM     27  C   UNL     1      13.183   8.228   6.702  0.00  0.00    -0.045 A 
ATOM     29  C   UNL     1      14.243   7.335   6.545  0.00  0.00    +0.007 A 
ATOM     30  C   UNL     1      13.399   9.599   6.558  0.00  0.00    +0.007 A 
ATOM     31  C   UNL     1      15.519   7.812   6.244  0.00  0.00    +0.046 A 
ATOM     32  C   UNL     1      14.675  10.076   6.258  0.00  0.00    +0.046 A 
ATOM     33  C   UNL     1      15.734   9.183   6.101  0.00  0.00    +0.120 A 
BRANCH  33   8
ATOM      8  O   UNL     1      16.979   9.649   5.809  0.00  0.00    -0.495 OA
ATOM     35  C   UNL     1      18.085   8.840   6.204  0.00  0.00    +0.277 C 
ENDBRANCH  33   8
ENDBRANCH  23  27
ENDBRANCH  21  23
ENDBRANCH  11  21
ENDBRANCH  14  18
BRANCH  13  10
ATOM      4  O   UNL     1      13.485   3.548   0.791  0.00  0.00    -0.275 OA
ATOM     10  N   UNL     1      11.675   4.694  -0.108  0.00  0.00    -0.312 N 
ATOM     22  C   UNL     1      12.648   3.707  -0.095  0.00  0.00    +0.223 C 
ATOM     36  H   UNL     1      10.992   4.705  -0.861  0.00  0.00    +0.149 HD
BRANCH  22  25
ATOM     25  C   UNL     1      12.602   2.817  -1.314  0.00  0.00    +0.164 C 
BRANCH  25   1
ATOM      1  S   UNL     1      12.051   3.793  -2.734  0.00  0.00    -0.155 S 
ATOM     34  C   UNL     1      10.607   2.807  -3.195  0.00  0.00    +0.085 C 
ENDBRANCH  25   1
ENDBRANCH  22  25
ENDBRANCH  13  10
BRANCH  19  20
ATOM     20  C   UNL     1       8.058   8.129   3.902  0.00  0.00    +0.107 C 
BRANCH  20  24
ATOM     24  C   UNL     1       8.328   8.768   5.249  0.00  0.00    +0.129 C 
BRANCH  24  28
ATOM      7  O   UNL     1       8.354   8.029   7.550  0.00  0.00    -0.251 OA
ATOM     28  C   UNL     1       8.151   7.774   6.370  0.00  0.00    +0.305 C 
BRANCH  28   6
ATOM      6  O   UNL     1       7.765   6.551   5.927  0.00  0.00    -0.481 OA
ATOM     40  H   UNL     1       7.059   6.614   5.249  0.00  0.00    +0.295 HD
ENDBRANCH  28   6
ENDBRANCH  24  28
ENDBRANCH  20  24
ENDBRANCH  19  20
TORSDOF 13
ENDMDL
