MODEL 1
REMARK VINA RESULT:      -6.1      0.000      0.000
REMARK  Name = 75536510
REMARK  8 active torsions:
REMARK  status: ('A' for Active; 'I' for Inactive)
REMARK    1  A    between atoms: O_2  and  C_9
REMARK    2  A    between atoms: N_4  and  C_8
REMARK    3  A    between atoms: N_4  and  C_13
REMARK    4  A    between atoms: N_5  and  C_12
REMARK    5  A    between atoms: N_6  and  C_17
REMARK    6  A    between atoms: C_10  and  C_12
REMARK    7  A    between atoms: C_13  and  C_14
REMARK    8  A    between atoms: C_15  and  C_19
REMARK                            x       y       z     vdW  Elec       q    Type
REMARK                         _______ _______ _______ _____ _____    ______ ____
ROOT
ATOM      1  O   UNL     1      10.637   8.693  20.069  0.00  0.00    -0.371 OA
ATOM      8  C   UNL     1      12.255   7.104  19.366  0.00  0.00    +0.111 C 
ATOM      9  C   UNL     1      12.197   7.112  20.882  0.00  0.00    +0.164 C 
ATOM     10  C   UNL     1      10.826   7.730  21.120  0.00  0.00    +0.165 C 
ATOM     11  C   UNL     1      11.598   8.432  19.032  0.00  0.00    +0.181 C 
ENDROOT
BRANCH   9   2
ATOM      2  O   UNL     1      12.296   5.817  21.440  0.00  0.00    -0.388 OA
ATOM     21  H   UNL     1      13.182   5.467  21.244  0.00  0.00    +0.210 HD
ENDBRANCH   9   2
BRANCH   8   4
ATOM      4  N   UNL     1      13.603   6.989  18.834  0.00  0.00    -0.302 NA
ATOM     20  H   UNL     1      13.632   7.410  17.904  0.00  0.00    +0.123 HD
BRANCH   4  13
ATOM     13  C   UNL     1      14.566   7.670  19.691  0.00  0.00    +0.156 C 
BRANCH  13  14
ATOM      6  N   UNL     1      16.940   7.394  20.474  0.00  0.00    -0.336 N 
ATOM      7  N   UNL     1      16.268   6.014  18.869  0.00  0.00    -0.239 NA
ATOM     14  C   UNL     1      15.917   7.006  19.655  0.00  0.00    +0.123 A 
ATOM     16  C   UNL     1      18.015   6.598  20.191  0.00  0.00    +0.106 A 
ATOM     17  C   UNL     1      16.912   8.448  21.461  0.00  0.00    +0.150 C 
ATOM     18  C   UNL     1      17.576   5.754  19.197  0.00  0.00    +0.130 A 
ENDBRANCH  13  14
ENDBRANCH   4  13
ENDBRANCH   8   4
BRANCH  10  12
ATOM     12  C   UNL     1      10.700   8.413  22.471  0.00  0.00    +0.138 C 
BRANCH  12   5
ATOM      3  O   UNL     1      11.071  11.284  22.254  0.00  0.00    -0.276 OA
ATOM      5  N   UNL     1      11.880   9.166  22.787  0.00  0.00    -0.313 N 
ATOM     15  C   UNL     1      11.969  10.547  22.652  0.00  0.00    +0.210 C 
ATOM     19  C   UNL     1      13.309  11.084  23.077  0.00  0.00    +0.109 C 
ATOM     22  H   UNL     1      12.689   8.653  23.124  0.00  0.00    +0.149 HD
ENDBRANCH  12   5
ENDBRANCH  10  12
TORSDOF 6
ENDMDL
MODEL 2
REMARK VINA RESULT:      -5.9      2.751      5.688
REMARK  Name = 75536510
REMARK  8 active torsions:
REMARK  status: ('A' for Active; 'I' for Inactive)
REMARK    1  A    between atoms: O_2  and  C_9
REMARK    2  A    between atoms: N_4  and  C_8
REMARK    3  A    between atoms: N_4  and  C_13
REMARK    4  A    between atoms: N_5  and  C_12
REMARK    5  A    between atoms: N_6  and  C_17
REMARK    6  A    between atoms: C_10  and  C_12
REMARK    7  A    between atoms: C_13  and  C_14
REMARK    8  A    between atoms: C_15  and  C_19
REMARK                            x       y       z     vdW  Elec       q    Type
REMARK                         _______ _______ _______ _____ _____    ______ ____
ROOT
ATOM      1  O   UNL     1      14.353   7.837  22.206  0.00  0.00    -0.371 OA
ATOM      8  C   UNL     1      13.463   6.673  20.338  0.00  0.00    +0.111 C 
ATOM      9  C   UNL     1      14.863   7.150  20.001  0.00  0.00    +0.164 C 
ATOM     10  C   UNL     1      15.441   7.367  21.392  0.00  0.00    +0.165 C 
ATOM     11  C   UNL     1      13.119   7.561  21.522  0.00  0.00    +0.181 C 
ENDROOT
BRANCH   9   2
ATOM      2  O   UNL     1      15.603   6.197  19.264  0.00  0.00    -0.388 OA
ATOM     21  H   UNL     1      15.970   6.637  18.478  0.00  0.00    +0.210 HD
ENDBRANCH   9   2
BRANCH   8   4
ATOM      4  N   UNL     1      12.520   6.807  19.238  0.00  0.00    -0.302 NA
ATOM     20  H   UNL     1      11.733   6.176  19.394  0.00  0.00    +0.123 HD
BRANCH   4  13
ATOM     13  C   UNL     1      12.018   8.172  19.140  0.00  0.00    +0.156 C 
BRANCH  13  14
ATOM      6  N   UNL     1      12.670   9.250  16.963  0.00  0.00    -0.336 N 
ATOM      7  N   UNL     1      10.651   8.327  17.035  0.00  0.00    -0.239 NA
ATOM     14  C   UNL     1      11.752   8.571  17.712  0.00  0.00    +0.123 A 
ATOM     16  C   UNL     1      12.121   9.453  15.727  0.00  0.00    +0.106 A 
ATOM     17  C   UNL     1      13.983   9.682  17.380  0.00  0.00    +0.150 C 
ATOM     18  C   UNL     1      10.875   8.874  15.797  0.00  0.00    +0.130 A 
ENDBRANCH  13  14
ENDBRANCH   4  13
ENDBRANCH   8   4
BRANCH  10  12
ATOM     12  C   UNL     1      16.577   8.376  21.421  0.00  0.00    +0.138 C 
BRANCH  12   5
ATOM      3  O   UNL     1      18.447   6.546  20.164  0.00  0.00    -0.276 OA
ATOM      5  N   UNL     1      17.763   7.811  21.996  0.00  0.00    -0.313 N 
ATOM     15  C   UNL     1      18.605   6.937  21.317  0.00  0.00    +0.210 C 
ATOM     19  C   UNL     1      19.789   6.515  22.144  0.00  0.00    +0.109 C 
ATOM     22  H   UNL     1      17.990   8.065  22.953  0.00  0.00    +0.149 HD
ENDBRANCH  12   5
ENDBRANCH  10  12
TORSDOF 6
ENDMDL
MODEL 3
REMARK VINA RESULT:      -5.8      2.672      5.959
REMARK  Name = 75536510
REMARK  8 active torsions:
REMARK  status: ('A' for Active; 'I' for Inactive)
REMARK    1  A    between atoms: O_2  and  C_9
REMARK    2  A    between atoms: N_4  and  C_8
REMARK    3  A    between atoms: N_4  and  C_13
REMARK    4  A    between atoms: N_5  and  C_12
REMARK    5  A    between atoms: N_6  and  C_17
REMARK    6  A    between atoms: C_10  and  C_12
REMARK    7  A    between atoms: C_13  and  C_14
REMARK    8  A    between atoms: C_15  and  C_19
REMARK                            x       y       z     vdW  Elec       q    Type
REMARK                         _______ _______ _______ _____ _____    ______ ____
ROOT
ATOM      1  O   UNL     1      12.824   6.661  20.951  0.00  0.00    -0.371 OA
ATOM      8  C   UNL     1      10.875   7.980  21.272  0.00  0.00    +0.111 C 
ATOM      9  C   UNL     1      11.500   8.339  19.937  0.00  0.00    +0.164 C 
ATOM     10  C   UNL     1      12.348   7.103  19.668  0.00  0.00    +0.165 C 
ATOM     11  C   UNL     1      12.036   7.295  21.973  0.00  0.00    +0.181 C 
ENDROOT
BRANCH   9   2
ATOM      2  O   UNL     1      10.538   8.550  18.922  0.00  0.00    -0.388 OA
ATOM     21  H   UNL     1      10.449   7.728  18.410  0.00  0.00    +0.210 HD
ENDBRANCH   9   2
BRANCH   8   4
ATOM      4  N   UNL     1      10.368   9.128  22.006  0.00  0.00    -0.302 NA
ATOM     20  H   UNL     1      10.254   8.872  22.988  0.00  0.00    +0.123 HD
BRANCH   4  13
ATOM     13  C   UNL     1      11.285  10.257  21.916  0.00  0.00    +0.156 C 
BRANCH  13  14
ATOM      6  N   UNL     1      12.693  11.282  23.730  0.00  0.00    -0.336 N 
ATOM      7  N   UNL     1      10.498  11.291  24.068  0.00  0.00    -0.239 NA
ATOM     14  C   UNL     1      11.462  10.944  23.244  0.00  0.00    +0.123 A 
ATOM     16  C   UNL     1      12.504  11.884  24.943  0.00  0.00    +0.106 A 
ATOM     17  C   UNL     1      13.970  11.056  23.095  0.00  0.00    +0.150 C 
ATOM     18  C   UNL     1      11.141  11.878  25.129  0.00  0.00    +0.130 A 
ENDBRANCH  13  14
ENDBRANCH   4  13
ENDBRANCH   8   4
BRANCH  10  12
ATOM     12  C   UNL     1      13.526   7.371  18.748  0.00  0.00    +0.138 C 
BRANCH  12   5
ATOM      3  O   UNL     1      13.795   8.207  15.981  0.00  0.00    -0.276 OA
ATOM      5  N   UNL     1      13.495   8.710  18.235  0.00  0.00    -0.313 N 
ATOM     15  C   UNL     1      13.632   9.020  16.887  0.00  0.00    +0.210 C 
ATOM     19  C   UNL     1      13.536  10.498  16.621  0.00  0.00    +0.109 C 
ATOM     22  H   UNL     1      13.368   9.467  18.901  0.00  0.00    +0.149 HD
ENDBRANCH  12   5
ENDBRANCH  10  12
TORSDOF 6
ENDMDL
MODEL 4
REMARK VINA RESULT:      -5.7      3.212      6.789
REMARK  Name = 75536510
REMARK  8 active torsions:
REMARK  status: ('A' for Active; 'I' for Inactive)
REMARK    1  A    between atoms: O_2  and  C_9
REMARK    2  A    between atoms: N_4  and  C_8
REMARK    3  A    between atoms: N_4  and  C_13
REMARK    4  A    between atoms: N_5  and  C_12
REMARK    5  A    between atoms: N_6  and  C_17
REMARK    6  A    between atoms: C_10  and  C_12
REMARK    7  A    between atoms: C_13  and  C_14
REMARK    8  A    between atoms: C_15  and  C_19
REMARK                            x       y       z     vdW  Elec       q    Type
REMARK                         _______ _______ _______ _____ _____    ______ ____
ROOT
ATOM      1  O   UNL     1      13.252   8.134  21.337  0.00  0.00    -0.371 OA
ATOM      8  C   UNL     1      11.332   8.890  22.513  0.00  0.00    +0.111 C 
ATOM      9  C   UNL     1      10.897   7.930  21.422  0.00  0.00    +0.164 C 
ATOM     10  C   UNL     1      12.194   7.177  21.159  0.00  0.00    +0.165 C 
ATOM     11  C   UNL     1      12.724   9.272  22.040  0.00  0.00    +0.181 C 
ENDROOT
BRANCH   9   2
ATOM      2  O   UNL     1       9.859   7.064  21.837  0.00  0.00    -0.388 OA
ATOM     21  H   UNL     1       9.100   7.189  21.241  0.00  0.00    +0.210 HD
ENDBRANCH   9   2
BRANCH   8   4
ATOM      4  N   UNL     1      10.451  10.037  22.667  0.00  0.00    -0.302 NA
ATOM     20  H   UNL     1      10.028  10.011  23.595  0.00  0.00    +0.123 HD
BRANCH   4  13
ATOM     13  C   UNL     1      11.186  11.287  22.517  0.00  0.00    +0.156 C 
BRANCH  13  14
ATOM      6  N   UNL     1      10.408  13.502  23.421  0.00  0.00    -0.336 N 
ATOM      7  N   UNL     1      11.072  12.007  24.923  0.00  0.00    -0.239 NA
ATOM     14  C   UNL     1      10.898  12.245  23.642  0.00  0.00    +0.123 A 
ATOM     16  C   UNL     1      10.260  14.104  24.639  0.00  0.00    +0.106 A 
ATOM     17  C   UNL     1      10.097  14.100  22.144  0.00  0.00    +0.150 C 
ATOM     18  C   UNL     1      10.677  13.162  25.550  0.00  0.00    +0.130 A 
ENDBRANCH  13  14
ENDBRANCH   4  13
ENDBRANCH   8   4
BRANCH  10  12
ATOM     12  C   UNL     1      12.271   6.580  19.764  0.00  0.00    +0.138 C 
BRANCH  12   5
ATOM      3  O   UNL     1      13.872   7.774  17.658  0.00  0.00    -0.276 OA
ATOM      5  N   UNL     1      11.841   7.520  18.770  0.00  0.00    -0.313 N 
ATOM     15  C   UNL     1      12.681   8.043  17.793  0.00  0.00    +0.210 C 
ATOM     19  C   UNL     1      11.969   8.987  16.863  0.00  0.00    +0.109 C 
ATOM     22  H   UNL     1      10.869   7.817  18.790  0.00  0.00    +0.149 HD
ENDBRANCH  12   5
ENDBRANCH  10  12
TORSDOF 6
ENDMDL
MODEL 5
REMARK VINA RESULT:      -5.6      1.851      5.612
REMARK  Name = 75536510
REMARK  8 active torsions:
REMARK  status: ('A' for Active; 'I' for Inactive)
REMARK    1  A    between atoms: O_2  and  C_9
REMARK    2  A    between atoms: N_4  and  C_8
REMARK    3  A    between atoms: N_4  and  C_13
REMARK    4  A    between atoms: N_5  and  C_12
REMARK    5  A    between atoms: N_6  and  C_17
REMARK    6  A    between atoms: C_10  and  C_12
REMARK    7  A    between atoms: C_13  and  C_14
REMARK    8  A    between atoms: C_15  and  C_19
REMARK                            x       y       z     vdW  Elec       q    Type
REMARK                         _______ _______ _______ _____ _____    ______ ____
ROOT
ATOM      1  O   UNL     1      13.150   6.500  20.718  0.00  0.00    -0.371 OA
ATOM      8  C   UNL     1      11.087   7.670  20.841  0.00  0.00    +0.111 C 
ATOM      9  C   UNL     1      11.864   8.166  19.636  0.00  0.00    +0.164 C 
ATOM     10  C   UNL     1      12.826   7.007  19.412  0.00  0.00    +0.165 C 
ATOM     11  C   UNL     1      12.184   7.006  21.656  0.00  0.00    +0.181 C 
ENDROOT
BRANCH   9   2
ATOM      2  O   UNL     1      11.040   8.393  18.510  0.00  0.00    -0.388 OA
ATOM     21  H   UNL     1      11.566   8.230  17.708  0.00  0.00    +0.210 HD
ENDBRANCH   9   2
BRANCH   8   4
ATOM      4  N   UNL     1      10.402   8.727  21.569  0.00  0.00    -0.302 NA
ATOM     20  H   UNL     1       9.547   8.350  21.979  0.00  0.00    +0.123 HD
BRANCH   4  13
ATOM     13  C   UNL     1      11.242   9.259  22.635  0.00  0.00    +0.156 C 
BRANCH  13  14
ATOM      6  N   UNL     1      13.099  10.898  22.194  0.00  0.00    -0.336 N 
ATOM      7  N   UNL     1      11.032  11.705  22.093  0.00  0.00    -0.239 NA
ATOM     14  C   UNL     1      11.763  10.633  22.306  0.00  0.00    +0.123 A 
ATOM     16  C   UNL     1      13.229  12.225  21.890  0.00  0.00    +0.106 A 
ATOM     17  C   UNL     1      14.187   9.964  22.362  0.00  0.00    +0.150 C 
ATOM     18  C   UNL     1      11.940  12.701  21.833  0.00  0.00    +0.130 A 
ENDBRANCH  13  14
ENDBRANCH   4  13
ENDBRANCH   8   4
BRANCH  10  12
ATOM     12  C   UNL     1      14.099   7.414  18.689  0.00  0.00    +0.138 C 
BRANCH  12   5
ATOM      3  O   UNL     1      16.444   5.706  18.582  0.00  0.00    -0.276 OA
ATOM      5  N   UNL     1      15.224   7.422  19.579  0.00  0.00    -0.313 N 
ATOM     15  C   UNL     1      16.310   6.563  19.452  0.00  0.00    +0.210 C 
ATOM     19  C   UNL     1      17.362   6.801  20.502  0.00  0.00    +0.109 C 
ATOM     22  H   UNL     1      15.217   8.093  20.342  0.00  0.00    +0.149 HD
ENDBRANCH  12   5
ENDBRANCH  10  12
TORSDOF 6
ENDMDL
MODEL 6
REMARK VINA RESULT:      -5.5     15.586     17.165
REMARK  Name = 75536510
REMARK  8 active torsions:
REMARK  status: ('A' for Active; 'I' for Inactive)
REMARK    1  A    between atoms: O_2  and  C_9
REMARK    2  A    between atoms: N_4  and  C_8
REMARK    3  A    between atoms: N_4  and  C_13
REMARK    4  A    between atoms: N_5  and  C_12
REMARK    5  A    between atoms: N_6  and  C_17
REMARK    6  A    between atoms: C_10  and  C_12
REMARK    7  A    between atoms: C_13  and  C_14
REMARK    8  A    between atoms: C_15  and  C_19
REMARK                            x       y       z     vdW  Elec       q    Type
REMARK                         _______ _______ _______ _____ _____    ______ ____
ROOT
ATOM      1  O   UNL     1       9.351   7.643   4.995  0.00  0.00    -0.371 OA
ATOM      8  C   UNL     1      10.307   5.669   4.086  0.00  0.00    +0.111 C 
ATOM      9  C   UNL     1      10.393   5.608   5.599  0.00  0.00    +0.164 C 
ATOM     10  C   UNL     1       9.318   6.610   5.995  0.00  0.00    +0.165 C 
ATOM     11  C   UNL     1      10.081   7.154   3.857  0.00  0.00    +0.181 C 
ENDROOT
BRANCH   9   2
ATOM      2  O   UNL     1      10.125   4.317   6.110  0.00  0.00    -0.388 OA
ATOM     21  H   UNL     1      10.809   4.100   6.768  0.00  0.00    +0.210 HD
ENDBRANCH   9   2
BRANCH   8   4
ATOM      4  N   UNL     1      11.495   5.167   3.413  0.00  0.00    -0.302 NA
ATOM     20  H   UNL     1      12.245   5.058   4.096  0.00  0.00    +0.123 HD
BRANCH   4  13
ATOM     13  C   UNL     1      11.237   3.877   2.784  0.00  0.00    +0.156 C 
BRANCH  13  14
ATOM      6  N   UNL     1      12.669   3.722   0.722  0.00  0.00    -0.336 N 
ATOM      7  N   UNL     1      10.517   4.166   0.393  0.00  0.00    -0.239 NA
ATOM     14  C   UNL     1      11.444   3.928   1.294  0.00  0.00    +0.123 A 
ATOM     16  C   UNL     1      12.513   3.835  -0.632  0.00  0.00    +0.106 A 
ATOM     17  C   UNL     1      13.908   3.434   1.403  0.00  0.00    +0.150 C 
ATOM     18  C   UNL     1      11.176   4.110  -0.810  0.00  0.00    +0.130 A 
ENDBRANCH  13  14
ENDBRANCH   4  13
ENDBRANCH   8   4
BRANCH  10  12
ATOM     12  C   UNL     1       9.540   7.219   7.369  0.00  0.00    +0.138 C 
BRANCH  12   5
ATOM      3  O   UNL     1      10.893   5.237   9.003  0.00  0.00    -0.276 OA
ATOM      5  N   UNL     1       8.968   6.403   8.400  0.00  0.00    -0.313 N 
ATOM     15  C   UNL     1       9.695   5.474   9.136  0.00  0.00    +0.210 C 
ATOM     19  C   UNL     1       8.857   4.772  10.170  0.00  0.00    +0.109 C 
ATOM     22  H   UNL     1       7.977   6.514   8.594  0.00  0.00    +0.149 HD
ENDBRANCH  12   5
ENDBRANCH  10  12
TORSDOF 6
ENDMDL
MODEL 7
REMARK VINA RESULT:      -5.5      2.825      3.711
REMARK  Name = 75536510
REMARK  8 active torsions:
REMARK  status: ('A' for Active; 'I' for Inactive)
REMARK    1  A    between atoms: O_2  and  C_9
REMARK    2  A    between atoms: N_4  and  C_8
REMARK    3  A    between atoms: N_4  and  C_13
REMARK    4  A    between atoms: N_5  and  C_12
REMARK    5  A    between atoms: N_6  and  C_17
REMARK    6  A    between atoms: C_10  and  C_12
REMARK    7  A    between atoms: C_13  and  C_14
REMARK    8  A    between atoms: C_15  and  C_19
REMARK                            x       y       z     vdW  Elec       q    Type
REMARK                         _______ _______ _______ _____ _____    ______ ____
ROOT
ATOM      1  O   UNL     1      11.536   7.272  22.277  0.00  0.00    -0.371 OA
ATOM      8  C   UNL     1      12.131   7.916  20.069  0.00  0.00    +0.111 C 
ATOM      9  C   UNL     1      11.414   9.070  20.744  0.00  0.00    +0.164 C 
ATOM     10  C   UNL     1      11.592   8.708  22.212  0.00  0.00    +0.165 C 
ATOM     11  C   UNL     1      11.718   6.748  20.950  0.00  0.00    +0.181 C 
ENDROOT
BRANCH   9   2
ATOM      2  O   UNL     1      11.988  10.325  20.437  0.00  0.00    -0.388 OA
ATOM     21  H   UNL     1      12.931  10.296  20.676  0.00  0.00    +0.210 HD
ENDBRANCH   9   2
BRANCH   8   4
ATOM      4  N   UNL     1      11.759   7.732  18.675  0.00  0.00    -0.302 NA
ATOM     20  H   UNL     1      11.277   8.569  18.345  0.00  0.00    +0.123 HD
BRANCH   4  13
ATOM     13  C   UNL     1      12.935   7.506  17.844  0.00  0.00    +0.156 C 
BRANCH  13  14
ATOM      6  N   UNL     1      14.170   9.659  17.432  0.00  0.00    -0.336 N 
ATOM      7  N   UNL     1      12.778   9.004  15.831  0.00  0.00    -0.239 NA
ATOM     14  C   UNL     1      13.275   8.715  17.013  0.00  0.00    +0.123 A 
ATOM     16  C   UNL     1      14.250  10.611  16.455  0.00  0.00    +0.106 A 
ATOM     17  C   UNL     1      14.907   9.665  18.674  0.00  0.00    +0.150 C 
ATOM     18  C   UNL     1      13.381  10.185  15.477  0.00  0.00    +0.130 A 
ENDBRANCH  13  14
ENDBRANCH   4  13
ENDBRANCH   8   4
BRANCH  10  12
ATOM     12  C   UNL     1      10.523   9.304  23.112  0.00  0.00    +0.138 C 
BRANCH  12   5
ATOM      3  O   UNL     1      11.163  11.077  25.320  0.00  0.00    -0.276 OA
ATOM      5  N   UNL     1      10.565  10.737  23.094  0.00  0.00    -0.313 N 
ATOM     15  C   UNL     1      10.883  11.510  24.205  0.00  0.00    +0.210 C 
ATOM     19  C   UNL     1      10.878  12.985  23.904  0.00  0.00    +0.109 C 
ATOM     22  H   UNL     1      10.346  11.204  22.219  0.00  0.00    +0.149 HD
ENDBRANCH  12   5
ENDBRANCH  10  12
TORSDOF 6
ENDMDL
MODEL 8
REMARK VINA RESULT:      -5.5      2.916      4.731
REMARK  Name = 75536510
REMARK  8 active torsions:
REMARK  status: ('A' for Active; 'I' for Inactive)
REMARK    1  A    between atoms: O_2  and  C_9
REMARK    2  A    between atoms: N_4  and  C_8
REMARK    3  A    between atoms: N_4  and  C_13
REMARK    4  A    between atoms: N_5  and  C_12
REMARK    5  A    between atoms: N_6  and  C_17
REMARK    6  A    between atoms: C_10  and  C_12
REMARK    7  A    between atoms: C_13  and  C_14
REMARK    8  A    between atoms: C_15  and  C_19
REMARK                            x       y       z     vdW  Elec       q    Type
REMARK                         _______ _______ _______ _____ _____    ______ ____
ROOT
ATOM      1  O   UNL     1      15.845   6.208  19.086  0.00  0.00    -0.371 OA
ATOM      8  C   UNL     1      16.872   6.568  21.196  0.00  0.00    +0.111 C 
ATOM      9  C   UNL     1      15.541   7.294  21.166  0.00  0.00    +0.164 C 
ATOM     10  C   UNL     1      14.828   6.551  20.044  0.00  0.00    +0.165 C 
ATOM     11  C   UNL     1      17.130   6.348  19.715  0.00  0.00    +0.181 C 
ENDROOT
BRANCH   9   2
ATOM      2  O   UNL     1      14.839   7.200  22.389  0.00  0.00    -0.388 OA
ATOM     21  H   UNL     1      14.410   8.056  22.562  0.00  0.00    +0.210 HD
ENDBRANCH   9   2
BRANCH   8   4
ATOM      4  N   UNL     1      17.932   7.320  21.850  0.00  0.00    -0.302 NA
ATOM     20  H   UNL     1      18.041   6.982  22.806  0.00  0.00    +0.123 HD
BRANCH   4  13
ATOM     13  C   UNL     1      19.199   7.161  21.146  0.00  0.00    +0.156 C 
BRANCH  13  14
ATOM      6  N   UNL     1      20.989   5.484  21.702  0.00  0.00    -0.336 N 
ATOM      7  N   UNL     1      20.635   7.078  23.208  0.00  0.00    -0.239 NA
ATOM     14  C   UNL     1      20.270   6.596  22.040  0.00  0.00    +0.123 A 
ATOM     16  C   UNL     1      21.870   5.240  22.719  0.00  0.00    +0.106 A 
ATOM     17  C   UNL     1      20.859   4.699  20.498  0.00  0.00    +0.150 C 
ATOM     18  C   UNL     1      21.632   6.237  23.637  0.00  0.00    +0.130 A 
ENDBRANCH  13  14
ENDBRANCH   4  13
ENDBRANCH   8   4
BRANCH  10  12
ATOM     12  C   UNL     1      13.746   7.377  19.369  0.00  0.00    +0.138 C 
BRANCH  12   5
ATOM      3  O   UNL     1      10.966   8.212  19.437  0.00  0.00    -0.276 OA
ATOM      5  N   UNL     1      13.132   8.287  20.292  0.00  0.00    -0.313 N 
ATOM     15  C   UNL     1      11.785   8.631  20.250  0.00  0.00    +0.210 C 
ATOM     19  C   UNL     1      11.398   9.585  21.348  0.00  0.00    +0.109 C 
ATOM     22  H   UNL     1      13.721   8.699  21.009  0.00  0.00    +0.149 HD
ENDBRANCH  12   5
ENDBRANCH  10  12
TORSDOF 6
ENDMDL
MODEL 9
REMARK VINA RESULT:      -5.3      2.731      3.680
REMARK  Name = 75536510
REMARK  8 active torsions:
REMARK  status: ('A' for Active; 'I' for Inactive)
REMARK    1  A    between atoms: O_2  and  C_9
REMARK    2  A    between atoms: N_4  and  C_8
REMARK    3  A    between atoms: N_4  and  C_13
REMARK    4  A    between atoms: N_5  and  C_12
REMARK    5  A    between atoms: N_6  and  C_17
REMARK    6  A    between atoms: C_10  and  C_12
REMARK    7  A    between atoms: C_13  and  C_14
REMARK    8  A    between atoms: C_15  and  C_19
REMARK                            x       y       z     vdW  Elec       q    Type
REMARK                         _______ _______ _______ _____ _____    ______ ____
ROOT
ATOM      1  O   UNL     1      10.624   9.037  21.901  0.00  0.00    -0.371 OA
ATOM      8  C   UNL     1      11.902   7.126  21.305  0.00  0.00    +0.111 C 
ATOM      9  C   UNL     1      12.844   8.282  21.586  0.00  0.00    +0.164 C 
ATOM     10  C   UNL     1      11.954   9.187  22.426  0.00  0.00    +0.165 C 
ATOM     11  C   UNL     1      10.588   7.855  21.082  0.00  0.00    +0.181 C 
ENDROOT
BRANCH   9   2
ATOM      2  O   UNL     1      14.005   7.884  22.287  0.00  0.00    -0.388 OA
ATOM     21  H   UNL     1      13.887   8.111  23.226  0.00  0.00    +0.210 HD
ENDBRANCH   9   2
BRANCH   8   4
ATOM      4  N   UNL     1      12.299   6.313  20.166  0.00  0.00    -0.302 NA
ATOM     20  H   UNL     1      11.484   6.147  19.575  0.00  0.00    +0.123 HD
BRANCH   4  13
ATOM     13  C   UNL     1      13.327   6.981  19.377  0.00  0.00    +0.156 C 
BRANCH  13  14
ATOM      6  N   UNL     1      13.293   9.015  17.897  0.00  0.00    -0.336 N 
ATOM      7  N   UNL     1      11.647   7.554  17.596  0.00  0.00    -0.239 NA
ATOM     14  C   UNL     1      12.732   7.831  18.285  0.00  0.00    +0.123 A 
ATOM     16  C   UNL     1      12.516   9.528  16.896  0.00  0.00    +0.106 A 
ATOM     17  C   UNL     1      14.485   9.628  18.433  0.00  0.00    +0.150 C 
ATOM     18  C   UNL     1      11.506   8.608  16.729  0.00  0.00    +0.130 A 
ENDBRANCH  13  14
ENDBRANCH   4  13
ENDBRANCH   8   4
BRANCH  10  12
ATOM     12  C   UNL     1      12.363  10.650  22.375  0.00  0.00    +0.138 C 
BRANCH  12   5
ATOM      3  O   UNL     1      15.209  10.694  22.948  0.00  0.00    -0.276 OA
ATOM      5  N   UNL     1      13.000  11.057  23.593  0.00  0.00    -0.313 N 
ATOM     15  C   UNL     1      14.378  11.045  23.781  0.00  0.00    +0.210 C 
ATOM     19  C   UNL     1      14.780  11.545  25.142  0.00  0.00    +0.109 C 
ATOM     22  H   UNL     1      12.405  11.365  24.356  0.00  0.00    +0.149 HD
ENDBRANCH  12   5
ENDBRANCH  10  12
TORSDOF 6
ENDMDL
MODEL 10
REMARK VINA RESULT:      -5.1     25.815     27.590
REMARK  Name = 75536510
REMARK  8 active torsions:
REMARK  status: ('A' for Active; 'I' for Inactive)
REMARK    1  A    between atoms: O_2  and  C_9
REMARK    2  A    between atoms: N_4  and  C_8
REMARK    3  A    between atoms: N_4  and  C_13
REMARK    4  A    between atoms: N_5  and  C_12
REMARK    5  A    between atoms: N_6  and  C_17
REMARK    6  A    between atoms: C_10  and  C_12
REMARK    7  A    between atoms: C_13  and  C_14
REMARK    8  A    between atoms: C_15  and  C_19
REMARK                            x       y       z     vdW  Elec       q    Type
REMARK                         _______ _______ _______ _____ _____    ______ ____
ROOT
ATOM      1  O   UNL     1      -7.395 -13.049  18.391  0.00  0.00    -0.371 OA
ATOM      8  C   UNL     1      -5.464 -11.754  18.876  0.00  0.00    +0.111 C 
ATOM      9  C   UNL     1      -6.697 -10.892  19.069  0.00  0.00    +0.164 C 
ATOM     10  C   UNL     1      -7.773 -11.955  19.245  0.00  0.00    +0.165 C 
ATOM     11  C   UNL     1      -6.015 -12.883  18.021  0.00  0.00    +0.181 C 
ENDROOT
BRANCH   9   2
ATOM      2  O   UNL     1      -6.602 -10.045  20.197  0.00  0.00    -0.388 OA
ATOM     21  H   UNL     1      -5.710  -9.658  20.214  0.00  0.00    +0.210 HD
ENDBRANCH   9   2
BRANCH   8   4
ATOM      4  N   UNL     1      -4.356 -11.055  18.244  0.00  0.00    -0.302 NA
ATOM     20  H   UNL     1      -3.530 -11.655  18.259  0.00  0.00    +0.123 HD
BRANCH   4  13
ATOM     13  C   UNL     1      -4.669 -10.716  16.862  0.00  0.00    +0.156 C 
BRANCH  13  14
ATOM      6  N   UNL     1      -3.516 -10.661  14.626  0.00  0.00    -0.336 N 
ATOM      7  N   UNL     1      -2.197 -10.806  16.408  0.00  0.00    -0.239 NA
ATOM     14  C   UNL     1      -3.441 -10.730  15.989  0.00  0.00    +0.123 A 
ATOM     16  C   UNL     1      -2.237 -10.695  14.144  0.00  0.00    +0.106 A 
ATOM     17  C   UNL     1      -4.714 -10.568  13.826  0.00  0.00    +0.150 C 
ATOM     18  C   UNL     1      -1.441 -10.784  15.263  0.00  0.00    +0.130 A 
ENDBRANCH  13  14
ENDBRANCH   4  13
ENDBRANCH   8   4
BRANCH  10  12
ATOM     12  C   UNL     1      -9.164 -11.471  18.872  0.00  0.00    +0.138 C 
BRANCH  12   5
ATOM      3  O   UNL     1     -10.659 -10.175  16.748  0.00  0.00    -0.276 OA
ATOM      5  N   UNL     1      -9.156 -10.079  18.526  0.00  0.00    -0.313 N 
ATOM     15  C   UNL     1      -9.909  -9.543  17.486  0.00  0.00    +0.210 C 
ATOM     19  C   UNL     1      -9.734  -8.053  17.356  0.00  0.00    +0.109 C 
ATOM     22  H   UNL     1      -8.565  -9.460  19.072  0.00  0.00    +0.149 HD
ENDBRANCH  12   5
ENDBRANCH  10  12
TORSDOF 6
ENDMDL
