MODEL 1
REMARK VINA RESULT:      -7.7      0.000      0.000
REMARK  Name = 9424620
REMARK  4 active torsions:
REMARK  status: ('A' for Active; 'I' for Inactive)
REMARK    1  A    between atoms: N_5  and  C_14
REMARK    2  A    between atoms: N_8  and  C_21
REMARK    3  A    between atoms: C_25  and  C_26
REMARK    4  A    between atoms: C_27  and  C_28
REMARK                            x       y       z     vdW  Elec       q    Type
REMARK                         _______ _______ _______ _____ _____    ______ ____
ROOT
ATOM      2  O   UNL     1      11.185   9.063  17.162  0.00  0.00    -0.268 OA
ATOM      5  N   UNL     1      12.267   9.924  21.986  0.00  0.00    -0.298 NA
ATOM      6  N   UNL     1      12.213   8.424  19.168  0.00  0.00    -0.310 N 
ATOM      9  C   UNL     1      10.871   7.958  21.302  0.00  0.00    +0.024 C 
ATOM     10  C   UNL     1      13.309   7.753  21.329  0.00  0.00    +0.052 C 
ATOM     11  C   UNL     1      12.010   7.008  21.627  0.00  0.00    +0.017 C 
ATOM     12  C   UNL     1      10.981   9.238  22.156  0.00  0.00    +0.090 C 
ATOM     13  C   UNL     1      13.397   9.014  22.220  0.00  0.00    +0.094 C 
ATOM     15  C   UNL     1      10.897   8.247  19.798  0.00  0.00    +0.130 C 
ATOM     16  C   UNL     1      13.407   8.139  19.854  0.00  0.00    +0.047 A 
ATOM     21  C   UNL     1      14.591   8.236  19.206  0.00  0.00    +0.054 A 
ATOM     22  C   UNL     1      12.198   8.815  17.816  0.00  0.00    +0.252 A 
ATOM     23  C   UNL     1      14.630   8.630  17.819  0.00  0.00    +0.030 A 
ATOM     24  C   UNL     1      13.517   8.917  17.142  0.00  0.00    +0.072 A 
ENDROOT
BRANCH   5  14
ATOM      3  O   UNL     1      14.200  15.155  20.586  0.00  0.00    -0.276 OA
ATOM      7  N   UNL     1      12.791  13.372  21.071  0.00  0.00    -0.302 N 
ATOM     14  C   UNL     1      12.354  11.100  22.854  0.00  0.00    +0.060 C 
ATOM     17  C   UNL     1      11.239  12.100  22.512  0.00  0.00    +0.038 C 
ATOM     18  C   UNL     1      13.725  11.775  22.706  0.00  0.00    +0.038 C 
ATOM     19  C   UNL     1      11.452  12.773  21.155  0.00  0.00    +0.109 C 
ATOM     20  C   UNL     1      13.898  12.451  21.346  0.00  0.00    +0.109 C 
ATOM     25  C   UNL     1      13.064  14.690  20.703  0.00  0.00    +0.212 C 
ATOM     26  C   UNL     1      11.873  15.578  20.442  0.00  0.00    +0.109 C 
ENDBRANCH   5  14
BRANCH  21   8
ATOM      4  O   UNL     1      16.110   5.876  18.970  0.00  0.00    -0.269 OA
ATOM      8  N   UNL     1      15.802   8.005  19.799  0.00  0.00    -0.280 N 
ATOM     27  C   UNL     1      16.516   6.818  19.653  0.00  0.00    +0.255 C 
ATOM     32  H   UNL     1      16.280   8.806  20.194  0.00  0.00    +0.155 HD
BRANCH  27  28
ATOM      1  S   UNL     1      18.158   8.004  21.455  0.00  0.00    -0.092 S 
ATOM     28  C   UNL     1      17.813   6.774  20.345  0.00  0.00    +0.074 A 
ATOM     29  C   UNL     1      18.788   5.850  20.204  0.00  0.00    +0.021 A 
ATOM     30  C   UNL     1      19.894   6.154  21.050  0.00  0.00    +0.008 A 
ATOM     31  C   UNL     1      19.683   7.300  21.785  0.00  0.00    +0.046 A 
ENDBRANCH  27  28
ENDBRANCH  21   8
TORSDOF 3
ENDMDL
MODEL 2
REMARK VINA RESULT:      -6.8      3.073      4.861
REMARK  Name = 9424620
REMARK  4 active torsions:
REMARK  status: ('A' for Active; 'I' for Inactive)
REMARK    1  A    between atoms: N_5  and  C_14
REMARK    2  A    between atoms: N_8  and  C_21
REMARK    3  A    between atoms: C_25  and  C_26
REMARK    4  A    between atoms: C_27  and  C_28
REMARK                            x       y       z     vdW  Elec       q    Type
REMARK                         _______ _______ _______ _____ _____    ______ ____
ROOT
ATOM      2  O   UNL     1      11.273   7.087  20.387  0.00  0.00    -0.268 OA
ATOM      5  N   UNL     1      14.665  10.612  21.509  0.00  0.00    -0.298 NA
ATOM      6  N   UNL     1      13.259   8.233  19.908  0.00  0.00    -0.310 N 
ATOM      9  C   UNL     1      15.280   8.182  21.485  0.00  0.00    +0.024 C 
ATOM     10  C   UNL     1      15.389   9.473  19.410  0.00  0.00    +0.052 C 
ATOM     11  C   UNL     1      16.085   8.376  20.212  0.00  0.00    +0.017 C 
ATOM     12  C   UNL     1      15.221   9.499  22.287  0.00  0.00    +0.090 C 
ATOM     13  C   UNL     1      15.373  10.782  20.232  0.00  0.00    +0.094 C 
ATOM     15  C   UNL     1      13.891   7.659  21.105  0.00  0.00    +0.130 C 
ATOM     16  C   UNL     1      13.967   9.069  19.026  0.00  0.00    +0.047 A 
ATOM     21  C   UNL     1      13.369   9.506  17.893  0.00  0.00    +0.054 A 
ATOM     22  C   UNL     1      11.935   7.828  19.660  0.00  0.00    +0.252 A 
ATOM     23  C   UNL     1      12.014   9.116  17.590  0.00  0.00    +0.030 A 
ATOM     24  C   UNL     1      11.312   8.333  18.410  0.00  0.00    +0.072 A 
ENDROOT
BRANCH   5  14
ATOM      3  O   UNL     1      10.277  14.221  22.389  0.00  0.00    -0.276 OA
ATOM      7  N   UNL     1      11.875  12.563  22.696  0.00  0.00    -0.302 N 
ATOM     14  C   UNL     1      14.678  11.853  22.285  0.00  0.00    +0.060 C 
ATOM     17  C   UNL     1      13.971  11.649  23.632  0.00  0.00    +0.038 C 
ATOM     18  C   UNL     1      13.994  12.983  21.501  0.00  0.00    +0.038 C 
ATOM     19  C   UNL     1      12.459  11.466  23.479  0.00  0.00    +0.109 C 
ATOM     20  C   UNL     1      12.484  12.776  21.380  0.00  0.00    +0.109 C 
ATOM     25  C   UNL     1      10.785  13.341  23.086  0.00  0.00    +0.212 C 
ATOM     26  C   UNL     1      10.216  13.066  24.456  0.00  0.00    +0.109 C 
ENDBRANCH   5  14
BRANCH  21   8
ATOM      4  O   UNL     1      14.229   8.789  15.308  0.00  0.00    -0.269 OA
ATOM      8  N   UNL     1      13.970  10.342  16.992  0.00  0.00    -0.280 N 
ATOM     27  C   UNL     1      14.379   9.940  15.723  0.00  0.00    +0.255 C 
ATOM     32  H   UNL     1      13.930  11.335  17.190  0.00  0.00    +0.155 HD
BRANCH  27  28
ATOM      1  S   UNL     1      13.940  12.140  14.201  0.00  0.00    -0.092 S 
ATOM     28  C   UNL     1      14.977  10.994  14.890  0.00  0.00    +0.074 A 
ATOM     29  C   UNL     1      16.284  11.168  14.599  0.00  0.00    +0.021 A 
ATOM     30  C   UNL     1      16.466  12.306  13.761  0.00  0.00    +0.008 A 
ATOM     31  C   UNL     1      15.272  12.928  13.468  0.00  0.00    +0.046 A 
ENDBRANCH  27  28
ENDBRANCH  21   8
TORSDOF 3
ENDMDL
MODEL 3
REMARK VINA RESULT:      -6.7     13.701     16.960
REMARK  Name = 9424620
REMARK  4 active torsions:
REMARK  status: ('A' for Active; 'I' for Inactive)
REMARK    1  A    between atoms: N_5  and  C_14
REMARK    2  A    between atoms: N_8  and  C_21
REMARK    3  A    between atoms: C_25  and  C_26
REMARK    4  A    between atoms: C_27  and  C_28
REMARK                            x       y       z     vdW  Elec       q    Type
REMARK                         _______ _______ _______ _____ _____    ______ ____
ROOT
ATOM      2  O   UNL     1      13.727  10.322   7.205  0.00  0.00    -0.268 OA
ATOM      5  N   UNL     1       9.589   8.277   5.235  0.00  0.00    -0.298 NA
ATOM      6  N   UNL     1      12.555   9.451   5.373  0.00  0.00    -0.310 N 
ATOM      9  C   UNL     1      10.402  10.529   4.492  0.00  0.00    +0.024 C 
ATOM     10  C   UNL     1      11.283   8.515   3.417  0.00  0.00    +0.052 C 
ATOM     11  C   UNL     1      10.843   9.953   3.157  0.00  0.00    +0.017 C 
ATOM     12  C   UNL     1       9.244   9.695   5.078  0.00  0.00    +0.090 C 
ATOM     13  C   UNL     1      10.092   7.704   3.979  0.00  0.00    +0.094 C 
ATOM     15  C   UNL     1      11.620  10.584   5.420  0.00  0.00    +0.130 C 
ATOM     16  C   UNL     1      12.465   8.457   4.382  0.00  0.00    +0.047 A 
ATOM     21  C   UNL     1      13.399   7.480   4.329  0.00  0.00    +0.054 A 
ATOM     22  C   UNL     1      13.590   9.471   6.326  0.00  0.00    +0.252 A 
ATOM     23  C   UNL     1      14.482   7.456   5.281  0.00  0.00    +0.030 A 
ATOM     24  C   UNL     1      14.591   8.378   6.239  0.00  0.00    +0.072 A 
ENDROOT
BRANCH   5  14
ATOM      3  O   UNL     1       9.731   3.361   8.214  0.00  0.00    -0.276 OA
ATOM      7  N   UNL     1       9.554   5.612   7.662  0.00  0.00    -0.302 N 
ATOM     14  C   UNL     1       8.447   7.512   5.740  0.00  0.00    +0.060 C 
ATOM     17  C   UNL     1       8.305   7.704   7.257  0.00  0.00    +0.038 C 
ATOM     18  C   UNL     1       8.617   6.020   5.415  0.00  0.00    +0.038 C 
ATOM     19  C   UNL     1       9.429   7.025   8.042  0.00  0.00    +0.109 C 
ATOM     20  C   UNL     1       9.737   5.371   6.228  0.00  0.00    +0.109 C 
ATOM     25  C   UNL     1       9.570   4.536   8.551  0.00  0.00    +0.212 C 
ATOM     26  C   UNL     1       9.371   4.863  10.010  0.00  0.00    +0.109 C 
ENDBRANCH   5  14
BRANCH  21   8
ATOM      4  O   UNL     1      14.724   7.467   1.843  0.00  0.00    -0.269 OA
ATOM      8  N   UNL     1      13.377   6.458   3.418  0.00  0.00    -0.280 N 
ATOM     27  C   UNL     1      14.050   6.499   2.199  0.00  0.00    +0.255 C 
ATOM     32  H   UNL     1      13.021   5.566   3.739  0.00  0.00    +0.155 HD
BRANCH  27  28
ATOM      1  S   UNL     1      14.659   5.299  -0.155  0.00  0.00    -0.092 S 
ATOM     28  C   UNL     1      13.928   5.289   1.372  0.00  0.00    +0.074 A 
ATOM     29  C   UNL     1      13.290   4.141   1.686  0.00  0.00    +0.021 A 
ATOM     30  C   UNL     1      13.396   3.200   0.621  0.00  0.00    +0.008 A 
ATOM     31  C   UNL     1      14.116   3.701  -0.442  0.00  0.00    +0.046 A 
ENDBRANCH  27  28
ENDBRANCH  21   8
TORSDOF 3
ENDMDL
MODEL 4
REMARK VINA RESULT:      -6.5     14.535     17.497
REMARK  Name = 9424620
REMARK  4 active torsions:
REMARK  status: ('A' for Active; 'I' for Inactive)
REMARK    1  A    between atoms: N_5  and  C_14
REMARK    2  A    between atoms: N_8  and  C_21
REMARK    3  A    between atoms: C_25  and  C_26
REMARK    4  A    between atoms: C_27  and  C_28
REMARK                            x       y       z     vdW  Elec       q    Type
REMARK                         _______ _______ _______ _____ _____    ______ ____
ROOT
ATOM      2  O   UNL     1       8.932   6.888   8.412  0.00  0.00    -0.268 OA
ATOM      5  N   UNL     1      10.533   9.528   4.455  0.00  0.00    -0.298 NA
ATOM      6  N   UNL     1      10.503   7.274   6.718  0.00  0.00    -0.310 N 
ATOM      9  C   UNL     1      11.859   9.447   6.582  0.00  0.00    +0.024 C 
ATOM     10  C   UNL     1      12.180   7.704   4.894  0.00  0.00    +0.052 C 
ATOM     11  C   UNL     1      12.908   8.570   5.920  0.00  0.00    +0.017 C 
ATOM     12  C   UNL     1      11.148  10.320   5.527  0.00  0.00    +0.090 C 
ATOM     13  C   UNL     1      11.504   8.611   3.840  0.00  0.00    +0.094 C 
ATOM     15  C   UNL     1      10.890   8.544   7.351  0.00  0.00    +0.130 C 
ATOM     16  C   UNL     1      11.145   6.800   5.559  0.00  0.00    +0.047 A 
ATOM     21  C   UNL     1      10.813   5.587   5.060  0.00  0.00    +0.054 A 
ATOM     22  C   UNL     1       9.516   6.530   7.388  0.00  0.00    +0.252 A 
ATOM     23  C   UNL     1       9.809   4.782   5.712  0.00  0.00    +0.030 A 
ATOM     24  C   UNL     1       9.175   5.208   6.807  0.00  0.00    +0.072 A 
ENDROOT
BRANCH   5  14
ATOM      3  O   UNL     1       4.996   9.704   2.915  0.00  0.00    -0.276 OA
ATOM      7  N   UNL     1       7.039  10.218   3.897  0.00  0.00    -0.302 N 
ATOM     14  C   UNL     1       9.919  10.394   3.447  0.00  0.00    +0.060 C 
ATOM     17  C   UNL     1       9.126  11.521   4.123  0.00  0.00    +0.038 C 
ATOM     18  C   UNL     1       8.994   9.579   2.532  0.00  0.00    +0.038 C 
ATOM     19  C   UNL     1       7.862  11.012   4.819  0.00  0.00    +0.109 C 
ATOM     20  C   UNL     1       7.735   9.099   3.254  0.00  0.00    +0.109 C 
ATOM     25  C   UNL     1       5.680  10.418   3.653  0.00  0.00    +0.212 C 
ATOM     26  C   UNL     1       5.035  11.592   4.346  0.00  0.00    +0.109 C 
ENDBRANCH   5  14
BRANCH  21   8
ATOM      4  O   UNL     1       9.795   5.879   2.450  0.00  0.00    -0.269 OA
ATOM      8  N   UNL     1      11.364   5.057   3.925  0.00  0.00    -0.280 N 
ATOM     27  C   UNL     1      10.821   5.229   2.654  0.00  0.00    +0.255 C 
ATOM     32  H   UNL     1      12.308   4.696   3.998  0.00  0.00    +0.155 HD
BRANCH  27  28
ATOM      1  S   UNL     1      10.982   4.789  -0.017  0.00  0.00    -0.092 S 
ATOM     28  C   UNL     1      11.578   4.606   1.557  0.00  0.00    +0.074 A 
ATOM     29  C   UNL     1      12.717   3.888   1.650  0.00  0.00    +0.021 A 
ATOM     30  C   UNL     1      13.144   3.453   0.362  0.00  0.00    +0.008 A 
ATOM     31  C   UNL     1      12.291   3.874  -0.635  0.00  0.00    +0.046 A 
ENDBRANCH  27  28
ENDBRANCH  21   8
TORSDOF 3
ENDMDL
MODEL 5
REMARK VINA RESULT:      -6.4     14.173     16.461
REMARK  Name = 9424620
REMARK  4 active torsions:
REMARK  status: ('A' for Active; 'I' for Inactive)
REMARK    1  A    between atoms: N_5  and  C_14
REMARK    2  A    between atoms: N_8  and  C_21
REMARK    3  A    between atoms: C_25  and  C_26
REMARK    4  A    between atoms: C_27  and  C_28
REMARK                            x       y       z     vdW  Elec       q    Type
REMARK                         _______ _______ _______ _____ _____    ______ ____
ROOT
ATOM      2  O   UNL     1       6.966   9.512   4.371  0.00  0.00    -0.268 OA
ATOM      5  N   UNL     1      11.193   8.236   6.755  0.00  0.00    -0.298 NA
ATOM      6  N   UNL     1       8.541   7.900   5.009  0.00  0.00    -0.310 N 
ATOM      9  C   UNL     1       8.974   7.312   7.466  0.00  0.00    +0.024 C 
ATOM     10  C   UNL     1      10.241   6.183   5.703  0.00  0.00    +0.052 C 
ATOM     11  C   UNL     1       9.342   5.945   6.915  0.00  0.00    +0.017 C 
ATOM     12  C   UNL     1      10.246   8.087   7.866  0.00  0.00    +0.090 C 
ATOM     13  C   UNL     1      11.515   6.938   6.146  0.00  0.00    +0.094 C 
ATOM     15  C   UNL     1       8.139   8.048   6.415  0.00  0.00    +0.130 C 
ATOM     16  C   UNL     1       9.514   6.965   4.611  0.00  0.00    +0.047 A 
ATOM     21  C   UNL     1       9.790   6.805   3.296  0.00  0.00    +0.054 A 
ATOM     22  C   UNL     1       7.835   8.690   4.083  0.00  0.00    +0.252 A 
ATOM     23  C   UNL     1       9.092   7.588   2.306  0.00  0.00    +0.030 A 
ATOM     24  C   UNL     1       8.172   8.490   2.651  0.00  0.00    +0.072 A 
ENDROOT
BRANCH   5  14
ATOM      3  O   UNL     1      13.860  12.593   4.115  0.00  0.00    -0.276 OA
ATOM      7  N   UNL     1      12.549  11.368   5.592  0.00  0.00    -0.302 N 
ATOM     14  C   UNL     1      12.409   8.927   7.189  0.00  0.00    +0.060 C 
ATOM     17  C   UNL     1      12.062  10.306   7.768  0.00  0.00    +0.038 C 
ATOM     18  C   UNL     1      13.385   9.084   6.014  0.00  0.00    +0.038 C 
ATOM     19  C   UNL     1      11.584  11.289   6.697  0.00  0.00    +0.109 C 
ATOM     20  C   UNL     1      12.885  10.083   4.971  0.00  0.00    +0.109 C 
ATOM     25  C   UNL     1      13.093  12.546   5.080  0.00  0.00    +0.212 C 
ATOM     26  C   UNL     1      12.704  13.827   5.774  0.00  0.00    +0.109 C 
ENDBRANCH   5  14
BRANCH  21   8
ATOM      4  O   UNL     1      12.443   7.479   2.631  0.00  0.00    -0.269 OA
ATOM      8  N   UNL     1      10.738   5.940   2.820  0.00  0.00    -0.280 N 
ATOM     27  C   UNL     1      12.039   6.322   2.504  0.00  0.00    +0.255 C 
ATOM     32  H   UNL     1      10.533   4.951   2.893  0.00  0.00    +0.155 HD
BRANCH  27  28
ATOM      1  S   UNL     1      14.545   5.608   1.752  0.00  0.00    -0.092 S 
ATOM     28  C   UNL     1      12.917   5.239   2.035  0.00  0.00    +0.074 A 
ATOM     29  C   UNL     1      12.579   3.954   1.796  0.00  0.00    +0.021 A 
ATOM     30  C   UNL     1      13.711   3.210   1.353  0.00  0.00    +0.008 A 
ATOM     31  C   UNL     1      14.846   3.989   1.285  0.00  0.00    +0.046 A 
ENDBRANCH  27  28
ENDBRANCH  21   8
TORSDOF 3
ENDMDL
MODEL 6
REMARK VINA RESULT:      -6.3     12.608     15.994
REMARK  Name = 9424620
REMARK  4 active torsions:
REMARK  status: ('A' for Active; 'I' for Inactive)
REMARK    1  A    between atoms: N_5  and  C_14
REMARK    2  A    between atoms: N_8  and  C_21
REMARK    3  A    between atoms: C_25  and  C_26
REMARK    4  A    between atoms: C_27  and  C_28
REMARK                            x       y       z     vdW  Elec       q    Type
REMARK                         _______ _______ _______ _____ _____    ______ ____
ROOT
ATOM      2  O   UNL     1      11.293   5.630   8.466  0.00  0.00    -0.268 OA
ATOM      5  N   UNL     1      11.925  10.195   6.481  0.00  0.00    -0.298 NA
ATOM      6  N   UNL     1      11.427   7.044   6.603  0.00  0.00    -0.310 N 
ATOM      9  C   UNL     1      13.558   8.348   6.029  0.00  0.00    +0.024 C 
ATOM     10  C   UNL     1      11.575   8.575   4.615  0.00  0.00    +0.052 C 
ATOM     11  C   UNL     1      13.062   8.230   4.599  0.00  0.00    +0.017 C 
ATOM     12  C   UNL     1      13.330   9.779   6.558  0.00  0.00    +0.090 C 
ATOM     13  C   UNL     1      11.388  10.023   5.125  0.00  0.00    +0.094 C 
ATOM     15  C   UNL     1      12.851   7.285   6.876  0.00  0.00    +0.130 C 
ATOM     16  C   UNL     1      10.782   7.601   5.484  0.00  0.00    +0.047 A 
ATOM     21  C   UNL     1       9.493   7.282   5.227  0.00  0.00    +0.054 A 
ATOM     22  C   UNL     1      10.776   6.158   7.481  0.00  0.00    +0.252 A 
ATOM     23  C   UNL     1       8.781   6.376   6.094  0.00  0.00    +0.030 A 
ATOM     24  C   UNL     1       9.360   5.838   7.169  0.00  0.00    +0.072 A 
ENDROOT
BRANCH   5  14
ATOM      3  O   UNL     1       8.051  12.186  10.235  0.00  0.00    -0.276 OA
ATOM      7  N   UNL     1      10.037  11.432   9.292  0.00  0.00    -0.302 N 
ATOM     14  C   UNL     1      11.761  11.576   6.939  0.00  0.00    +0.060 C 
ATOM     17  C   UNL     1      12.307  11.735   8.365  0.00  0.00    +0.038 C 
ATOM     18  C   UNL     1      10.280  11.981   6.898  0.00  0.00    +0.038 C 
ATOM     19  C   UNL     1      11.443  11.021   9.407  0.00  0.00    +0.109 C 
ATOM     20  C   UNL     1       9.449  11.262   7.961  0.00  0.00    +0.109 C 
ATOM     25  C   UNL     1       9.245  11.898  10.343  0.00  0.00    +0.212 C 
ATOM     26  C   UNL     1       9.922  12.052  11.682  0.00  0.00    +0.109 C 
ENDBRANCH   5  14
BRANCH  21   8
ATOM      4  O   UNL     1       7.769   9.507   5.348  0.00  0.00    -0.269 OA
ATOM      8  N   UNL     1       8.779   7.796   4.179  0.00  0.00    -0.280 N 
ATOM     27  C   UNL     1       7.937   8.900   4.288  0.00  0.00    +0.255 C 
ATOM     32  H   UNL     1       9.033   7.478   3.251  0.00  0.00    +0.155 HD
BRANCH  27  28
ATOM      1  S   UNL     1       5.800  10.130   3.160  0.00  0.00    -0.092 S 
ATOM     28  C   UNL     1       7.280   9.318   3.040  0.00  0.00    +0.074 A 
ATOM     29  C   UNL     1       7.722   9.130   1.778  0.00  0.00    +0.021 A 
ATOM     30  C   UNL     1       6.803   9.680   0.837  0.00  0.00    +0.008 A 
ATOM     31  C   UNL     1       5.714  10.255   1.454  0.00  0.00    +0.046 A 
ENDBRANCH  27  28
ENDBRANCH  21   8
TORSDOF 3
ENDMDL
MODEL 7
REMARK VINA RESULT:      -6.3     27.826     29.953
REMARK  Name = 9424620
REMARK  4 active torsions:
REMARK  status: ('A' for Active; 'I' for Inactive)
REMARK    1  A    between atoms: N_5  and  C_14
REMARK    2  A    between atoms: N_8  and  C_21
REMARK    3  A    between atoms: C_25  and  C_26
REMARK    4  A    between atoms: C_27  and  C_28
REMARK                            x       y       z     vdW  Elec       q    Type
REMARK                         _______ _______ _______ _____ _____    ______ ____
ROOT
ATOM      2  O   UNL     1      -5.904 -15.424  16.742  0.00  0.00    -0.268 OA
ATOM      5  N   UNL     1      -6.489 -10.490  17.448  0.00  0.00    -0.298 NA
ATOM      6  N   UNL     1      -5.243 -13.213  16.338  0.00  0.00    -0.310 N 
ATOM      9  C   UNL     1      -4.414 -11.672  18.212  0.00  0.00    +0.024 C 
ATOM     10  C   UNL     1      -4.547 -10.833  15.917  0.00  0.00    +0.052 C 
ATOM     11  C   UNL     1      -3.607 -11.015  17.106  0.00  0.00    +0.017 C 
ATOM     12  C   UNL     1      -5.619 -10.786  18.592  0.00  0.00    +0.090 C 
ATOM     13  C   UNL     1      -5.726  -9.921  16.327  0.00  0.00    +0.094 C 
ATOM     15  C   UNL     1      -4.832 -13.068  17.742  0.00  0.00    +0.130 C 
ATOM     16  C   UNL     1      -5.068 -12.175  15.405  0.00  0.00    +0.047 A 
ATOM     21  C   UNL     1      -5.384 -12.383  14.106  0.00  0.00    +0.054 A 
ATOM     22  C   UNL     1      -5.743 -14.476  15.973  0.00  0.00    +0.252 A 
ATOM     23  C   UNL     1      -5.897 -13.662  13.678  0.00  0.00    +0.030 A 
ATOM     24  C   UNL     1      -6.084 -14.663  14.540  0.00  0.00    +0.072 A 
ENDROOT
BRANCH   5  14
ATOM      3  O   UNL     1     -11.978 -10.787  15.763  0.00  0.00    -0.276 OA
ATOM      7  N   UNL     1     -10.037 -10.969  17.028  0.00  0.00    -0.302 N 
ATOM     14  C   UNL     1      -7.586  -9.603  17.838  0.00  0.00    +0.060 C 
ATOM     17  C   UNL     1      -8.506 -10.304  18.849  0.00  0.00    +0.038 C 
ATOM     18  C   UNL     1      -8.394  -9.176  16.604  0.00  0.00    +0.038 C 
ATOM     19  C   UNL     1      -9.314 -11.439  18.217  0.00  0.00    +0.109 C 
ATOM     20  C   UNL     1      -9.201 -10.329  16.008  0.00  0.00    +0.109 C 
ATOM     25  C   UNL     1     -11.402 -11.142  16.794  0.00  0.00    +0.212 C 
ATOM     26  C   UNL     1     -12.196 -11.803  17.892  0.00  0.00    +0.109 C 
ENDBRANCH   5  14
BRANCH  21   8
ATOM      4  O   UNL     1      -3.123 -11.948  12.482  0.00  0.00    -0.269 OA
ATOM      8  N   UNL     1      -5.271 -11.426  13.135  0.00  0.00    -0.280 N 
ATOM     27  C   UNL     1      -4.130 -11.249  12.356  0.00  0.00    +0.255 C 
ATOM     32  H   UNL     1      -6.126 -10.966  12.843  0.00  0.00    +0.155 HD
BRANCH  27  28
ATOM      1  S   UNL     1      -5.568  -9.167  11.382  0.00  0.00    -0.092 S 
ATOM     28  C   UNL     1      -4.216 -10.185  11.344  0.00  0.00    +0.074 A 
ATOM     29  C   UNL     1      -3.330  -9.911  10.364  0.00  0.00    +0.021 A 
ATOM     30  C   UNL     1      -3.768  -8.801   9.585  0.00  0.00    +0.008 A 
ATOM     31  C   UNL     1      -4.972  -8.300  10.031  0.00  0.00    +0.046 A 
ENDBRANCH  27  28
ENDBRANCH  21   8
TORSDOF 3
ENDMDL
MODEL 8
REMARK VINA RESULT:      -6.3     13.408     16.192
REMARK  Name = 9424620
REMARK  4 active torsions:
REMARK  status: ('A' for Active; 'I' for Inactive)
REMARK    1  A    between atoms: N_5  and  C_14
REMARK    2  A    between atoms: N_8  and  C_21
REMARK    3  A    between atoms: C_25  and  C_26
REMARK    4  A    between atoms: C_27  and  C_28
REMARK                            x       y       z     vdW  Elec       q    Type
REMARK                         _______ _______ _______ _____ _____    ______ ____
ROOT
ATOM      2  O   UNL     1      19.619  -5.398  21.598  0.00  0.00    -0.268 OA
ATOM      5  N   UNL     1      18.605  -2.002  25.150  0.00  0.00    -0.298 NA
ATOM      6  N   UNL     1      18.129  -4.417  23.116  0.00  0.00    -0.310 N 
ATOM      9  C   UNL     1      17.423  -1.958  22.940  0.00  0.00    +0.024 C 
ATOM     10  C   UNL     1      16.543  -3.350  24.750  0.00  0.00    +0.052 C 
ATOM     11  C   UNL     1      16.139  -2.440  23.593  0.00  0.00    +0.017 C 
ATOM     12  C   UNL     1      18.290  -1.197  23.964  0.00  0.00    +0.090 C 
ATOM     13  C   UNL     1      17.388  -2.548  25.767  0.00  0.00    +0.094 C 
ATOM     15  C   UNL     1      18.143  -3.169  22.339  0.00  0.00    +0.130 C 
ATOM     16  C   UNL     1      17.321  -4.569  24.258  0.00  0.00    +0.047 A 
ATOM     21  C   UNL     1      17.277  -5.763  24.892  0.00  0.00    +0.054 A 
ATOM     22  C   UNL     1      18.906  -5.469  22.600  0.00  0.00    +0.252 A 
ATOM     23  C   UNL     1      18.053  -6.876  24.401  0.00  0.00    +0.030 A 
ATOM     24  C   UNL     1      18.836  -6.762  23.327  0.00  0.00    +0.072 A 
ENDROOT
BRANCH   5  14
ATOM      3  O   UNL     1      23.159  -3.768  28.183  0.00  0.00    -0.276 OA
ATOM      7  N   UNL     1      21.833  -2.746  26.571  0.00  0.00    -0.302 N 
ATOM     14  C   UNL     1      19.381  -1.226  26.120  0.00  0.00    +0.060 C 
ATOM     17  C   UNL     1      20.727  -0.806  25.514  0.00  0.00    +0.038 C 
ATOM     18  C   UNL     1      19.615  -2.047  27.397  0.00  0.00    +0.038 C 
ATOM     19  C   UNL     1      21.678  -1.990  25.321  0.00  0.00    +0.109 C 
ATOM     20  C   UNL     1      20.580  -3.210  27.173  0.00  0.00    +0.109 C 
ATOM     25  C   UNL     1      23.051  -3.086  27.162  0.00  0.00    +0.212 C 
ATOM     26  C   UNL     1      24.297  -2.567  26.487  0.00  0.00    +0.109 C 
ENDBRANCH   5  14
BRANCH  21   8
ATOM      4  O   UNL     1      18.245  -5.631  27.534  0.00  0.00    -0.269 OA
ATOM      8  N   UNL     1      16.543  -5.995  26.023  0.00  0.00    -0.280 N 
ATOM     27  C   UNL     1      17.068  -5.918  27.311  0.00  0.00    +0.255 C 
ATOM     32  H   UNL     1      15.536  -6.027  25.917  0.00  0.00    +0.155 HD
BRANCH  27  28
ATOM      1  S   UNL     1      16.414  -5.460  29.902  0.00  0.00    -0.092 S 
ATOM     28  C   UNL     1      16.109  -6.172  28.397  0.00  0.00    +0.074 A 
ATOM     29  C   UNL     1      14.987  -6.922  28.344  0.00  0.00    +0.021 A 
ATOM     30  C   UNL     1      14.324  -6.924  29.605  0.00  0.00    +0.008 A 
ATOM     31  C   UNL     1      14.993  -6.167  30.542  0.00  0.00    +0.046 A 
ENDBRANCH  27  28
ENDBRANCH  21   8
TORSDOF 3
ENDMDL
MODEL 9
REMARK VINA RESULT:      -6.1     28.031     31.004
REMARK  Name = 9424620
REMARK  4 active torsions:
REMARK  status: ('A' for Active; 'I' for Inactive)
REMARK    1  A    between atoms: N_5  and  C_14
REMARK    2  A    between atoms: N_8  and  C_21
REMARK    3  A    between atoms: C_25  and  C_26
REMARK    4  A    between atoms: C_27  and  C_28
REMARK                            x       y       z     vdW  Elec       q    Type
REMARK                         _______ _______ _______ _____ _____    ______ ____
ROOT
ATOM      2  O   UNL     1      -9.758 -12.147  20.148  0.00  0.00    -0.268 OA
ATOM      5  N   UNL     1      -9.398 -10.680  15.362  0.00  0.00    -0.298 NA
ATOM      6  N   UNL     1      -8.798 -10.792  18.497  0.00  0.00    -0.310 N 
ATOM      9  C   UNL     1     -10.174  -9.100  17.148  0.00  0.00    +0.024 C 
ATOM     10  C   UNL     1      -7.778  -9.344  16.712  0.00  0.00    +0.052 C 
ATOM     11  C   UNL     1      -8.866  -8.332  17.067  0.00  0.00    +0.017 C 
ATOM     12  C   UNL     1     -10.476  -9.784  15.799  0.00  0.00    +0.090 C 
ATOM     13  C   UNL     1      -8.101  -9.989  15.344  0.00  0.00    +0.094 C 
ATOM     15  C   UNL     1     -10.079 -10.096  18.308  0.00  0.00    +0.130 C 
ATOM     16  C   UNL     1      -7.641 -10.419  17.787  0.00  0.00    +0.047 A 
ATOM     21  C   UNL     1      -6.465 -11.033  18.055  0.00  0.00    +0.054 A 
ATOM     22  C   UNL     1      -8.783 -11.791  19.486  0.00  0.00    +0.252 A 
ATOM     23  C   UNL     1      -6.396 -12.062  19.063  0.00  0.00    +0.030 A 
ATOM     24  C   UNL     1      -7.476 -12.445  19.747  0.00  0.00    +0.072 A 
ENDROOT
BRANCH   5  14
ATOM      3  O   UNL     1      -9.059 -16.219  13.860  0.00  0.00    -0.276 OA
ATOM      7  N   UNL     1      -9.890 -14.145  14.498  0.00  0.00    -0.302 N 
ATOM     14  C   UNL     1      -9.699 -11.265  14.054  0.00  0.00    +0.060 C 
ATOM     17  C   UNL     1     -11.046 -12.000  14.094  0.00  0.00    +0.038 C 
ATOM     18  C   UNL     1      -8.586 -12.236  13.633  0.00  0.00    +0.038 C 
ATOM     19  C   UNL     1     -10.992 -13.278  14.934  0.00  0.00    +0.109 C 
ATOM     20  C   UNL     1      -8.570 -13.507  14.482  0.00  0.00    +0.109 C 
ATOM     25  C   UNL     1     -10.008 -15.496  14.172  0.00  0.00    +0.212 C 
ATOM     26  C   UNL     1     -11.399 -16.080  14.206  0.00  0.00    +0.109 C 
ENDBRANCH   5  14
BRANCH  21   8
ATOM      4  O   UNL     1      -5.457 -12.442  15.834  0.00  0.00    -0.269 OA
ATOM      8  N   UNL     1      -5.298 -10.756  17.398  0.00  0.00    -0.280 N 
ATOM     27  C   UNL     1      -4.840 -11.483  16.302  0.00  0.00    +0.255 C 
ATOM     32  H   UNL     1      -4.859  -9.865  17.598  0.00  0.00    +0.155 HD
BRANCH  27  28
ATOM      1  S   UNL     1      -3.507 -10.832  14.033  0.00  0.00    -0.092 S 
ATOM     28  C   UNL     1      -3.578 -11.010  15.714  0.00  0.00    +0.074 A 
ATOM     29  C   UNL     1      -2.439 -10.690  16.365  0.00  0.00    +0.021 A 
ATOM     30  C   UNL     1      -1.435 -10.271  15.445  0.00  0.00    +0.008 A 
ATOM     31  C   UNL     1      -1.883 -10.301  14.142  0.00  0.00    +0.046 A 
ENDBRANCH  27  28
ENDBRANCH  21   8
TORSDOF 3
ENDMDL
MODEL 10
REMARK VINA RESULT:      -5.9     23.473     26.136
REMARK  Name = 9424620
REMARK  4 active torsions:
REMARK  status: ('A' for Active; 'I' for Inactive)
REMARK    1  A    between atoms: N_5  and  C_14
REMARK    2  A    between atoms: N_8  and  C_21
REMARK    3  A    between atoms: C_25  and  C_26
REMARK    4  A    between atoms: C_27  and  C_28
REMARK                            x       y       z     vdW  Elec       q    Type
REMARK                         _______ _______ _______ _____ _____    ______ ____
ROOT
ATOM      2  O   UNL     1     -11.354   9.594  11.365  0.00  0.00    -0.268 OA
ATOM      5  N   UNL     1     -12.265  12.681  15.216  0.00  0.00    -0.298 NA
ATOM      6  N   UNL     1     -12.468  10.086  13.366  0.00  0.00    -0.310 N 
ATOM      9  C   UNL     1     -14.069  12.077  13.584  0.00  0.00    +0.024 C 
ATOM     10  C   UNL     1     -13.657  10.630  15.514  0.00  0.00    +0.052 C 
ATOM     11  C   UNL     1     -14.755  11.214  14.629  0.00  0.00    +0.017 C 
ATOM     12  C   UNL     1     -13.257  13.197  14.266  0.00  0.00    +0.090 C 
ATOM     13  C   UNL     1     -12.882  11.779  16.199  0.00  0.00    +0.094 C 
ATOM     15  C   UNL     1     -13.204  11.172  12.702  0.00  0.00    +0.130 C 
ATOM     16  C   UNL     1     -12.700   9.750  14.712  0.00  0.00    +0.047 A 
ATOM     21  C   UNL     1     -12.061   8.689  15.257  0.00  0.00    +0.054 A 
ATOM     22  C   UNL     1     -11.585   9.356  12.551  0.00  0.00    +0.252 A 
ATOM     23  C   UNL     1     -11.147   7.905  14.463  0.00  0.00    +0.030 A 
ATOM     24  C   UNL     1     -10.897   8.203  13.186  0.00  0.00    +0.072 A 
ENDROOT
BRANCH   5  14
ATOM      3  O   UNL     1      -6.597  13.159  16.056  0.00  0.00    -0.276 OA
ATOM      7  N   UNL     1      -8.738  13.428  15.194  0.00  0.00    -0.302 N 
ATOM     14  C   UNL     1     -11.555  13.775  15.881  0.00  0.00    +0.060 C 
ATOM     17  C   UNL     1     -10.849  14.662  14.846  0.00  0.00    +0.038 C 
ATOM     18  C   UNL     1     -10.529  13.219  16.880  0.00  0.00    +0.038 C 
ATOM     19  C   UNL     1      -9.662  13.959  14.184  0.00  0.00    +0.109 C 
ATOM     20  C   UNL     1      -9.350  12.538  16.185  0.00  0.00    +0.109 C 
ATOM     25  C   UNL     1      -7.363  13.660  15.230  0.00  0.00    +0.212 C 
ATOM     26  C   UNL     1      -6.807  14.591  14.180  0.00  0.00    +0.109 C 
ENDBRANCH   5  14
BRANCH  21   8
ATOM      4  O   UNL     1     -10.323   9.368  17.367  0.00  0.00    -0.269 OA
ATOM      8  N   UNL     1     -12.204   8.305  16.562  0.00  0.00    -0.280 N 
ATOM     27  C   UNL     1     -11.315   8.667  17.572  0.00  0.00    +0.255 C 
ATOM     32  H   UNL     1     -13.098   7.912  16.829  0.00  0.00    +0.155 HD
BRANCH  27  28
ATOM      1  S   UNL     1     -12.339   9.282  20.007  0.00  0.00    -0.092 S 
ATOM     28  C   UNL     1     -11.659   8.180  18.917  0.00  0.00    +0.074 A 
ATOM     29  C   UNL     1     -11.496   6.931  19.404  0.00  0.00    +0.021 A 
ATOM     30  C   UNL     1     -11.952   6.854  20.752  0.00  0.00    +0.008 A 
ATOM     31  C   UNL     1     -12.436   8.062  21.204  0.00  0.00    +0.046 A 
ENDBRANCH  27  28
ENDBRANCH  21   8
TORSDOF 3
ENDMDL
