MODEL 1
REMARK VINA RESULT:      -6.3      0.000      0.000
REMARK  Name = 45784284
REMARK  4 active torsions:
REMARK  status: ('A' for Active; 'I' for Inactive)
REMARK    1  A    between atoms: O_1  and  C_18
REMARK    2  A    between atoms: O_1  and  C_20
REMARK    3  A    between atoms: N_2  and  C_5
REMARK    4  A    between atoms: C_9  and  C_13
REMARK                            x       y       z     vdW  Elec       q    Type
REMARK                         _______ _______ _______ _____ _____    ______ ____
ROOT
ATOM      3  N   UNL     1      16.218   6.790  19.010  0.00  0.00    -0.341 N 
ATOM      4  N   UNL     1      16.436   8.402  20.525  0.00  0.00    -0.232 NA
ATOM     13  C   UNL     1      15.695   7.933  19.546  0.00  0.00    +0.113 A 
ATOM     14  C   UNL     1      17.374   6.501  19.689  0.00  0.00    +0.070 A 
ATOM     15  C   UNL     1      17.488   7.521  20.629  0.00  0.00    +0.089 A 
ATOM     16  C   UNL     1      18.301   5.465  19.565  0.00  0.00    +0.073 A 
ATOM     17  C   UNL     1      18.586   7.525  21.505  0.00  0.00    +0.033 A 
ATOM     18  C   UNL     1      19.388   5.485  20.445  0.00  0.00    +0.122 A 
ATOM     19  C   UNL     1      19.530   6.495  21.399  0.00  0.00    +0.048 A 
ATOM     21  H   UNL     1      15.825   6.250  18.250  0.00  0.00    +0.167 HD
ENDROOT
BRANCH  13   9
ATOM      2  N   UNL     1      12.091   8.583  19.373  0.00  0.00    -0.299 NA
ATOM      8  C   UNL     1      13.348   8.720  20.114  0.00  0.00    +0.096 C 
ATOM      9  C   UNL     1      14.409   8.530  19.021  0.00  0.00    +0.070 C 
ATOM     11  C   UNL     1      12.305   7.443  18.480  0.00  0.00    +0.085 C 
ATOM     12  C   UNL     1      13.705   7.697  17.936  0.00  0.00    +0.028 C 
BRANCH   2   5
ATOM      5  C   UNL     1      10.972   8.325  20.287  0.00  0.00    +0.057 C 
ATOM      6  C   UNL     1      11.339   7.170  21.241  0.00  0.00    +0.019 C 
ATOM      7  C   UNL     1      11.074   9.264  21.507  0.00  0.00    +0.019 C 
ATOM     10  C   UNL     1      10.764   8.033  22.384  0.00  0.00    +0.003 C 
ENDBRANCH   2   5
ENDBRANCH  13   9
BRANCH  18   1
ATOM      1  O   UNL     1      20.326   4.497  20.370  0.00  0.00    -0.495 OA
ATOM     20  C   UNL     1      21.425   4.579  21.275  0.00  0.00    +0.277 C 
ENDBRANCH  18   1
TORSDOF 3
ENDMDL
MODEL 2
REMARK VINA RESULT:      -6.2     14.962     17.698
REMARK  Name = 45784284
REMARK  4 active torsions:
REMARK  status: ('A' for Active; 'I' for Inactive)
REMARK    1  A    between atoms: O_1  and  C_18
REMARK    2  A    between atoms: O_1  and  C_20
REMARK    3  A    between atoms: N_2  and  C_5
REMARK    4  A    between atoms: C_9  and  C_13
REMARK                            x       y       z     vdW  Elec       q    Type
REMARK                         _______ _______ _______ _____ _____    ______ ____
ROOT
ATOM      3  N   UNL     1      10.475   5.021   4.716  0.00  0.00    -0.341 N 
ATOM      4  N   UNL     1       9.242   6.849   4.435  0.00  0.00    -0.232 NA
ATOM     13  C   UNL     1       9.939   5.913   3.830  0.00  0.00    +0.113 A 
ATOM     14  C   UNL     1      10.098   5.406   5.977  0.00  0.00    +0.070 A 
ATOM     15  C   UNL     1       9.330   6.549   5.775  0.00  0.00    +0.089 A 
ATOM     16  C   UNL     1      10.356   4.869   7.239  0.00  0.00    +0.073 A 
ATOM     17  C   UNL     1       8.778   7.209   6.886  0.00  0.00    +0.033 A 
ATOM     18  C   UNL     1       9.799   5.538   8.333  0.00  0.00    +0.122 A 
ATOM     19  C   UNL     1       9.024   6.687   8.163  0.00  0.00    +0.048 A 
ATOM     21  H   UNL     1      11.046   4.218   4.487  0.00  0.00    +0.167 HD
ENDROOT
BRANCH  13   9
ATOM      2  N   UNL     1      11.675   4.953   0.747  0.00  0.00    -0.299 NA
ATOM      8  C   UNL     1      10.992   4.535   1.975  0.00  0.00    +0.096 C 
ATOM      9  C   UNL     1      10.165   5.774   2.342  0.00  0.00    +0.070 C 
ATOM     11  C   UNL     1      12.125   6.320   1.015  0.00  0.00    +0.085 C 
ATOM     12  C   UNL     1      10.913   6.949   1.689  0.00  0.00    +0.028 C 
BRANCH   2   5
ATOM      5  C   UNL     1      12.816   4.076   0.461  0.00  0.00    +0.057 C 
ATOM      6  C   UNL     1      14.130   4.807   0.803  0.00  0.00    +0.019 C 
ATOM      7  C   UNL     1      13.091   3.170   1.679  0.00  0.00    +0.019 C 
ATOM     10  C   UNL     1      14.585   3.503   1.492  0.00  0.00    +0.003 C 
ENDBRANCH   2   5
ENDBRANCH  13   9
BRANCH  18   1
ATOM      1  O   UNL     1      10.018   5.058   9.591  0.00  0.00    -0.495 OA
ATOM     20  C   UNL     1       8.884   4.564  10.301  0.00  0.00    +0.277 C 
ENDBRANCH  18   1
TORSDOF 3
ENDMDL
MODEL 3
REMARK VINA RESULT:      -6.2      1.756      2.630
REMARK  Name = 45784284
REMARK  4 active torsions:
REMARK  status: ('A' for Active; 'I' for Inactive)
REMARK    1  A    between atoms: O_1  and  C_18
REMARK    2  A    between atoms: O_1  and  C_20
REMARK    3  A    between atoms: N_2  and  C_5
REMARK    4  A    between atoms: C_9  and  C_13
REMARK                            x       y       z     vdW  Elec       q    Type
REMARK                         _______ _______ _______ _____ _____    ______ ____
ROOT
ATOM      3  N   UNL     1      17.948   7.457  21.729  0.00  0.00    -0.341 N 
ATOM      4  N   UNL     1      18.001   6.317  19.821  0.00  0.00    -0.232 NA
ATOM     13  C   UNL     1      17.329   7.190  20.540  0.00  0.00    +0.113 A 
ATOM     14  C   UNL     1      19.095   6.706  21.782  0.00  0.00    +0.070 A 
ATOM     15  C   UNL     1      19.105   6.005  20.580  0.00  0.00    +0.089 A 
ATOM     16  C   UNL     1      20.093   6.585  22.749  0.00  0.00    +0.073 A 
ATOM     17  C   UNL     1      20.167   5.125  20.309  0.00  0.00    +0.033 A 
ATOM     18  C   UNL     1      21.142   5.706  22.463  0.00  0.00    +0.122 A 
ATOM     19  C   UNL     1      21.181   4.988  21.266  0.00  0.00    +0.048 A 
ATOM     21  H   UNL     1      17.621   8.093  22.444  0.00  0.00    +0.167 HD
ENDROOT
BRANCH  13   9
ATOM      2  N   UNL     1      13.758   7.993  20.737  0.00  0.00    -0.299 NA
ATOM      8  C   UNL     1      15.084   8.049  21.359  0.00  0.00    +0.096 C 
ATOM      9  C   UNL     1      16.027   7.860  20.163  0.00  0.00    +0.070 C 
ATOM     11  C   UNL     1      13.835   6.883  19.786  0.00  0.00    +0.085 C 
ATOM     12  C   UNL     1      15.188   7.101  19.121  0.00  0.00    +0.028 C 
BRANCH   2   5
ATOM      5  C   UNL     1      12.720   7.745  21.744  0.00  0.00    +0.057 C 
ATOM      6  C   UNL     1      11.486   8.619  21.443  0.00  0.00    +0.019 C 
ATOM      7  C   UNL     1      11.868   6.530  21.321  0.00  0.00    +0.019 C 
ATOM     10  C   UNL     1      10.628   7.364  21.705  0.00  0.00    +0.003 C 
ENDBRANCH   2   5
ENDBRANCH  13   9
BRANCH  18   1
ATOM      1  O   UNL     1      22.147   5.548  23.372  0.00  0.00    -0.495 OA
ATOM     20  C   UNL     1      22.106   6.377  24.532  0.00  0.00    +0.277 C 
ENDBRANCH  18   1
TORSDOF 3
ENDMDL
MODEL 4
REMARK VINA RESULT:      -6.1      1.747      2.808
REMARK  Name = 45784284
REMARK  4 active torsions:
REMARK  status: ('A' for Active; 'I' for Inactive)
REMARK    1  A    between atoms: O_1  and  C_18
REMARK    2  A    between atoms: O_1  and  C_20
REMARK    3  A    between atoms: N_2  and  C_5
REMARK    4  A    between atoms: C_9  and  C_13
REMARK                            x       y       z     vdW  Elec       q    Type
REMARK                         _______ _______ _______ _____ _____    ______ ____
ROOT
ATOM      3  N   UNL     1      15.044   7.919  21.060  0.00  0.00    -0.341 N 
ATOM      4  N   UNL     1      14.547   6.838  19.182  0.00  0.00    -0.232 NA
ATOM     13  C   UNL     1      14.086   7.622  20.131  0.00  0.00    +0.113 A 
ATOM     14  C   UNL     1      16.200   7.284  20.686  0.00  0.00    +0.070 A 
ATOM     15  C   UNL     1      15.865   6.617  19.511  0.00  0.00    +0.089 A 
ATOM     16  C   UNL     1      17.472   7.237  21.257  0.00  0.00    +0.073 A 
ATOM     17  C   UNL     1      16.844   5.853  18.854  0.00  0.00    +0.033 A 
ATOM     18  C   UNL     1      18.434   6.472  20.590  0.00  0.00    +0.122 A 
ATOM     19  C   UNL     1      18.128   5.792  19.410  0.00  0.00    +0.048 A 
ATOM     21  H   UNL     1      14.925   8.502  21.878  0.00  0.00    +0.167 HD
ENDROOT
BRANCH  13   9
ATOM      2  N   UNL     1      11.384   9.768  21.370  0.00  0.00    -0.299 NA
ATOM      8  C   UNL     1      12.649   9.654  20.639  0.00  0.00    +0.096 C 
ATOM      9  C   UNL     1      12.682   8.170  20.247  0.00  0.00    +0.070 C 
ATOM     11  C   UNL     1      11.339   8.583  22.229  0.00  0.00    +0.085 C 
ATOM     12  C   UNL     1      11.800   7.471  21.295  0.00  0.00    +0.028 C 
BRANCH   2   5
ATOM      5  C   UNL     1      11.356  10.995  22.175  0.00  0.00    +0.057 C 
ATOM      6  C   UNL     1      11.006  10.648  23.636  0.00  0.00    +0.019 C 
ATOM      7  C   UNL     1      12.780  11.320  22.672  0.00  0.00    +0.019 C 
ATOM     10  C   UNL     1      12.151  11.595  24.054  0.00  0.00    +0.003 C 
ENDBRANCH   2   5
ENDBRANCH  13   9
BRANCH  18   1
ATOM      1  O   UNL     1      19.696   6.391  21.103  0.00  0.00    -0.495 OA
ATOM     20  C   UNL     1      20.515   5.320  20.639  0.00  0.00    +0.277 C 
ENDBRANCH  18   1
TORSDOF 3
ENDMDL
MODEL 5
REMARK VINA RESULT:      -6.1      3.056      8.705
REMARK  Name = 45784284
REMARK  4 active torsions:
REMARK  status: ('A' for Active; 'I' for Inactive)
REMARK    1  A    between atoms: O_1  and  C_18
REMARK    2  A    between atoms: O_1  and  C_20
REMARK    3  A    between atoms: N_2  and  C_5
REMARK    4  A    between atoms: C_9  and  C_13
REMARK                            x       y       z     vdW  Elec       q    Type
REMARK                         _______ _______ _______ _____ _____    ______ ____
ROOT
ATOM      3  N   UNL     1      19.154   5.793  19.977  0.00  0.00    -0.341 N 
ATOM      4  N   UNL     1      19.259   7.331  21.579  0.00  0.00    -0.232 NA
ATOM     13  C   UNL     1      19.923   6.398  20.932  0.00  0.00    +0.113 A 
ATOM     14  C   UNL     1      17.912   6.374  20.010  0.00  0.00    +0.070 A 
ATOM     15  C   UNL     1      18.003   7.330  21.017  0.00  0.00    +0.089 A 
ATOM     16  C   UNL     1      16.752   6.151  19.267  0.00  0.00    +0.073 A 
ATOM     17  C   UNL     1      16.880   8.120  21.315  0.00  0.00    +0.033 A 
ATOM     18  C   UNL     1      15.644   6.946  19.576  0.00  0.00    +0.122 A 
ATOM     19  C   UNL     1      15.705   7.913  20.581  0.00  0.00    +0.048 A 
ATOM     21  H   UNL     1      19.446   5.051  19.355  0.00  0.00    +0.167 HD
ENDROOT
BRANCH  13   9
ATOM      2  N   UNL     1      22.762   4.123  21.385  0.00  0.00    -0.299 NA
ATOM      8  C   UNL     1      21.711   4.645  20.507  0.00  0.00    +0.096 C 
ATOM      9  C   UNL     1      21.360   5.990  21.159  0.00  0.00    +0.070 C 
ATOM     11  C   UNL     1      22.286   4.398  22.743  0.00  0.00    +0.085 C 
ATOM     12  C   UNL     1      21.759   5.823  22.635  0.00  0.00    +0.028 C 
BRANCH   2   5
ATOM      5  C   UNL     1      22.945   2.682  21.179  0.00  0.00    +0.057 C 
ATOM      6  C   UNL     1      24.240   2.434  20.380  0.00  0.00    +0.019 C 
ATOM      7  C   UNL     1      23.670   2.073  22.397  0.00  0.00    +0.019 C 
ATOM     10  C   UNL     1      24.558   1.312  21.391  0.00  0.00    +0.003 C 
ENDBRANCH   2   5
ENDBRANCH  13   9
BRANCH  18   1
ATOM      1  O   UNL     1      14.483   6.772  18.882  0.00  0.00    -0.495 OA
ATOM     20  C   UNL     1      13.266   7.000  19.589  0.00  0.00    +0.277 C 
ENDBRANCH  18   1
TORSDOF 3
ENDMDL
MODEL 6
REMARK VINA RESULT:      -6.1     28.935     31.488
REMARK  Name = 45784284
REMARK  4 active torsions:
REMARK  status: ('A' for Active; 'I' for Inactive)
REMARK    1  A    between atoms: O_1  and  C_18
REMARK    2  A    between atoms: O_1  and  C_20
REMARK    3  A    between atoms: N_2  and  C_5
REMARK    4  A    between atoms: C_9  and  C_13
REMARK                            x       y       z     vdW  Elec       q    Type
REMARK                         _______ _______ _______ _____ _____    ______ ____
ROOT
ATOM      3  N   UNL     1       0.475   2.286  -6.999  0.00  0.00    -0.341 N 
ATOM      4  N   UNL     1       1.118   0.763  -5.512  0.00  0.00    -0.232 NA
ATOM     13  C   UNL     1       1.395   1.929  -6.052  0.00  0.00    +0.113 A 
ATOM     14  C   UNL     1      -0.457   1.282  -7.075  0.00  0.00    +0.070 A 
ATOM     15  C   UNL     1      -0.033   0.344  -6.138  0.00  0.00    +0.089 A 
ATOM     16  C   UNL     1      -1.599   1.120  -7.860  0.00  0.00    +0.073 A 
ATOM     17  C   UNL     1      -0.781  -0.832  -5.960  0.00  0.00    +0.033 A 
ATOM     18  C   UNL     1      -2.332  -0.055  -7.669  0.00  0.00    +0.122 A 
ATOM     19  C   UNL     1      -1.932  -1.015  -6.737  0.00  0.00    +0.048 A 
ATOM     21  H   UNL     1       0.478   3.136  -7.546  0.00  0.00    +0.167 HD
ENDROOT
BRANCH  13   9
ATOM      2  N   UNL     1       3.155   5.055  -5.294  0.00  0.00    -0.299 NA
ATOM      8  C   UNL     1       2.163   4.053  -4.890  0.00  0.00    +0.096 C 
ATOM      9  C   UNL     1       2.566   2.825  -5.718  0.00  0.00    +0.070 C 
ATOM     11  C   UNL     1       3.262   4.913  -6.747  0.00  0.00    +0.085 C 
ATOM     12  C   UNL     1       3.307   3.402  -6.937  0.00  0.00    +0.028 C 
BRANCH   2   5
ATOM      5  C   UNL     1       2.707   6.405  -4.934  0.00  0.00    +0.057 C 
ATOM      6  C   UNL     1       2.762   7.317  -6.176  0.00  0.00    +0.019 C 
ATOM      7  C   UNL     1       1.170   6.485  -5.036  0.00  0.00    +0.019 C 
ATOM     10  C   UNL     1       1.366   7.830  -5.766  0.00  0.00    +0.003 C 
ENDBRANCH   2   5
ENDBRANCH  13   9
BRANCH  18   1
ATOM      1  O   UNL     1      -3.458  -0.267  -8.409  0.00  0.00    -0.495 OA
ATOM     20  C   UNL     1      -4.705  -0.216  -7.718  0.00  0.00    +0.277 C 
ENDBRANCH  18   1
TORSDOF 3
ENDMDL
MODEL 7
REMARK VINA RESULT:      -6.0     30.098     32.412
REMARK  Name = 45784284
REMARK  4 active torsions:
REMARK  status: ('A' for Active; 'I' for Inactive)
REMARK    1  A    between atoms: O_1  and  C_18
REMARK    2  A    between atoms: O_1  and  C_20
REMARK    3  A    between atoms: N_2  and  C_5
REMARK    4  A    between atoms: C_9  and  C_13
REMARK                            x       y       z     vdW  Elec       q    Type
REMARK                         _______ _______ _______ _____ _____    ______ ____
ROOT
ATOM      3  N   UNL     1     -15.467   3.334  27.931  0.00  0.00    -0.341 N 
ATOM      4  N   UNL     1     -16.495   1.385  27.641  0.00  0.00    -0.232 NA
ATOM     13  C   UNL     1     -16.231   2.557  27.107  0.00  0.00    +0.113 A 
ATOM     14  C   UNL     1     -15.222   2.617  29.074  0.00  0.00    +0.070 A 
ATOM     15  C   UNL     1     -15.874   1.405  28.869  0.00  0.00    +0.089 A 
ATOM     16  C   UNL     1     -14.507   2.916  30.235  0.00  0.00    +0.073 A 
ATOM     17  C   UNL     1     -15.820   0.420  29.869  0.00  0.00    +0.033 A 
ATOM     18  C   UNL     1     -14.464   1.925  31.220  0.00  0.00    +0.122 A 
ATOM     19  C   UNL     1     -15.108   0.699  31.043  0.00  0.00    +0.048 A 
ATOM     21  H   UNL     1     -15.139   4.271  27.737  0.00  0.00    +0.167 HD
ENDROOT
BRANCH  13   9
ATOM      2  N   UNL     1     -16.172   4.597  24.062  0.00  0.00    -0.299 NA
ATOM      8  C   UNL     1     -15.523   3.578  24.892  0.00  0.00    +0.096 C 
ATOM      9  C   UNL     1     -16.681   3.054  25.752  0.00  0.00    +0.070 C 
ATOM     11  C   UNL     1     -17.047   5.328  24.979  0.00  0.00    +0.085 C 
ATOM     12  C   UNL     1     -17.693   4.212  25.791  0.00  0.00    +0.028 C 
BRANCH   2   5
ATOM      5  C   UNL     1     -15.175   5.496  23.466  0.00  0.00    +0.057 C 
ATOM      6  C   UNL     1     -13.795   4.808  23.462  0.00  0.00    +0.019 C 
ATOM      7  C   UNL     1     -15.179   5.329  21.933  0.00  0.00    +0.019 C 
ATOM     10  C   UNL     1     -13.639   5.303  22.009  0.00  0.00    +0.003 C 
ENDBRANCH   2   5
ENDBRANCH  13   9
BRANCH  18   1
ATOM      1  O   UNL     1     -13.780   2.163  32.376  0.00  0.00    -0.495 OA
ATOM     20  C   UNL     1     -14.440   1.836  33.597  0.00  0.00    +0.277 C 
ENDBRANCH  18   1
TORSDOF 3
ENDMDL
MODEL 8
REMARK VINA RESULT:      -6.0     26.468     27.955
REMARK  Name = 45784284
REMARK  4 active torsions:
REMARK  status: ('A' for Active; 'I' for Inactive)
REMARK    1  A    between atoms: O_1  and  C_18
REMARK    2  A    between atoms: O_1  and  C_20
REMARK    3  A    between atoms: N_2  and  C_5
REMARK    4  A    between atoms: C_9  and  C_13
REMARK                            x       y       z     vdW  Elec       q    Type
REMARK                         _______ _______ _______ _____ _____    ______ ____
ROOT
ATOM      3  N   UNL     1      -4.501 -10.280  16.042  0.00  0.00    -0.341 N 
ATOM      4  N   UNL     1      -2.998 -11.486  17.150  0.00  0.00    -0.232 NA
ATOM     13  C   UNL     1      -3.253 -10.835  16.036  0.00  0.00    +0.113 A 
ATOM     14  C   UNL     1      -5.093 -10.592  17.239  0.00  0.00    +0.070 A 
ATOM     15  C   UNL     1      -4.136 -11.344  17.912  0.00  0.00    +0.089 A 
ATOM     16  C   UNL     1      -6.346 -10.290  17.773  0.00  0.00    +0.073 A 
ATOM     17  C   UNL     1      -4.428 -11.833  19.197  0.00  0.00    +0.033 A 
ATOM     18  C   UNL     1      -6.620 -10.784  19.052  0.00  0.00    +0.122 A 
ATOM     19  C   UNL     1      -5.680 -11.541  19.753  0.00  0.00    +0.048 A 
ATOM     21  H   UNL     1      -4.917  -9.734  15.298  0.00  0.00    +0.167 HD
ENDROOT
BRANCH  13   9
ATOM      2  N   UNL     1      -2.229 -10.859  12.516  0.00  0.00    -0.299 NA
ATOM      8  C   UNL     1      -3.062 -10.268  13.568  0.00  0.00    +0.096 C 
ATOM      9  C   UNL     1      -2.327 -10.677  14.852  0.00  0.00    +0.070 C 
ATOM     11  C   UNL     1      -1.899 -12.198  13.007  0.00  0.00    +0.085 C 
ATOM     12  C   UNL     1      -1.546 -11.946  14.467  0.00  0.00    +0.028 C 
BRANCH   2   5
ATOM      5  C   UNL     1      -2.967 -10.936  11.249  0.00  0.00    +0.057 C 
ATOM      6  C   UNL     1      -4.448 -10.582  11.491  0.00  0.00    +0.019 C 
ATOM      7  C   UNL     1      -2.847  -9.593  10.499  0.00  0.00    +0.019 C 
ATOM     10  C   UNL     1      -4.363  -9.697  10.230  0.00  0.00    +0.003 C 
ENDBRANCH   2   5
ENDBRANCH  13   9
BRANCH  18   1
ATOM      1  O   UNL     1      -7.830 -10.519  19.625  0.00  0.00    -0.495 OA
ATOM     20  C   UNL     1      -8.876 -11.459  19.390  0.00  0.00    +0.277 C 
ENDBRANCH  18   1
TORSDOF 3
ENDMDL
MODEL 9
REMARK VINA RESULT:      -5.8     26.513     28.149
REMARK  Name = 45784284
REMARK  4 active torsions:
REMARK  status: ('A' for Active; 'I' for Inactive)
REMARK    1  A    between atoms: O_1  and  C_18
REMARK    2  A    between atoms: O_1  and  C_20
REMARK    3  A    between atoms: N_2  and  C_5
REMARK    4  A    between atoms: C_9  and  C_13
REMARK                            x       y       z     vdW  Elec       q    Type
REMARK                         _______ _______ _______ _____ _____    ______ ____
ROOT
ATOM      3  N   UNL     1      -4.922 -10.349  13.045  0.00  0.00    -0.341 N 
ATOM      4  N   UNL     1      -2.858 -10.602  12.259  0.00  0.00    -0.232 NA
ATOM     13  C   UNL     1      -3.666 -10.839  13.269  0.00  0.00    +0.113 A 
ATOM     14  C   UNL     1      -4.926  -9.757  11.808  0.00  0.00    +0.070 A 
ATOM     15  C   UNL     1      -3.627  -9.929  11.338  0.00  0.00    +0.089 A 
ATOM     16  C   UNL     1      -5.924  -9.107  11.082  0.00  0.00    +0.073 A 
ATOM     17  C   UNL     1      -3.285  -9.427  10.070  0.00  0.00    +0.033 A 
ATOM     18  C   UNL     1      -5.567  -8.614   9.823  0.00  0.00    +0.122 A 
ATOM     19  C   UNL     1      -4.272  -8.771   9.324  0.00  0.00    +0.048 A 
ATOM     21  H   UNL     1      -5.711 -10.411  13.676  0.00  0.00    +0.167 HD
ENDROOT
BRANCH  13   9
ATOM      2  N   UNL     1      -4.093 -11.984  16.725  0.00  0.00    -0.299 NA
ATOM      8  C   UNL     1      -4.559 -12.014  15.336  0.00  0.00    +0.096 C 
ATOM      9  C   UNL     1      -3.320 -11.558  14.553  0.00  0.00    +0.070 C 
ATOM     11  C   UNL     1      -3.333 -10.738  16.839  0.00  0.00    +0.085 C 
ATOM     12  C   UNL     1      -2.506 -10.728  15.560  0.00  0.00    +0.028 C 
BRANCH   2   5
ATOM      5  C   UNL     1      -5.228 -11.988  17.656  0.00  0.00    +0.057 C 
ATOM      6  C   UNL     1      -4.714 -11.827  19.100  0.00  0.00    +0.019 C 
ATOM      7  C   UNL     1      -5.801 -10.561  17.780  0.00  0.00    +0.019 C 
ATOM     10  C   UNL     1      -5.842 -10.794  19.305  0.00  0.00    +0.003 C 
ENDBRANCH   2   5
ENDBRANCH  13   9
BRANCH  18   1
ATOM      1  O   UNL     1      -6.503  -7.969   9.068  0.00  0.00    -0.495 OA
ATOM     20  C   UNL     1      -7.869  -8.295   9.316  0.00  0.00    +0.277 C 
ENDBRANCH  18   1
TORSDOF 3
ENDMDL
MODEL 10
REMARK VINA RESULT:      -5.8     28.927     31.723
REMARK  Name = 45784284
REMARK  4 active torsions:
REMARK  status: ('A' for Active; 'I' for Inactive)
REMARK    1  A    between atoms: O_1  and  C_18
REMARK    2  A    between atoms: O_1  and  C_20
REMARK    3  A    between atoms: N_2  and  C_5
REMARK    4  A    between atoms: C_9  and  C_13
REMARK                            x       y       z     vdW  Elec       q    Type
REMARK                         _______ _______ _______ _____ _____    ______ ____
ROOT
ATOM      3  N   UNL     1      -0.642   2.489  -8.022  0.00  0.00    -0.341 N 
ATOM      4  N   UNL     1       0.873   1.839  -6.530  0.00  0.00    -0.232 NA
ATOM     13  C   UNL     1       0.525   2.786  -7.374  0.00  0.00    +0.113 A 
ATOM     14  C   UNL     1      -1.075   1.270  -7.567  0.00  0.00    +0.070 A 
ATOM     15  C   UNL     1      -0.113   0.886  -6.637  0.00  0.00    +0.089 A 
ATOM     16  C   UNL     1      -2.192   0.495  -7.880  0.00  0.00    +0.073 A 
ATOM     17  C   UNL     1      -0.257  -0.342  -5.970  0.00  0.00    +0.033 A 
ATOM     18  C   UNL     1      -2.320  -0.724  -7.207  0.00  0.00    +0.122 A 
ATOM     19  C   UNL     1      -1.372  -1.137  -6.269  0.00  0.00    +0.048 A 
ATOM     21  H   UNL     1      -1.105   3.064  -8.713  0.00  0.00    +0.167 HD
ENDROOT
BRANCH  13   9
ATOM      2  N   UNL     1       2.196   5.956  -6.599  0.00  0.00    -0.299 NA
ATOM      8  C   UNL     1       2.180   4.494  -6.484  0.00  0.00    +0.096 C 
ATOM      9  C   UNL     1       1.270   4.072  -7.646  0.00  0.00    +0.070 C 
ATOM     11  C   UNL     1       0.805   6.326  -6.867  0.00  0.00    +0.085 C 
ATOM     12  C   UNL     1       0.375   5.296  -7.904  0.00  0.00    +0.028 C 
BRANCH   2   5
ATOM      5  C   UNL     1       2.668   6.571  -5.353  0.00  0.00    +0.057 C 
ATOM      6  C   UNL     1       2.974   5.472  -4.316  0.00  0.00    +0.019 C 
ATOM      7  C   UNL     1       4.190   6.809  -5.437  0.00  0.00    +0.019 C 
ATOM     10  C   UNL     1       4.282   6.232  -4.010  0.00  0.00    +0.003 C 
ENDBRANCH   2   5
ENDBRANCH  13   9
BRANCH  18   1
ATOM      1  O   UNL     1      -3.393  -1.523  -7.472  0.00  0.00    -0.495 OA
ATOM     20  C   UNL     1      -3.286  -2.896  -7.099  0.00  0.00    +0.277 C 
ENDBRANCH  18   1
TORSDOF 3
ENDMDL
