MODEL 1
REMARK VINA RESULT:      -6.9      0.000      0.000
REMARK  Name = 71693234
REMARK  9 active torsions:
REMARK  status: ('A' for Active; 'I' for Inactive)
REMARK    1  A    between atoms: O_2  and  C_10
REMARK    2  A    between atoms: N_6  and  C_18
REMARK    3  A    between atoms: C_7  and  C_9
REMARK    4  A    between atoms: CA_8  and  C_10
REMARK    5  A    between atoms: C_11  and  C_16
REMARK    6  A    between atoms: C_11  and  C_17
REMARK    7  A    between atoms: C_11  and  C_19
REMARK    8  A    between atoms: C_16  and  C_22
REMARK    9  A    between atoms: C_17  and  C_23
REMARK                            x       y       z     vdW  Elec       q    Type
REMARK                         _______ _______ _______ _____ _____    ______ ____
ROOT
ATOM      9  C   UNL     1      15.866   7.424  19.527  0.00  0.00    -0.017 A 
ATOM     14  C   UNL     1      16.579   8.213  20.431  0.00  0.00    +0.008 A 
ATOM     15  C   UNL     1      16.438   6.260  19.016  0.00  0.00    +0.008 A 
ATOM     18  C   UNL     1      18.435   6.671  20.312  0.00  0.00    +0.033 A 
ATOM     20  C   UNL     1      17.863   7.835  20.824  0.00  0.00    +0.023 A 
ATOM     21  C   UNL     1      17.722   5.882  19.408  0.00  0.00    +0.023 A 
ENDROOT
BRANCH   9   7
ATOM      1  O   UNL     1      14.439   7.834  17.670  0.00  0.00    -0.361 OA
ATOM      3  O   UNL     1      10.889   7.979  17.178  0.00  0.00    -0.273 OA
ATOM      5  N   UNL     1      12.092   7.223  18.980  0.00  0.00    -0.306 N 
ATOM      7  C   UNL     1      14.473   7.833  19.102  0.00  0.00    +0.171 C 
ATOM      8  CA  UNL     1      13.372   6.879  19.593  0.00  0.00    +0.131 C 
ATOM     12  C   UNL     1      13.247   8.414  17.180  0.00  0.00    +0.256 C 
ATOM     13  C   UNL     1      11.967   7.838  17.753  0.00  0.00    +0.239 C 
ATOM     24  H   UNL     1      11.250   6.829  19.391  0.00  0.00    +0.149 HD
BRANCH   8  10
ATOM     10  C   UNL     1      13.232   6.879  21.114  0.00  0.00    +0.181 C 
BRANCH  10   2
ATOM      2  O   UNL     1      12.259   5.918  21.475  0.00  0.00    -0.393 OA
ATOM     26  H   UNL     1      11.497   6.045  20.886  0.00  0.00    +0.209 HD
ENDBRANCH  10   2
ENDBRANCH   8  10
ENDBRANCH   9   7
BRANCH  18   6
ATOM      4  O   UNL     1      19.613   6.365  23.052  0.00  0.00    -0.275 OA
ATOM      6  N   UNL     1      19.738   6.288  20.710  0.00  0.00    -0.285 N 
ATOM     19  C   UNL     1      20.229   6.171  22.008  0.00  0.00    +0.220 C 
ATOM     25  H   UNL     1      20.369   6.085  19.940  0.00  0.00    +0.155 HD
BRANCH  19  11
ATOM     11  C   UNL     1      21.701   5.728  22.013  0.00  0.00    +0.075 C 
BRANCH  11  16
ATOM     16  C   UNL     1      22.349   6.025  20.646  0.00  0.00    +0.009 C 
ATOM     22  C   UNL     1      23.801   6.480  20.714  0.00  0.00    +0.004 C 
ENDBRANCH  11  16
BRANCH  11  17
ATOM     17  C   UNL     1      21.865   4.253  22.420  0.00  0.00    +0.009 C 
ATOM     23  C   UNL     1      21.740   3.306  21.231  0.00  0.00    +0.004 C 
ENDBRANCH  11  17
ENDBRANCH  19  11
ENDBRANCH  18   6
TORSDOF 7
ENDMDL
MODEL 2
REMARK VINA RESULT:      -6.5      1.521      2.806
REMARK  Name = 71693234
REMARK  9 active torsions:
REMARK  status: ('A' for Active; 'I' for Inactive)
REMARK    1  A    between atoms: O_2  and  C_10
REMARK    2  A    between atoms: N_6  and  C_18
REMARK    3  A    between atoms: C_7  and  C_9
REMARK    4  A    between atoms: CA_8  and  C_10
REMARK    5  A    between atoms: C_11  and  C_16
REMARK    6  A    between atoms: C_11  and  C_17
REMARK    7  A    between atoms: C_11  and  C_19
REMARK    8  A    between atoms: C_16  and  C_22
REMARK    9  A    between atoms: C_17  and  C_23
REMARK                            x       y       z     vdW  Elec       q    Type
REMARK                         _______ _______ _______ _____ _____    ______ ____
ROOT
ATOM      9  C   UNL     1      15.823   6.638  19.935  0.00  0.00    -0.017 A 
ATOM     14  C   UNL     1      16.524   5.938  18.953  0.00  0.00    +0.008 A 
ATOM     15  C   UNL     1      16.502   7.173  21.029  0.00  0.00    +0.008 A 
ATOM     18  C   UNL     1      18.584   6.310  20.158  0.00  0.00    +0.033 A 
ATOM     20  C   UNL     1      17.904   5.775  19.064  0.00  0.00    +0.023 A 
ATOM     21  C   UNL     1      17.883   7.009  21.141  0.00  0.00    +0.023 A 
ENDROOT
BRANCH   9   7
ATOM      1  O   UNL     1      13.778   6.808  21.138  0.00  0.00    -0.361 OA
ATOM      3  O   UNL     1      10.507   8.091  20.419  0.00  0.00    -0.273 OA
ATOM      5  N   UNL     1      12.467   8.327  19.249  0.00  0.00    -0.306 N 
ATOM      7  C   UNL     1      14.325   6.816  19.815  0.00  0.00    +0.171 C 
ATOM      8  CA  UNL     1      13.912   8.138  19.148  0.00  0.00    +0.131 C 
ATOM     12  C   UNL     1      12.367   6.748  21.116  0.00  0.00    +0.256 C 
ATOM     13  C   UNL     1      11.690   7.796  20.255  0.00  0.00    +0.239 C 
ATOM     24  H   UNL     1      12.040   9.031  18.654  0.00  0.00    +0.149 HD
BRANCH   8  10
ATOM     10  C   UNL     1      14.341   8.216  17.684  0.00  0.00    +0.181 C 
BRANCH  10   2
ATOM      2  O   UNL     1      13.475   7.400  16.918  0.00  0.00    -0.393 OA
ATOM     26  H   UNL     1      14.034   6.806  16.389  0.00  0.00    +0.209 HD
ENDBRANCH  10   2
ENDBRANCH   8  10
ENDBRANCH   9   7
BRANCH  18   6
ATOM      4  O   UNL     1      20.219   3.820  20.487  0.00  0.00    -0.275 OA
ATOM      6  N   UNL     1      19.985   6.144  20.271  0.00  0.00    -0.285 N 
ATOM     19  C   UNL     1      20.689   4.952  20.430  0.00  0.00    +0.220 C 
ATOM     25  H   UNL     1      20.514   7.010  20.233  0.00  0.00    +0.155 HD
BRANCH  19  11
ATOM     11  C   UNL     1      22.203   5.201  20.512  0.00  0.00    +0.075 C 
BRANCH  11  16
ATOM     16  C   UNL     1      22.798   4.455  21.723  0.00  0.00    +0.009 C 
ATOM     22  C   UNL     1      23.713   3.289  21.367  0.00  0.00    +0.004 C 
ENDBRANCH  11  16
BRANCH  11  17
ATOM     17  C   UNL     1      22.547   6.701  20.535  0.00  0.00    +0.009 C 
ATOM     23  C   UNL     1      23.350   7.094  21.770  0.00  0.00    +0.004 C 
ENDBRANCH  11  17
ENDBRANCH  19  11
ENDBRANCH  18   6
TORSDOF 7
ENDMDL
MODEL 3
REMARK VINA RESULT:      -6.2      1.950      8.522
REMARK  Name = 71693234
REMARK  9 active torsions:
REMARK  status: ('A' for Active; 'I' for Inactive)
REMARK    1  A    between atoms: O_2  and  C_10
REMARK    2  A    between atoms: N_6  and  C_18
REMARK    3  A    between atoms: C_7  and  C_9
REMARK    4  A    between atoms: CA_8  and  C_10
REMARK    5  A    between atoms: C_11  and  C_16
REMARK    6  A    between atoms: C_11  and  C_17
REMARK    7  A    between atoms: C_11  and  C_19
REMARK    8  A    between atoms: C_16  and  C_22
REMARK    9  A    between atoms: C_17  and  C_23
REMARK                            x       y       z     vdW  Elec       q    Type
REMARK                         _______ _______ _______ _____ _____    ______ ____
ROOT
ATOM      9  C   UNL     1      18.352   6.169  20.502  0.00  0.00    -0.017 A 
ATOM     14  C   UNL     1      17.916   5.796  19.230  0.00  0.00    +0.008 A 
ATOM     15  C   UNL     1      17.475   6.806  21.381  0.00  0.00    +0.008 A 
ATOM     18  C   UNL     1      15.727   6.694  19.717  0.00  0.00    +0.033 A 
ATOM     20  C   UNL     1      16.603   6.058  18.838  0.00  0.00    +0.023 A 
ATOM     21  C   UNL     1      16.162   7.068  20.989  0.00  0.00    +0.023 A 
ENDROOT
BRANCH   9   7
ATOM      1  O   UNL     1      20.179   4.660  20.305  0.00  0.00    -0.361 OA
ATOM      3  O   UNL     1      23.715   4.867  20.867  0.00  0.00    -0.273 OA
ATOM      5  N   UNL     1      22.143   6.536  20.777  0.00  0.00    -0.306 N 
ATOM      7  C   UNL     1      19.775   5.884  20.929  0.00  0.00    +0.171 C 
ATOM      8  CA  UNL     1      20.775   6.974  20.511  0.00  0.00    +0.131 C 
ATOM     12  C   UNL     1      21.413   4.200  20.816  0.00  0.00    +0.256 C 
ATOM     13  C   UNL     1      22.538   5.216  20.799  0.00  0.00    +0.239 C 
ATOM     24  H   UNL     1      22.875   7.240  20.767  0.00  0.00    +0.149 HD
BRANCH   8  10
ATOM     10  C   UNL     1      20.516   8.307  21.208  0.00  0.00    +0.181 C 
BRANCH  10   2
ATOM      2  O   UNL     1      20.635   8.115  22.604  0.00  0.00    -0.393 OA
ATOM     26  H   UNL     1      20.013   7.410  22.851  0.00  0.00    +0.209 HD
ENDBRANCH  10   2
ENDBRANCH   8  10
ENDBRANCH   9   7
BRANCH  18   6
ATOM      4  O   UNL     1      14.601   8.961  18.111  0.00  0.00    -0.275 OA
ATOM      6  N   UNL     1      14.396   6.961  19.319  0.00  0.00    -0.285 N 
ATOM     19  C   UNL     1      13.932   8.042  18.573  0.00  0.00    +0.220 C 
ATOM     25  H   UNL     1      13.719   6.269  19.628  0.00  0.00    +0.155 HD
BRANCH  19  11
ATOM     11  C   UNL     1      12.413   7.963  18.353  0.00  0.00    +0.075 C 
BRANCH  11  16
ATOM     16  C   UNL     1      11.997   8.886  17.190  0.00  0.00    +0.009 C 
ATOM     22  C   UNL     1      10.612   8.608  16.619  0.00  0.00    +0.004 C 
ENDBRANCH  11  16
BRANCH  11  17
ATOM     17  C   UNL     1      11.621   8.262  19.638  0.00  0.00    +0.009 C 
ATOM     23  C   UNL     1      12.032   9.583  20.278  0.00  0.00    +0.004 C 
ENDBRANCH  11  17
ENDBRANCH  19  11
ENDBRANCH  18   6
TORSDOF 7
ENDMDL
MODEL 4
REMARK VINA RESULT:      -6.2     14.702     18.459
REMARK  Name = 71693234
REMARK  9 active torsions:
REMARK  status: ('A' for Active; 'I' for Inactive)
REMARK    1  A    between atoms: O_2  and  C_10
REMARK    2  A    between atoms: N_6  and  C_18
REMARK    3  A    between atoms: C_7  and  C_9
REMARK    4  A    between atoms: CA_8  and  C_10
REMARK    5  A    between atoms: C_11  and  C_16
REMARK    6  A    between atoms: C_11  and  C_17
REMARK    7  A    between atoms: C_11  and  C_19
REMARK    8  A    between atoms: C_16  and  C_22
REMARK    9  A    between atoms: C_17  and  C_23
REMARK                            x       y       z     vdW  Elec       q    Type
REMARK                         _______ _______ _______ _____ _____    ______ ____
ROOT
ATOM      9  C   UNL     1      11.937   5.160   2.242  0.00  0.00    -0.017 A 
ATOM     14  C   UNL     1      11.136   4.169   2.811  0.00  0.00    +0.008 A 
ATOM     15  C   UNL     1      12.183   6.343   2.938  0.00  0.00    +0.008 A 
ATOM     18  C   UNL     1      10.827   5.546   4.772  0.00  0.00    +0.033 A 
ATOM     20  C   UNL     1      10.582   4.363   4.076  0.00  0.00    +0.023 A 
ATOM     21  C   UNL     1      11.628   6.537   4.203  0.00  0.00    +0.023 A 
ENDROOT
BRANCH   9   7
ATOM      1  O   UNL     1      12.339   6.153   0.119  0.00  0.00    -0.361 OA
ATOM      3  O   UNL     1      14.601   5.523  -2.593  0.00  0.00    -0.273 OA
ATOM      5  N   UNL     1      14.590   4.672  -0.462  0.00  0.00    -0.306 N 
ATOM      7  C   UNL     1      12.540   4.950   0.870  0.00  0.00    +0.171 C 
ATOM      8  CA  UNL     1      14.049   4.662   0.895  0.00  0.00    +0.131 C 
ATOM     12  C   UNL     1      12.672   5.976  -1.243  0.00  0.00    +0.256 C 
ATOM     13  C   UNL     1      14.049   5.397  -1.500  0.00  0.00    +0.239 C 
ATOM     24  H   UNL     1      15.512   4.270  -0.606  0.00  0.00    +0.149 HD
BRANCH   8  10
ATOM     10  C   UNL     1      14.382   3.334   1.573  0.00  0.00    +0.181 C 
BRANCH  10   2
ATOM      2  O   UNL     1      15.789   3.197   1.625  0.00  0.00    -0.393 OA
ATOM     26  H   UNL     1      15.978   2.273   1.861  0.00  0.00    +0.209 HD
ENDBRANCH  10   2
ENDBRANCH   8  10
ENDBRANCH   9   7
BRANCH  18   6
ATOM      4  O   UNL     1      12.132   6.279   7.369  0.00  0.00    -0.275 OA
ATOM      6  N   UNL     1      10.265   5.743   6.055  0.00  0.00    -0.285 N 
ATOM     19  C   UNL     1      10.929   6.077   7.232  0.00  0.00    +0.220 C 
ATOM     25  H   UNL     1       9.257   5.615   6.095  0.00  0.00    +0.155 HD
BRANCH  19  11
ATOM     11  C   UNL     1       9.953   6.198   8.413  0.00  0.00    +0.075 C 
BRANCH  11  16
ATOM     16  C   UNL     1       9.432   4.804   8.816  0.00  0.00    +0.009 C 
ATOM     22  C   UNL     1       8.974   4.688  10.264  0.00  0.00    +0.004 C 
ENDBRANCH  11  16
BRANCH  11  17
ATOM     17  C   UNL     1       8.805   7.180   8.123  0.00  0.00    +0.009 C 
ATOM     23  C   UNL     1       9.288   8.622   8.010  0.00  0.00    +0.004 C 
ENDBRANCH  11  17
ENDBRANCH  19  11
ENDBRANCH  18   6
TORSDOF 7
ENDMDL
MODEL 5
REMARK VINA RESULT:      -6.1      1.458      2.214
REMARK  Name = 71693234
REMARK  9 active torsions:
REMARK  status: ('A' for Active; 'I' for Inactive)
REMARK    1  A    between atoms: O_2  and  C_10
REMARK    2  A    between atoms: N_6  and  C_18
REMARK    3  A    between atoms: C_7  and  C_9
REMARK    4  A    between atoms: CA_8  and  C_10
REMARK    5  A    between atoms: C_11  and  C_16
REMARK    6  A    between atoms: C_11  and  C_17
REMARK    7  A    between atoms: C_11  and  C_19
REMARK    8  A    between atoms: C_16  and  C_22
REMARK    9  A    between atoms: C_17  and  C_23
REMARK                            x       y       z     vdW  Elec       q    Type
REMARK                         _______ _______ _______ _____ _____    ______ ____
ROOT
ATOM      9  C   UNL     1      15.829   6.885  19.801  0.00  0.00    -0.017 A 
ATOM     14  C   UNL     1      16.381   7.287  21.018  0.00  0.00    +0.008 A 
ATOM     15  C   UNL     1      16.582   6.115  18.914  0.00  0.00    +0.008 A 
ATOM     18  C   UNL     1      18.437   6.146  20.462  0.00  0.00    +0.033 A 
ATOM     20  C   UNL     1      17.684   6.916  21.348  0.00  0.00    +0.023 A 
ATOM     21  C   UNL     1      17.886   5.745  19.244  0.00  0.00    +0.023 A 
ENDROOT
BRANCH   9   7
ATOM      1  O   UNL     1      13.529   6.598  20.333  0.00  0.00    -0.361 OA
ATOM      3  O   UNL     1      10.527   8.458  19.710  0.00  0.00    -0.273 OA
ATOM      5  N   UNL     1      12.719   9.068  19.418  0.00  0.00    -0.306 N 
ATOM      7  C   UNL     1      14.415   7.285  19.442  0.00  0.00    +0.171 C 
ATOM      8  CA  UNL     1      14.144   8.791  19.584  0.00  0.00    +0.131 C 
ATOM     12  C   UNL     1      12.181   6.737  19.934  0.00  0.00    +0.256 C 
ATOM     13  C   UNL     1      11.721   8.163  19.703  0.00  0.00    +0.239 C 
ATOM     24  H   UNL     1      12.441  10.032  19.256  0.00  0.00    +0.149 HD
BRANCH   8  10
ATOM     10  C   UNL     1      14.951   9.629  18.596  0.00  0.00    +0.181 C 
BRANCH  10   2
ATOM      2  O   UNL     1      14.461   9.381  17.292  0.00  0.00    -0.393 OA
ATOM     26  H   UNL     1      15.147   8.884  16.816  0.00  0.00    +0.209 HD
ENDBRANCH  10   2
ENDBRANCH   8  10
ENDBRANCH   9   7
BRANCH  18   6
ATOM      4  O   UNL     1      20.909   7.815  20.754  0.00  0.00    -0.275 OA
ATOM      6  N   UNL     1      19.759   5.771  20.797  0.00  0.00    -0.285 N 
ATOM     19  C   UNL     1      20.874   6.599  20.911  0.00  0.00    +0.220 C 
ATOM     25  H   UNL     1      19.883   4.777  20.966  0.00  0.00    +0.155 HD
BRANCH  19  11
ATOM     11  C   UNL     1      22.129   5.800  21.295  0.00  0.00    +0.075 C 
BRANCH  11  16
ATOM     16  C   UNL     1      23.374   6.413  20.623  0.00  0.00    +0.009 C 
ATOM     22  C   UNL     1      24.520   5.437  20.390  0.00  0.00    +0.004 C 
ENDBRANCH  11  16
BRANCH  11  17
ATOM     17  C   UNL     1      21.986   4.300  20.982  0.00  0.00    +0.009 C 
ATOM     23  C   UNL     1      22.088   3.434  22.232  0.00  0.00    +0.004 C 
ENDBRANCH  11  17
ENDBRANCH  19  11
ENDBRANCH  18   6
TORSDOF 7
ENDMDL
MODEL 6
REMARK VINA RESULT:      -5.9     15.235     18.980
REMARK  Name = 71693234
REMARK  9 active torsions:
REMARK  status: ('A' for Active; 'I' for Inactive)
REMARK    1  A    between atoms: O_2  and  C_10
REMARK    2  A    between atoms: N_6  and  C_18
REMARK    3  A    between atoms: C_7  and  C_9
REMARK    4  A    between atoms: CA_8  and  C_10
REMARK    5  A    between atoms: C_11  and  C_16
REMARK    6  A    between atoms: C_11  and  C_17
REMARK    7  A    between atoms: C_11  and  C_19
REMARK    8  A    between atoms: C_16  and  C_22
REMARK    9  A    between atoms: C_17  and  C_23
REMARK                            x       y       z     vdW  Elec       q    Type
REMARK                         _______ _______ _______ _____ _____    ______ ____
ROOT
ATOM      9  C   UNL     1      11.646   5.131   1.969  0.00  0.00    -0.017 A 
ATOM     14  C   UNL     1      11.136   4.044   2.679  0.00  0.00    +0.008 A 
ATOM     15  C   UNL     1      11.692   6.392   2.563  0.00  0.00    +0.008 A 
ATOM     18  C   UNL     1      10.719   5.479   4.577  0.00  0.00    +0.033 A 
ATOM     20  C   UNL     1      10.673   4.218   3.983  0.00  0.00    +0.023 A 
ATOM     21  C   UNL     1      11.228   6.567   3.867  0.00  0.00    +0.023 A 
ENDROOT
BRANCH   9   7
ATOM      1  O   UNL     1      13.143   3.913   0.581  0.00  0.00    -0.361 OA
ATOM      3  O   UNL     1      13.373   3.245  -2.936  0.00  0.00    -0.273 OA
ATOM      5  N   UNL     1      11.652   4.160  -1.724  0.00  0.00    -0.306 N 
ATOM      7  C   UNL     1      12.150   4.944   0.555  0.00  0.00    +0.171 C 
ATOM      8  CA  UNL     1      11.058   4.514  -0.438  0.00  0.00    +0.131 C 
ATOM     12  C   UNL     1      13.826   3.820  -0.653  0.00  0.00    +0.256 C 
ATOM     13  C   UNL     1      12.937   3.687  -1.874  0.00  0.00    +0.239 C 
ATOM     24  H   UNL     1      11.033   4.087  -2.526  0.00  0.00    +0.149 HD
BRANCH   8  10
ATOM     10  C   UNL     1       9.993   5.590  -0.640  0.00  0.00    +0.181 C 
BRANCH  10   2
ATOM      2  O   UNL     1       8.982   5.069  -1.482  0.00  0.00    -0.393 OA
ATOM     26  H   UNL     1       9.125   5.443  -2.368  0.00  0.00    +0.209 HD
ENDBRANCH  10   2
ENDBRANCH   8  10
ENDBRANCH   9   7
BRANCH  18   6
ATOM      4  O   UNL     1      12.143   6.456   7.026  0.00  0.00    -0.275 OA
ATOM      6  N   UNL     1      10.248   5.655   5.900  0.00  0.00    -0.285 N 
ATOM     19  C   UNL     1      10.966   6.109   7.004  0.00  0.00    +0.220 C 
ATOM     25  H   UNL     1       9.271   5.410   6.033  0.00  0.00    +0.155 HD
BRANCH  19  11
ATOM     11  C   UNL     1      10.088   6.158   8.263  0.00  0.00    +0.075 C 
BRANCH  11  16
ATOM     16  C   UNL     1       9.688   4.731   8.687  0.00  0.00    +0.009 C 
ATOM     22  C   UNL     1       9.021   4.634  10.053  0.00  0.00    +0.004 C 
ENDBRANCH  11  16
BRANCH  11  17
ATOM     17  C   UNL     1       8.861   7.071   8.085  0.00  0.00    +0.009 C 
ATOM     23  C   UNL     1       9.246   8.539   7.937  0.00  0.00    +0.004 C 
ENDBRANCH  11  17
ENDBRANCH  19  11
ENDBRANCH  18   6
TORSDOF 7
ENDMDL
MODEL 7
REMARK VINA RESULT:      -5.8      4.768      8.299
REMARK  Name = 71693234
REMARK  9 active torsions:
REMARK  status: ('A' for Active; 'I' for Inactive)
REMARK    1  A    between atoms: O_2  and  C_10
REMARK    2  A    between atoms: N_6  and  C_18
REMARK    3  A    between atoms: C_7  and  C_9
REMARK    4  A    between atoms: CA_8  and  C_10
REMARK    5  A    between atoms: C_11  and  C_16
REMARK    6  A    between atoms: C_11  and  C_17
REMARK    7  A    between atoms: C_11  and  C_19
REMARK    8  A    between atoms: C_16  and  C_22
REMARK    9  A    between atoms: C_17  and  C_23
REMARK                            x       y       z     vdW  Elec       q    Type
REMARK                         _______ _______ _______ _____ _____    ______ ____
ROOT
ATOM      9  C   UNL     1      13.004   9.158  18.432  0.00  0.00    -0.017 A 
ATOM     14  C   UNL     1      12.830   8.629  17.152  0.00  0.00    +0.008 A 
ATOM     15  C   UNL     1      13.528  10.441  18.590  0.00  0.00    +0.008 A 
ATOM     18  C   UNL     1      13.703  10.666  16.191  0.00  0.00    +0.033 A 
ATOM     20  C   UNL     1      13.179   9.384  16.033  0.00  0.00    +0.023 A 
ATOM     21  C   UNL     1      13.877  11.196  17.470  0.00  0.00    +0.023 A 
ENDROOT
BRANCH   9   7
ATOM      1  O   UNL     1      11.196   8.253  19.683  0.00  0.00    -0.361 OA
ATOM      3  O   UNL     1      10.840   5.619  22.091  0.00  0.00    -0.273 OA
ATOM      5  N   UNL     1      12.609   6.126  20.720  0.00  0.00    -0.306 N 
ATOM      7  C   UNL     1      12.625   8.341  19.647  0.00  0.00    +0.171 C 
ATOM      8  CA  UNL     1      13.179   6.907  19.626  0.00  0.00    +0.131 C 
ATOM     12  C   UNL     1      10.741   7.697  20.900  0.00  0.00    +0.256 C 
ATOM     13  C   UNL     1      11.376   6.375  21.282  0.00  0.00    +0.239 C 
ATOM     24  H   UNL     1      13.061   5.249  20.959  0.00  0.00    +0.149 HD
BRANCH   8  10
ATOM     10  C   UNL     1      14.704   6.867  19.702  0.00  0.00    +0.181 C 
BRANCH  10   2
ATOM      2  O   UNL     1      15.077   6.059  20.802  0.00  0.00    -0.393 OA
ATOM     26  H   UNL     1      16.021   6.218  20.968  0.00  0.00    +0.209 HD
ENDBRANCH  10   2
ENDBRANCH   8  10
ENDBRANCH   9   7
BRANCH  18   6
ATOM      4  O   UNL     1      16.401  11.352  15.082  0.00  0.00    -0.275 OA
ATOM      6  N   UNL     1      14.057  11.431  15.055  0.00  0.00    -0.285 N 
ATOM     19  C   UNL     1      15.338  11.722  14.592  0.00  0.00    +0.220 C 
ATOM     25  H   UNL     1      13.266  11.803  14.536  0.00  0.00    +0.155 HD
BRANCH  19  11
ATOM     11  C   UNL     1      15.294  12.584  13.321  0.00  0.00    +0.075 C 
BRANCH  11  16
ATOM     16  C   UNL     1      13.843  13.006  13.017  0.00  0.00    +0.009 C 
ATOM     22  C   UNL     1      13.335  12.597  11.639  0.00  0.00    +0.004 C 
ENDBRANCH  11  16
BRANCH  11  17
ATOM     17  C   UNL     1      15.956  11.887  12.119  0.00  0.00    +0.009 C 
ATOM     23  C   UNL     1      17.199  12.624  11.633  0.00  0.00    +0.004 C 
ENDBRANCH  11  17
ENDBRANCH  19  11
ENDBRANCH  18   6
TORSDOF 7
ENDMDL
MODEL 8
REMARK VINA RESULT:      -5.7     15.687     19.427
REMARK  Name = 71693234
REMARK  9 active torsions:
REMARK  status: ('A' for Active; 'I' for Inactive)
REMARK    1  A    between atoms: O_2  and  C_10
REMARK    2  A    between atoms: N_6  and  C_18
REMARK    3  A    between atoms: C_7  and  C_9
REMARK    4  A    between atoms: CA_8  and  C_10
REMARK    5  A    between atoms: C_11  and  C_16
REMARK    6  A    between atoms: C_11  and  C_17
REMARK    7  A    between atoms: C_11  and  C_19
REMARK    8  A    between atoms: C_16  and  C_22
REMARK    9  A    between atoms: C_17  and  C_23
REMARK                            x       y       z     vdW  Elec       q    Type
REMARK                         _______ _______ _______ _____ _____    ______ ____
ROOT
ATOM      9  C   UNL     1      10.560   5.092   1.357  0.00  0.00    -0.017 A 
ATOM     14  C   UNL     1       9.957   6.261   1.822  0.00  0.00    +0.008 A 
ATOM     15  C   UNL     1      10.941   4.098   2.258  0.00  0.00    +0.008 A 
ATOM     18  C   UNL     1      10.113   5.440   4.088  0.00  0.00    +0.033 A 
ATOM     20  C   UNL     1       9.733   6.434   3.188  0.00  0.00    +0.023 A 
ATOM     21  C   UNL     1      10.718   4.271   3.624  0.00  0.00    +0.023 A 
ENDROOT
BRANCH   9   7
ATOM      1  O   UNL     1       9.576   5.191  -0.806  0.00  0.00    -0.361 OA
ATOM      3  O   UNL     1      10.827   5.464  -4.156  0.00  0.00    -0.273 OA
ATOM      5  N   UNL     1      11.917   5.735  -2.155  0.00  0.00    -0.306 N 
ATOM      7  C   UNL     1      10.802   4.903  -0.125  0.00  0.00    +0.171 C 
ATOM      8  CA  UNL     1      11.883   5.834  -0.698  0.00  0.00    +0.131 C 
ATOM     12  C   UNL     1       9.643   4.829  -2.170  0.00  0.00    +0.256 C 
ATOM     13  C   UNL     1      10.830   5.391  -2.928  0.00  0.00    +0.239 C 
ATOM     24  H   UNL     1      12.729   6.112  -2.635  0.00  0.00    +0.149 HD
BRANCH   8  10
ATOM     10  C   UNL     1      13.270   5.542  -0.129  0.00  0.00    +0.181 C 
BRANCH  10   2
ATOM      2  O   UNL     1      13.593   4.192  -0.402  0.00  0.00    -0.393 OA
ATOM     26  H   UNL     1      12.927   3.858  -1.027  0.00  0.00    +0.209 HD
ENDBRANCH  10   2
ENDBRANCH   8  10
ENDBRANCH   9   7
BRANCH  18   6
ATOM      4  O   UNL     1      11.935   6.469   6.235  0.00  0.00    -0.275 OA
ATOM      6  N   UNL     1       9.887   5.616   5.474  0.00  0.00    -0.285 N 
ATOM     19  C   UNL     1      10.782   6.095   6.427  0.00  0.00    +0.220 C 
ATOM     25  H   UNL     1       8.956   5.351   5.784  0.00  0.00    +0.155 HD
BRANCH  19  11
ATOM     11  C   UNL     1      10.146   6.135   7.825  0.00  0.00    +0.075 C 
BRANCH  11  16
ATOM     16  C   UNL     1       9.825   4.704   8.303  0.00  0.00    +0.009 C 
ATOM     22  C   UNL     1       9.221   4.618   9.699  0.00  0.00    +0.004 C 
ENDBRANCH  11  16
BRANCH  11  17
ATOM     17  C   UNL     1       8.910   7.050   7.878  0.00  0.00    +0.009 C 
ATOM     23  C   UNL     1       9.284   8.525   7.975  0.00  0.00    +0.004 C 
ENDBRANCH  11  17
ENDBRANCH  19  11
ENDBRANCH  18   6
TORSDOF 7
ENDMDL
MODEL 9
REMARK VINA RESULT:      -5.7     23.905     28.092
REMARK  Name = 71693234
REMARK  9 active torsions:
REMARK  status: ('A' for Active; 'I' for Inactive)
REMARK    1  A    between atoms: O_2  and  C_10
REMARK    2  A    between atoms: N_6  and  C_18
REMARK    3  A    between atoms: C_7  and  C_9
REMARK    4  A    between atoms: CA_8  and  C_10
REMARK    5  A    between atoms: C_11  and  C_16
REMARK    6  A    between atoms: C_11  and  C_17
REMARK    7  A    between atoms: C_11  and  C_19
REMARK    8  A    between atoms: C_16  and  C_22
REMARK    9  A    between atoms: C_17  and  C_23
REMARK                            x       y       z     vdW  Elec       q    Type
REMARK                         _______ _______ _______ _____ _____    ______ ____
ROOT
ATOM      9  C   UNL     1      -3.884   8.147   4.827  0.00  0.00    -0.017 A 
ATOM     14  C   UNL     1      -4.969   8.793   4.233  0.00  0.00    +0.008 A 
ATOM     15  C   UNL     1      -3.999   6.816   5.228  0.00  0.00    +0.008 A 
ATOM     18  C   UNL     1      -6.283   6.777   4.441  0.00  0.00    +0.033 A 
ATOM     20  C   UNL     1      -6.168   8.108   4.040  0.00  0.00    +0.023 A 
ATOM     21  C   UNL     1      -5.198   6.131   5.035  0.00  0.00    +0.023 A 
ENDROOT
BRANCH   9   7
ATOM      1  O   UNL     1      -2.112   9.312   3.751  0.00  0.00    -0.361 OA
ATOM      3  O   UNL     1       0.383  11.668   4.796  0.00  0.00    -0.273 OA
ATOM      5  N   UNL     1      -1.477  10.909   5.906  0.00  0.00    -0.306 N 
ATOM      7  C   UNL     1      -2.583   8.890   5.036  0.00  0.00    +0.171 C 
ATOM      8  CA  UNL     1      -2.720  10.142   5.917  0.00  0.00    +0.131 C 
ATOM     12  C   UNL     1      -0.795   9.821   3.822  0.00  0.00    +0.256 C 
ATOM     13  C   UNL     1      -0.577  10.901   4.863  0.00  0.00    +0.239 C 
ATOM     24  H   UNL     1      -1.355  11.621   6.621  0.00  0.00    +0.149 HD
BRANCH   8  10
ATOM     10  C   UNL     1      -3.107   9.808   7.355  0.00  0.00    +0.181 C 
BRANCH  10   2
ATOM      2  O   UNL     1      -2.790  10.916   8.175  0.00  0.00    -0.393 OA
ATOM     26  H   UNL     1      -2.841  11.710   7.617  0.00  0.00    +0.209 HD
ENDBRANCH  10   2
ENDBRANCH   8  10
ENDBRANCH   9   7
BRANCH  18   6
ATOM      4  O   UNL     1      -8.468   6.111   6.382  0.00  0.00    -0.275 OA
ATOM      6  N   UNL     1      -7.500   6.082   4.245  0.00  0.00    -0.285 N 
ATOM     19  C   UNL     1      -8.478   5.796   5.195  0.00  0.00    +0.220 C 
ATOM     25  H   UNL     1      -7.651   5.762   3.293  0.00  0.00    +0.155 HD
BRANCH  19  11
ATOM     11  C   UNL     1      -9.652   5.021   4.578  0.00  0.00    +0.075 C 
BRANCH  11  16
ATOM     16  C   UNL     1      -9.266   4.502   3.178  0.00  0.00    +0.009 C 
ATOM     22  C   UNL     1     -10.052   5.122   2.029  0.00  0.00    +0.004 C 
ENDBRANCH  11  16
BRANCH  11  17
ATOM     17  C   UNL     1     -10.947   5.851   4.547  0.00  0.00    +0.009 C 
ATOM     23  C   UNL     1     -12.149   5.070   5.069  0.00  0.00    +0.004 C 
ENDBRANCH  11  17
ENDBRANCH  19  11
ENDBRANCH  18   6
TORSDOF 7
ENDMDL
MODEL 10
REMARK VINA RESULT:      -5.7      2.280      8.515
REMARK  Name = 71693234
REMARK  9 active torsions:
REMARK  status: ('A' for Active; 'I' for Inactive)
REMARK    1  A    between atoms: O_2  and  C_10
REMARK    2  A    between atoms: N_6  and  C_18
REMARK    3  A    between atoms: C_7  and  C_9
REMARK    4  A    between atoms: CA_8  and  C_10
REMARK    5  A    between atoms: C_11  and  C_16
REMARK    6  A    between atoms: C_11  and  C_17
REMARK    7  A    between atoms: C_11  and  C_19
REMARK    8  A    between atoms: C_16  and  C_22
REMARK    9  A    between atoms: C_17  and  C_23
REMARK                            x       y       z     vdW  Elec       q    Type
REMARK                         _______ _______ _______ _____ _____    ______ ____
ROOT
ATOM      9  C   UNL     1      19.381   5.916  20.550  0.00  0.00    -0.017 A 
ATOM     14  C   UNL     1      18.792   6.996  21.210  0.00  0.00    +0.008 A 
ATOM     15  C   UNL     1      18.736   5.328  19.463  0.00  0.00    +0.008 A 
ATOM     18  C   UNL     1      16.915   6.898  19.693  0.00  0.00    +0.033 A 
ATOM     20  C   UNL     1      17.559   7.487  20.780  0.00  0.00    +0.023 A 
ATOM     21  C   UNL     1      17.503   5.818  19.034  0.00  0.00    +0.023 A 
ENDROOT
BRANCH   9   7
ATOM      1  O   UNL     1      20.741   3.976  20.752  0.00  0.00    -0.361 OA
ATOM      3  O   UNL     1      24.250   3.366  21.173  0.00  0.00    -0.273 OA
ATOM      5  N   UNL     1      23.150   5.310  20.646  0.00  0.00    -0.306 N 
ATOM      7  C   UNL     1      20.718   5.383  21.015  0.00  0.00    +0.171 C 
ATOM      8  CA  UNL     1      21.920   6.012  20.291  0.00  0.00    +0.131 C 
ATOM     12  C   UNL     1      21.859   3.354  21.351  0.00  0.00    +0.256 C 
ATOM     13  C   UNL     1      23.199   3.988  21.030  0.00  0.00    +0.239 C 
ATOM     24  H   UNL     1      24.033   5.764  20.426  0.00  0.00    +0.149 HD
BRANCH   8  10
ATOM     10  C   UNL     1      22.071   7.502  20.591  0.00  0.00    +0.181 C 
BRANCH  10   2
ATOM      2  O   UNL     1      22.594   7.646  21.898  0.00  0.00    -0.393 OA
ATOM     26  H   UNL     1      21.838   7.658  22.510  0.00  0.00    +0.209 HD
ENDBRANCH  10   2
ENDBRANCH   8  10
ENDBRANCH   9   7
BRANCH  18   6
ATOM      4  O   UNL     1      14.217   6.763  20.992  0.00  0.00    -0.275 OA
ATOM      6  N   UNL     1      15.664   7.396  19.258  0.00  0.00    -0.285 N 
ATOM     19  C   UNL     1      14.436   7.295  19.908  0.00  0.00    +0.220 C 
ATOM     25  H   UNL     1      15.692   7.876  18.362  0.00  0.00    +0.155 HD
BRANCH  19  11
ATOM     11  C   UNL     1      13.316   7.970  19.102  0.00  0.00    +0.075 C 
BRANCH  11  16
ATOM     16  C   UNL     1      13.912   8.730  17.900  0.00  0.00    +0.009 C 
ATOM     22  C   UNL     1      13.766  10.245  17.967  0.00  0.00    +0.004 C 
ENDBRANCH  11  16
BRANCH  11  17
ATOM     17  C   UNL     1      12.433   8.878  19.976  0.00  0.00    +0.009 C 
ATOM     23  C   UNL     1      10.957   8.503  19.896  0.00  0.00    +0.004 C 
ENDBRANCH  11  17
ENDBRANCH  19  11
ENDBRANCH  18   6
TORSDOF 7
ENDMDL
