REMARK  Name = 71694334
REMARK  5 active torsions:
REMARK  status: ('A' for Active; 'I' for Inactive)
REMARK    1  A    between atoms: N_7  and  C_24
REMARK    2  A    between atoms: N_9  and  C_26
REMARK    3  A    between atoms: C_10  and  C_15
REMARK    4  A    between atoms: C_15  and  C_18
REMARK    5  A    between atoms: C_24  and  C_32
REMARK                            x       y       z     vdW  Elec       q    Type
REMARK                         _______ _______ _______ _____ _____    ______ ____
ROOT
ATOM      2  O   UNL     1      -1.155  -4.711  -0.974  0.00  0.00    -0.274 OA
ATOM      4  O   UNL     1      -0.932   0.463   0.183  0.00  0.00    -0.488 OA
ATOM      6  N   UNL     1       0.757  -3.411  -0.877  0.00  0.00    -0.300 N 
ATOM      8  N   UNL     1      -1.650  -1.547  -1.794  0.00  0.00    -0.304 NA
ATOM     10  C   UNL     1       2.167  -2.181   1.358  0.00  0.00    +0.008 C 
ATOM     11  C   UNL     1       1.471  -1.363   0.230  0.00  0.00    +0.032 C 
ATOM     12  C   UNL     1       1.497  -3.571   1.463  0.00  0.00    +0.023 C 
ATOM     13  C   UNL     1       1.473  -2.149  -1.096  0.00  0.00    +0.115 C 
ATOM     14  C   UNL     1       1.397  -4.283   0.111  0.00  0.00    +0.108 C 
ATOM     16  C   UNL     1       2.025   0.024   0.043  0.00  0.00    -0.023 C 
ATOM     17  C   UNL     1      -0.523  -3.713  -1.340  0.00  0.00    +0.229 C 
ATOM     19  C   UNL     1       1.392   1.205   0.148  0.00  0.00    +0.010 C 
ATOM     20  C   UNL     1      -1.161  -2.798  -2.369  0.00  0.00    +0.178 C 
ATOM     21  C   UNL     1      -0.049   1.552   0.425  0.00  0.00    +0.256 C 
ATOM     22  C   UNL     1      -2.551  -1.700  -0.654  0.00  0.00    +0.120 C 
ATOM     23  C   UNL     1      -3.115  -0.365  -0.197  0.00  0.00    +0.010 A 
ATOM     25  C   UNL     1      -2.283   0.697   0.229  0.00  0.00    +0.125 A 
ATOM     26  C   UNL     1      -5.070   1.008   0.259  0.00  0.00    +0.030 A 
ATOM     27  C   UNL     1      -4.508  -0.191  -0.174  0.00  0.00    +0.031 A 
ATOM     30  C   UNL     1      -2.859   1.894   0.668  0.00  0.00    +0.048 A 
ATOM     31  C   UNL     1      -4.247   2.048   0.680  0.00  0.00    +0.027 A 
ATOM     41  H   UNL     1      -2.118  -1.016  -2.529  0.00  0.00    +0.123 HD
ENDROOT
BRANCH  26   9
ATOM      5  O   UNL     1      -9.214   1.712   0.151  0.00  0.00    -0.377 OA
ATOM      9  N   UNL     1      -6.460   1.166   0.274  0.00  0.00    -0.326 N 
ATOM     28  C   UNL     1      -7.185   1.041  -0.997  0.00  0.00    +0.133 C 
ATOM     29  C   UNL     1      -7.085   2.046   1.267  0.00  0.00    +0.133 C 
ATOM     33  C   UNL     1      -8.653   0.733  -0.724  0.00  0.00    +0.178 C 
ATOM     34  C   UNL     1      -8.559   1.685   1.419  0.00  0.00    +0.178 C 
ENDBRANCH  26   9
BRANCH  10  15
ATOM     15  C   UNL     1       3.686  -2.326   1.199  0.00  0.00    +0.100 C 
BRANCH  15  18
ATOM      3  O   UNL     1       4.013  -0.331   2.528  0.00  0.00    -0.276 OA
ATOM      7  N   UNL     1       5.611  -0.932   0.951  0.00  0.00    -0.311 N 
ATOM     18  C   UNL     1       4.425  -1.088   1.653  0.00  0.00    +0.214 C 
ATOM     40  H   UNL     1       5.864  -1.608   0.236  0.00  0.00    +0.149 HD
BRANCH   7  24
ATOM     24  C   UNL     1       6.521   0.168   1.174  0.00  0.00    +0.139 C 
BRANCH  24  32
ATOM      1  F   UNL     1       5.340   4.583  -2.114  0.00  0.00    -0.205 F 
ATOM     32  C   UNL     1       6.206   1.345   0.298  0.00  0.00    -0.030 A 
ATOM     35  C   UNL     1       6.797   1.455  -0.961  0.00  0.00    +0.008 A 
ATOM     36  C   UNL     1       5.323   2.329   0.742  0.00  0.00    +0.008 A 
ATOM     37  C   UNL     1       6.504   2.549  -1.776  0.00  0.00    +0.038 A 
ATOM     38  C   UNL     1       5.031   3.423  -0.073  0.00  0.00    +0.038 A 
ATOM     39  C   UNL     1       5.621   3.533  -1.332  0.00  0.00    +0.123 A 
ENDBRANCH  24  32
ENDBRANCH   7  24
ENDBRANCH  15  18
ENDBRANCH  10  15
TORSDOF 5
