REMARK  Name = 7142422
REMARK  3 active torsions:
REMARK  status: ('A' for Active; 'I' for Inactive)
REMARK    1  A    between atoms: C_18  and  C_22
REMARK    2  A    between atoms: C_21  and  C_24
REMARK    3  A    between atoms: C_31  and  C_35
REMARK                            x       y       z     vdW  Elec       q    Type
REMARK                         _______ _______ _______ _____ _____    ______ ____
ROOT
ATOM      4  O   UNL     1       2.888  -2.461   0.477  0.00  0.00    -0.273 OA
ATOM      5  O   UNL     1      -0.371   1.073  -1.719  0.00  0.00    -0.270 OA
ATOM      6  O   UNL     1       5.532  -0.068   2.412  0.00  0.00    -0.270 OA
ATOM      7  N   UNL     1       1.270   0.308  -0.280  0.00  0.00    -0.283 N 
ATOM      8  N   UNL     1       3.999   0.319   0.721  0.00  0.00    -0.294 N 
ATOM      9  N   UNL     1       0.647  -2.561   0.084  0.00  0.00    -0.283 N 
ATOM     10  C   UNL     1       1.621  -0.452   0.911  0.00  0.00    +0.180 C 
ATOM     11  C   UNL     1       2.863   0.099   1.621  0.00  0.00    +0.140 C 
ATOM     12  C   UNL     1       2.270   1.244  -0.797  0.00  0.00    +0.128 C 
ATOM     13  C   UNL     1       3.681   0.691  -0.663  0.00  0.00    +0.127 C 
ATOM     14  C   UNL     1       1.795  -1.890   0.449  0.00  0.00    +0.239 C 
ATOM     15  C   UNL     1      -0.006   0.298  -0.833  0.00  0.00    +0.249 C 
ATOM     16  C   UNL     1      -0.987  -0.717  -0.363  0.00  0.00    +0.059 A 
ATOM     17  C   UNL     1      -0.659  -2.046  -0.047  0.00  0.00    +0.046 A 
ATOM     18  C   UNL     1       5.307   0.248   1.242  0.00  0.00    +0.247 C 
ATOM     19  C   UNL     1      -2.340  -0.336  -0.421  0.00  0.00    +0.023 A 
ATOM     20  C   UNL     1      -1.697  -2.978   0.133  0.00  0.00    +0.024 A 
ATOM     21  C   UNL     1      -3.356  -1.262  -0.192  0.00  0.00    -0.017 A 
ATOM     23  C   UNL     1      -3.035  -2.587   0.072  0.00  0.00    +0.010 A 
ATOM     36  H   UNL     1       0.741  -3.570  -0.007  0.00  0.00    +0.155 HD
ENDROOT
BRANCH  18  22
ATOM     22  C   UNL     1       6.407   0.578   0.340  0.00  0.00    +0.037 A 
ATOM     25  C   UNL     1       6.857   1.892   0.249  0.00  0.00    +0.013 A 
ATOM     26  C   UNL     1       7.000  -0.424  -0.423  0.00  0.00    +0.013 A 
ATOM     29  C   UNL     1       7.908   2.207  -0.612  0.00  0.00    +0.001 A 
ATOM     30  C   UNL     1       8.051  -0.109  -1.284  0.00  0.00    +0.001 A 
ATOM     32  C   UNL     1       8.505   1.206  -1.379  0.00  0.00    +0.000 A 
ENDBRANCH  18  22
BRANCH  21  24
ATOM     24  C   UNL     1      -4.741  -0.850  -0.252  0.00  0.00    -0.017 A 
ATOM     27  C   UNL     1      -5.099   0.449   0.108  0.00  0.00    +0.021 A 
ATOM     28  C   UNL     1      -5.720  -1.753  -0.669  0.00  0.00    +0.008 A 
ATOM     31  C   UNL     1      -6.435   0.846   0.051  0.00  0.00    +0.055 A 
ATOM     33  C   UNL     1      -7.056  -1.357  -0.726  0.00  0.00    +0.001 A 
ATOM     34  C   UNL     1      -7.414  -0.057  -0.366  0.00  0.00    +0.012 A 
BRANCH  31  35
ATOM      1  F   UNL     1      -6.497   2.553   1.725  0.00  0.00    -0.166 F 
ATOM      2  F   UNL     1      -8.158   2.481   0.332  0.00  0.00    -0.166 F 
ATOM      3  F   UNL     1      -6.211   3.181  -0.338  0.00  0.00    -0.166 F 
ATOM     35  C   UNL     1      -6.819   2.235   0.436  0.00  0.00    +0.417 C 
ENDBRANCH  31  35
ENDBRANCH  21  24
TORSDOF 3
