MODEL 1
REMARK VINA RESULT:      -6.5      0.000      0.000
REMARK  Name = 38029461
REMARK  11 active torsions:
REMARK  status: ('A' for Active; 'I' for Inactive)
REMARK    1  A    between atoms: N_3  and  C_14
REMARK    2  A    between atoms: N_5  and  C_22
REMARK    3  A    between atoms: C_7  and  C_11
REMARK    4  A    between atoms: C_8  and  C_14
REMARK    5  A    between atoms: C_10  and  C_15
REMARK    6  A    between atoms: C_11  and  C_16
REMARK    7  A    between atoms: C_11  and  C_17
REMARK    8  A    between atoms: C_12  and  C_18
REMARK    9  A    between atoms: C_15  and  C_19
REMARK   10  A    between atoms: C_22  and  C_23
REMARK   11  A    between atoms: C_22  and  C_24
REMARK                            x       y       z     vdW  Elec       q    Type
REMARK                         _______ _______ _______ _____ _____    ______ ____
ROOT
ATOM      7  C   UNL     1     -15.200   1.567  30.178  0.00  0.00    +0.000 C 
ATOM      8  C   UNL     1     -16.350   1.976  29.223  0.00  0.00    +0.032 C 
ATOM      9  C   UNL     1     -15.475   2.081  31.600  0.00  0.00    +0.012 C 
ATOM     10  C   UNL     1     -15.626   3.613  31.646  0.00  0.00    +0.023 C 
ATOM     12  C   UNL     1     -16.545   4.121  30.554  0.00  0.00    -0.073 C 
ATOM     13  C   UNL     1     -16.868   3.370  29.486  0.00  0.00    -0.022 C 
ATOM     18  C   UNL     1     -17.122   5.497  30.739  0.00  0.00    +0.039 C 
ENDROOT
BRANCH   7  11
ATOM     11  C   UNL     1     -14.996   0.049  30.206  0.00  0.00    -0.013 C 
ATOM     16  C   UNL     1     -15.191  -0.488  31.620  0.00  0.00    +0.007 C 
ATOM     17  C   UNL     1     -13.612  -0.313  29.675  0.00  0.00    +0.007 C 
ENDBRANCH   7  11
BRANCH   8  14
ATOM     14  C   UNL     1     -15.919   1.857  27.757  0.00  0.00    +0.113 C 
BRANCH  14   3
ATOM      2  O   UNL     1     -15.905   2.358  24.916  0.00  0.00    -0.253 OA
ATOM      3  N   UNL     1     -15.974   3.129  27.108  0.00  0.00    -0.299 N 
ATOM      5  N   UNL     1     -16.025   4.633  25.352  0.00  0.00    -0.297 N 
ATOM     20  C   UNL     1     -15.962   3.291  25.716  0.00  0.00    +0.300 C 
ATOM     29  H   UNL     1     -16.093   3.959  27.678  0.00  0.00    +0.150 HD
ATOM     31  H   UNL     1     -16.144   5.327  26.085  0.00  0.00    +0.150 HD
BRANCH   5  22
ATOM     22  C   UNL     1     -16.027   5.072  23.977  0.00  0.00    +0.068 C 
ATOM     23  C   UNL     1     -14.600   5.233  23.469  0.00  0.00    +0.027 C 
ATOM     24  C   UNL     1     -16.815   6.368  23.831  0.00  0.00    +0.027 C 
ENDBRANCH   5  22
ENDBRANCH  14   3
ENDBRANCH   8  14
BRANCH  10  15
ATOM     15  C   UNL     1     -14.260   4.306  31.581  0.00  0.00    +0.104 C 
BRANCH  15  19
ATOM      1  O   UNL     1     -14.033   4.611  33.959  0.00  0.00    -0.275 OA
ATOM      4  N   UNL     1     -13.606   6.404  32.502  0.00  0.00    -0.270 N 
ATOM      6  N   UNL     1     -12.941   8.660  32.855  0.00  0.00    -0.240 NA
ATOM     19  C   UNL     1     -13.959   5.100  32.836  0.00  0.00    +0.219 C 
ATOM     21  C   UNL     1     -13.255   7.455  33.382  0.00  0.00    +0.125 A 
ATOM     25  C   UNL     1     -13.254   7.178  34.739  0.00  0.00    +0.044 A 
ATOM     26  C   UNL     1     -12.910   8.205  35.613  0.00  0.00    +0.005 A 
ATOM     27  C   UNL     1     -12.612   9.632  33.734  0.00  0.00    +0.113 A 
ATOM     28  C   UNL     1     -12.581   9.458  35.109  0.00  0.00    +0.020 A 
ATOM     30  H   UNL     1     -13.591   6.662  31.518  0.00  0.00    +0.156 HD
ENDBRANCH  15  19
ENDBRANCH  10  15
TORSDOF 6
ENDMDL
MODEL 2
REMARK VINA RESULT:      -6.5      4.986     10.173
REMARK  Name = 38029461
REMARK  11 active torsions:
REMARK  status: ('A' for Active; 'I' for Inactive)
REMARK    1  A    between atoms: N_3  and  C_14
REMARK    2  A    between atoms: N_5  and  C_22
REMARK    3  A    between atoms: C_7  and  C_11
REMARK    4  A    between atoms: C_8  and  C_14
REMARK    5  A    between atoms: C_10  and  C_15
REMARK    6  A    between atoms: C_11  and  C_16
REMARK    7  A    between atoms: C_11  and  C_17
REMARK    8  A    between atoms: C_12  and  C_18
REMARK    9  A    between atoms: C_15  and  C_19
REMARK   10  A    between atoms: C_22  and  C_23
REMARK   11  A    between atoms: C_22  and  C_24
REMARK                            x       y       z     vdW  Elec       q    Type
REMARK                         _______ _______ _______ _____ _____    ______ ____
ROOT
ATOM      7  C   UNL     1     -13.521   7.969  21.216  0.00  0.00    +0.000 C 
ATOM      8  C   UNL     1     -14.284   9.278  21.542  0.00  0.00    +0.032 C 
ATOM      9  C   UNL     1     -14.510   6.816  20.980  0.00  0.00    +0.012 C 
ATOM     10  C   UNL     1     -15.413   6.564  22.202  0.00  0.00    +0.023 C 
ATOM     12  C   UNL     1     -15.994   7.852  22.748  0.00  0.00    -0.073 C 
ATOM     13  C   UNL     1     -15.485   9.056  22.432  0.00  0.00    -0.022 C 
ATOM     18  C   UNL     1     -17.204   7.729  23.632  0.00  0.00    +0.039 C 
ENDROOT
BRANCH   7  11
ATOM     11  C   UNL     1     -12.611   8.130  19.995  0.00  0.00    -0.013 C 
ATOM     16  C   UNL     1     -13.426   8.037  18.709  0.00  0.00    +0.007 C 
ATOM     17  C   UNL     1     -11.506   7.078  20.013  0.00  0.00    +0.007 C 
ENDBRANCH   7  11
BRANCH   8  14
ATOM     14  C   UNL     1     -13.355  10.313  22.185  0.00  0.00    +0.113 C 
BRANCH  14   3
ATOM      2  O   UNL     1     -11.501  11.551  24.016  0.00  0.00    -0.253 OA
ATOM      3  N   UNL     1     -13.291  10.128  23.600  0.00  0.00    -0.299 N 
ATOM      5  N   UNL     1     -12.516  10.409  25.761  0.00  0.00    -0.297 N 
ATOM     20  C   UNL     1     -12.356  10.767  24.426  0.00  0.00    +0.300 C 
ATOM     29  H   UNL     1     -13.998   9.553  24.046  0.00  0.00    +0.150 HD
ATOM     31  H   UNL     1     -13.299   9.810  26.011  0.00  0.00    +0.150 HD
BRANCH   5  22
ATOM     22  C   UNL     1     -11.679  10.927  26.817  0.00  0.00    +0.068 C 
ATOM     23  C   UNL     1     -10.486  10.010  27.047  0.00  0.00    +0.027 C 
ATOM     24  C   UNL     1     -12.487  11.115  28.095  0.00  0.00    +0.027 C 
ENDBRANCH   5  22
ENDBRANCH  14   3
ENDBRANCH   8  14
BRANCH  10  15
ATOM     15  C   UNL     1     -14.663   5.794  23.294  0.00  0.00    +0.104 C 
BRANCH  15  19
ATOM      1  O   UNL     1     -15.713   3.693  22.758  0.00  0.00    -0.275 OA
ATOM      4  N   UNL     1     -15.416   4.314  25.004  0.00  0.00    -0.270 N 
ATOM      6  N   UNL     1     -15.960   3.259  27.065  0.00  0.00    -0.240 NA
ATOM     19  C   UNL     1     -15.328   4.472  23.624  0.00  0.00    +0.219 C 
ATOM     21  C   UNL     1     -15.970   3.222  25.714  0.00  0.00    +0.125 A 
ATOM     25  C   UNL     1     -16.490   2.176  24.970  0.00  0.00    +0.044 A 
ATOM     26  C   UNL     1     -17.036   1.097  25.658  0.00  0.00    +0.005 A 
ATOM     27  C   UNL     1     -16.499   2.194  27.699  0.00  0.00    +0.113 A 
ATOM     28  C   UNL     1     -17.045   1.098  27.048  0.00  0.00    +0.020 A 
ATOM     30  H   UNL     1     -15.049   5.054  25.598  0.00  0.00    +0.156 HD
ENDBRANCH  15  19
ENDBRANCH  10  15
TORSDOF 6
ENDMDL
MODEL 3
REMARK VINA RESULT:      -6.4     30.196     32.332
REMARK  Name = 38029461
REMARK  11 active torsions:
REMARK  status: ('A' for Active; 'I' for Inactive)
REMARK    1  A    between atoms: N_3  and  C_14
REMARK    2  A    between atoms: N_5  and  C_22
REMARK    3  A    between atoms: C_7  and  C_11
REMARK    4  A    between atoms: C_8  and  C_14
REMARK    5  A    between atoms: C_10  and  C_15
REMARK    6  A    between atoms: C_11  and  C_16
REMARK    7  A    between atoms: C_11  and  C_17
REMARK    8  A    between atoms: C_12  and  C_18
REMARK    9  A    between atoms: C_15  and  C_19
REMARK   10  A    between atoms: C_22  and  C_23
REMARK   11  A    between atoms: C_22  and  C_24
REMARK                            x       y       z     vdW  Elec       q    Type
REMARK                         _______ _______ _______ _____ _____    ______ ____
ROOT
ATOM      7  C   UNL     1      13.492   9.740  19.974  0.00  0.00    +0.000 C 
ATOM      8  C   UNL     1      11.981   9.763  20.318  0.00  0.00    +0.032 C 
ATOM      9  C   UNL     1      13.860   8.427  19.264  0.00  0.00    +0.012 C 
ATOM     10  C   UNL     1      13.536   7.190  20.123  0.00  0.00    +0.023 C 
ATOM     12  C   UNL     1      12.147   7.269  20.721  0.00  0.00    -0.073 C 
ATOM     13  C   UNL     1      11.462   8.424  20.788  0.00  0.00    -0.022 C 
ATOM     18  C   UNL     1      11.542   5.978  21.201  0.00  0.00    +0.039 C 
ENDROOT
BRANCH   7  11
ATOM     11  C   UNL     1      13.895  10.932  19.101  0.00  0.00    -0.013 C 
ATOM     16  C   UNL     1      14.008  10.507  17.641  0.00  0.00    +0.007 C 
ATOM     17  C   UNL     1      15.207  11.534  19.594  0.00  0.00    +0.007 C 
ENDBRANCH   7  11
BRANCH   8  14
ATOM     14  C   UNL     1      11.671  10.831  21.373  0.00  0.00    +0.113 C 
BRANCH  14   3
ATOM      2  O   UNL     1      13.266  12.826  22.713  0.00  0.00    -0.253 OA
ATOM      3  N   UNL     1      12.481  10.645  22.536  0.00  0.00    -0.299 N 
ATOM      5  N   UNL     1      13.927  11.216  24.248  0.00  0.00    -0.297 N 
ATOM     20  C   UNL     1      13.231  11.669  23.130  0.00  0.00    +0.300 C 
ATOM     29  H   UNL     1      12.467   9.742  22.998  0.00  0.00    +0.150 HD
ATOM     31  H   UNL     1      13.776  10.260  24.557  0.00  0.00    +0.150 HD
BRANCH   5  22
ATOM     22  C   UNL     1      14.776  12.073  25.042  0.00  0.00    +0.068 C 
ATOM     23  C   UNL     1      16.116  12.281  24.349  0.00  0.00    +0.027 C 
ATOM     24  C   UNL     1      14.960  11.495  26.440  0.00  0.00    +0.027 C 
ENDBRANCH   5  22
ENDBRANCH  14   3
ENDBRANCH   8  14
BRANCH  10  15
ATOM     15  C   UNL     1      14.593   6.983  21.214  0.00  0.00    +0.104 C 
BRANCH  15  19
ATOM      1  O   UNL     1      15.993   5.939  19.555  0.00  0.00    -0.275 OA
ATOM      4  N   UNL     1      16.940   6.739  21.550  0.00  0.00    -0.270 N 
ATOM      6  N   UNL     1      19.162   6.764  22.396  0.00  0.00    -0.240 NA
ATOM     19  C   UNL     1      15.909   6.483  20.651  0.00  0.00    +0.219 C 
ATOM     21  C   UNL     1      18.312   6.429  21.400  0.00  0.00    +0.125 A 
ATOM     25  C   UNL     1      18.699   5.797  20.230  0.00  0.00    +0.044 A 
ATOM     26  C   UNL     1      20.046   5.487  20.072  0.00  0.00    +0.005 A 
ATOM     27  C   UNL     1      20.463   6.447  22.208  0.00  0.00    +0.113 A 
ATOM     28  C   UNL     1      20.951   5.815  21.075  0.00  0.00    +0.020 A 
ATOM     30  H   UNL     1      16.711   7.202  22.427  0.00  0.00    +0.156 HD
ENDBRANCH  15  19
ENDBRANCH  10  15
TORSDOF 6
ENDMDL
MODEL 4
REMARK VINA RESULT:      -6.4     28.915     31.399
REMARK  Name = 38029461
REMARK  11 active torsions:
REMARK  status: ('A' for Active; 'I' for Inactive)
REMARK    1  A    between atoms: N_3  and  C_14
REMARK    2  A    between atoms: N_5  and  C_22
REMARK    3  A    between atoms: C_7  and  C_11
REMARK    4  A    between atoms: C_8  and  C_14
REMARK    5  A    between atoms: C_10  and  C_15
REMARK    6  A    between atoms: C_11  and  C_16
REMARK    7  A    between atoms: C_11  and  C_17
REMARK    8  A    between atoms: C_12  and  C_18
REMARK    9  A    between atoms: C_15  and  C_19
REMARK   10  A    between atoms: C_22  and  C_23
REMARK   11  A    between atoms: C_22  and  C_24
REMARK                            x       y       z     vdW  Elec       q    Type
REMARK                         _______ _______ _______ _____ _____    ______ ____
ROOT
ATOM      7  C   UNL     1      11.960  12.240  22.497  0.00  0.00    +0.000 C 
ATOM      8  C   UNL     1      10.823  11.573  23.312  0.00  0.00    +0.032 C 
ATOM      9  C   UNL     1      12.070  11.598  21.105  0.00  0.00    +0.012 C 
ATOM     10  C   UNL     1      12.347  10.085  21.181  0.00  0.00    +0.023 C 
ATOM     12  C   UNL     1      11.434   9.395  22.174  0.00  0.00    -0.073 C 
ATOM     13  C   UNL     1      10.750  10.077  23.110  0.00  0.00    -0.022 C 
ATOM     18  C   UNL     1      11.287   7.905  22.037  0.00  0.00    +0.039 C 
ENDROOT
BRANCH   7  11
ATOM     11  C   UNL     1      11.749  13.750  22.356  0.00  0.00    -0.013 C 
ATOM     16  C   UNL     1      10.841  14.052  21.169  0.00  0.00    +0.007 C 
ATOM     17  C   UNL     1      13.089  14.464  22.209  0.00  0.00    +0.007 C 
ENDBRANCH   7  11
BRANCH   8  14
ATOM     14  C   UNL     1      10.960  11.881  24.806  0.00  0.00    +0.113 C 
BRANCH  14   3
ATOM      2  O   UNL     1      13.339  13.253  25.693  0.00  0.00    -0.253 OA
ATOM      3  N   UNL     1      12.147  11.289  25.340  0.00  0.00    -0.299 N 
ATOM      5  N   UNL     1      14.280  11.202  26.229  0.00  0.00    -0.297 N 
ATOM     20  C   UNL     1      13.266  12.027  25.750  0.00  0.00    +0.300 C 
ATOM     29  H   UNL     1      12.162  10.286  25.492  0.00  0.00    +0.150 HD
ATOM     31  H   UNL     1      14.097  10.205  26.304  0.00  0.00    +0.150 HD
BRANCH   5  22
ATOM     22  C   UNL     1      15.541  11.712  26.713  0.00  0.00    +0.068 C 
ATOM     23  C   UNL     1      15.327  12.565  27.956  0.00  0.00    +0.027 C 
ATOM     24  C   UNL     1      16.254  12.498  25.619  0.00  0.00    +0.027 C 
ENDBRANCH   5  22
ENDBRANCH  14   3
ENDBRANCH   8  14
BRANCH  10  15
ATOM     15  C   UNL     1      13.819   9.808  21.505  0.00  0.00    +0.104 C 
BRANCH  15  19
ATOM      1  O   UNL     1      13.830   8.314  19.616  0.00  0.00    -0.275 OA
ATOM      4  N   UNL     1      15.669   8.369  21.076  0.00  0.00    -0.270 N 
ATOM      6  N   UNL     1      17.732   7.185  21.134  0.00  0.00    -0.240 NA
ATOM     19  C   UNL     1      14.415   8.744  20.605  0.00  0.00    +0.219 C 
ATOM     21  C   UNL     1      16.547   7.408  20.521  0.00  0.00    +0.125 A 
ATOM     25  C   UNL     1      16.132   6.751  19.374  0.00  0.00    +0.044 A 
ATOM     26  C   UNL     1      16.988   5.805  18.820  0.00  0.00    +0.005 A 
ATOM     27  C   UNL     1      18.537   6.259  20.567  0.00  0.00    +0.113 A 
ATOM     28  C   UNL     1      18.214   5.548  19.421  0.00  0.00    +0.020 A 
ATOM     30  H   UNL     1      16.023   8.819  21.917  0.00  0.00    +0.156 HD
ENDBRANCH  15  19
ENDBRANCH  10  15
TORSDOF 6
ENDMDL
MODEL 5
REMARK VINA RESULT:      -6.4     22.230     26.069
REMARK  Name = 38029461
REMARK  11 active torsions:
REMARK  status: ('A' for Active; 'I' for Inactive)
REMARK    1  A    between atoms: N_3  and  C_14
REMARK    2  A    between atoms: N_5  and  C_22
REMARK    3  A    between atoms: C_7  and  C_11
REMARK    4  A    between atoms: C_8  and  C_14
REMARK    5  A    between atoms: C_10  and  C_15
REMARK    6  A    between atoms: C_11  and  C_16
REMARK    7  A    between atoms: C_11  and  C_17
REMARK    8  A    between atoms: C_12  and  C_18
REMARK    9  A    between atoms: C_15  and  C_19
REMARK   10  A    between atoms: C_22  and  C_23
REMARK   11  A    between atoms: C_22  and  C_24
REMARK                            x       y       z     vdW  Elec       q    Type
REMARK                         _______ _______ _______ _____ _____    ______ ____
ROOT
ATOM      7  C   UNL     1      -6.453  -9.701   9.848  0.00  0.00    +0.000 C 
ATOM      8  C   UNL     1      -5.510  -9.146   8.750  0.00  0.00    +0.032 C 
ATOM      9  C   UNL     1      -6.020  -9.193  11.233  0.00  0.00    +0.012 C 
ATOM     10  C   UNL     1      -4.575  -9.602  11.578  0.00  0.00    +0.023 C 
ATOM     12  C   UNL     1      -3.625  -9.329  10.430  0.00  0.00    -0.073 C 
ATOM     13  C   UNL     1      -4.061  -9.115   9.176  0.00  0.00    -0.022 C 
ATOM     18  C   UNL     1      -2.160  -9.264  10.764  0.00  0.00    +0.039 C 
ENDROOT
BRANCH   7  11
ATOM     11  C   UNL     1      -7.913  -9.320   9.590  0.00  0.00    -0.013 C 
ATOM     16  C   UNL     1      -8.012  -7.870   9.129  0.00  0.00    +0.007 C 
ATOM     17  C   UNL     1      -8.753  -9.548  10.843  0.00  0.00    +0.007 C 
ENDBRANCH   7  11
BRANCH   8  14
ATOM     14  C   UNL     1      -5.645  -9.948   7.451  0.00  0.00    +0.113 C 
BRANCH  14   3
ATOM      2  O   UNL     1      -8.094  -9.986   5.926  0.00  0.00    -0.253 OA
ATOM      3  N   UNL     1      -5.993  -9.092   6.361  0.00  0.00    -0.299 N 
ATOM      5  N   UNL     1      -7.287  -8.223   4.653  0.00  0.00    -0.297 N 
ATOM     20  C   UNL     1      -7.207  -9.173   5.666  0.00  0.00    +0.300 C 
ATOM     29  H   UNL     1      -5.357  -8.341   6.112  0.00  0.00    +0.150 HD
ATOM     31  H   UNL     1      -6.534  -7.547   4.563  0.00  0.00    +0.150 HD
BRANCH   5  22
ATOM     22  C   UNL     1      -8.436  -8.095   3.788  0.00  0.00    +0.068 C 
ATOM     23  C   UNL     1      -8.007  -7.638   2.400  0.00  0.00    +0.027 C 
ATOM     24  C   UNL     1      -9.457  -7.140   4.393  0.00  0.00    +0.027 C 
ENDBRANCH   5  22
ENDBRANCH  14   3
ENDBRANCH   8  14
BRANCH  10  15
ATOM     15  C   UNL     1      -4.505 -11.070  12.013  0.00  0.00    +0.104 C 
BRANCH  15  19
ATOM      1  O   UNL     1      -2.963 -11.607  13.783  0.00  0.00    -0.275 OA
ATOM      4  N   UNL     1      -5.129 -10.859  14.303  0.00  0.00    -0.270 N 
ATOM      6  N   UNL     1      -6.263 -10.473  16.358  0.00  0.00    -0.240 NA
ATOM     19  C   UNL     1      -4.081 -11.219  13.461  0.00  0.00    +0.219 C 
ATOM     21  C   UNL     1      -5.136 -10.861  15.718  0.00  0.00    +0.125 A 
ATOM     25  C   UNL     1      -3.978 -11.263  16.363  0.00  0.00    +0.044 A 
ATOM     26  C   UNL     1      -3.975 -11.268  17.754  0.00  0.00    +0.005 A 
ATOM     27  C   UNL     1      -6.223 -10.490  17.709  0.00  0.00    +0.113 A 
ATOM     28  C   UNL     1      -5.114 -10.875  18.447  0.00  0.00    +0.020 A 
ATOM     30  H   UNL     1      -6.004 -10.556  13.882  0.00  0.00    +0.156 HD
ENDBRANCH  15  19
ENDBRANCH  10  15
TORSDOF 6
ENDMDL
MODEL 6
REMARK VINA RESULT:      -6.4     33.372     36.346
REMARK  Name = 38029461
REMARK  11 active torsions:
REMARK  status: ('A' for Active; 'I' for Inactive)
REMARK    1  A    between atoms: N_3  and  C_14
REMARK    2  A    between atoms: N_5  and  C_22
REMARK    3  A    between atoms: C_7  and  C_11
REMARK    4  A    between atoms: C_8  and  C_14
REMARK    5  A    between atoms: C_10  and  C_15
REMARK    6  A    between atoms: C_11  and  C_16
REMARK    7  A    between atoms: C_11  and  C_17
REMARK    8  A    between atoms: C_12  and  C_18
REMARK    9  A    between atoms: C_15  and  C_19
REMARK   10  A    between atoms: C_22  and  C_23
REMARK   11  A    between atoms: C_22  and  C_24
REMARK                            x       y       z     vdW  Elec       q    Type
REMARK                         _______ _______ _______ _____ _____    ______ ____
ROOT
ATOM      7  C   UNL     1      10.400   8.609   6.567  0.00  0.00    +0.000 C 
ATOM      8  C   UNL     1      11.655   7.737   6.818  0.00  0.00    +0.032 C 
ATOM      9  C   UNL     1       9.385   8.428   7.707  0.00  0.00    +0.012 C 
ATOM     10  C   UNL     1       8.938   6.962   7.862  0.00  0.00    +0.023 C 
ATOM     12  C   UNL     1      10.116   6.010   7.848  0.00  0.00    -0.073 C 
ATOM     13  C   UNL     1      11.326   6.378   7.390  0.00  0.00    -0.022 C 
ATOM     18  C   UNL     1       9.885   4.637   8.414  0.00  0.00    +0.039 C 
ENDROOT
BRANCH   7  11
ATOM     11  C   UNL     1      10.756  10.091   6.422  0.00  0.00    -0.013 C 
ATOM     16  C   UNL     1      11.521  10.578   7.648  0.00  0.00    +0.007 C 
ATOM     17  C   UNL     1       9.496  10.924   6.204  0.00  0.00    +0.007 C 
ENDBRANCH   7  11
BRANCH   8  14
ATOM     14  C   UNL     1      12.474   7.566   5.533  0.00  0.00    +0.113 C 
BRANCH  14   3
ATOM      2  O   UNL     1      12.846   7.003   2.729  0.00  0.00    -0.253 OA
ATOM      3  N   UNL     1      12.082   6.383   4.834  0.00  0.00    -0.299 N 
ATOM      5  N   UNL     1      11.818   4.947   3.041  0.00  0.00    -0.297 N 
ATOM     20  C   UNL     1      12.297   6.183   3.464  0.00  0.00    +0.300 C 
ATOM     29  H   UNL     1      11.682   5.617   5.365  0.00  0.00    +0.150 HD
ATOM     31  H   UNL     1      11.446   4.308   3.739  0.00  0.00    +0.150 HD
BRANCH   5  22
ATOM     22  C   UNL     1      11.916   4.495   1.674  0.00  0.00    +0.068 C 
ATOM     23  C   UNL     1      10.531   4.194   1.114  0.00  0.00    +0.027 C 
ATOM     24  C   UNL     1      12.828   3.278   1.577  0.00  0.00    +0.027 C 
ENDBRANCH   5  22
ENDBRANCH  14   3
ENDBRANCH   8  14
BRANCH  10  15
ATOM     15  C   UNL     1       7.911   6.582   6.789  0.00  0.00    +0.104 C 
BRANCH  15  19
ATOM      1  O   UNL     1       9.302   5.852   4.963  0.00  0.00    -0.275 OA
ATOM      4  N   UNL     1       7.953   7.760   4.718  0.00  0.00    -0.270 N 
ATOM      6  N   UNL     1       7.606   9.282   2.924  0.00  0.00    -0.240 NA
ATOM     19  C   UNL     1       8.486   6.663   5.389  0.00  0.00    +0.219 C 
ATOM     21  C   UNL     1       8.233   8.182   3.397  0.00  0.00    +0.125 A 
ATOM     25  C   UNL     1       9.140   7.432   2.666  0.00  0.00    +0.044 A 
ATOM     26  C   UNL     1       9.422   7.839   1.366  0.00  0.00    +0.005 A 
ATOM     27  C   UNL     1       7.905   9.646   1.658  0.00  0.00    +0.113 A 
ATOM     28  C   UNL     1       8.797   8.965   0.844  0.00  0.00    +0.020 A 
ATOM     30  H   UNL     1       7.282   8.345   5.209  0.00  0.00    +0.156 HD
ENDBRANCH  15  19
ENDBRANCH  10  15
TORSDOF 6
ENDMDL
MODEL 7
REMARK VINA RESULT:      -6.3     33.710     37.294
REMARK  Name = 38029461
REMARK  11 active torsions:
REMARK  status: ('A' for Active; 'I' for Inactive)
REMARK    1  A    between atoms: N_3  and  C_14
REMARK    2  A    between atoms: N_5  and  C_22
REMARK    3  A    between atoms: C_7  and  C_11
REMARK    4  A    between atoms: C_8  and  C_14
REMARK    5  A    between atoms: C_10  and  C_15
REMARK    6  A    between atoms: C_11  and  C_16
REMARK    7  A    between atoms: C_11  and  C_17
REMARK    8  A    between atoms: C_12  and  C_18
REMARK    9  A    between atoms: C_15  and  C_19
REMARK   10  A    between atoms: C_22  and  C_23
REMARK   11  A    between atoms: C_22  and  C_24
REMARK                            x       y       z     vdW  Elec       q    Type
REMARK                         _______ _______ _______ _____ _____    ______ ____
ROOT
ATOM      7  C   UNL     1       9.062   8.600   5.636  0.00  0.00    +0.000 C 
ATOM      8  C   UNL     1       8.752   8.476   7.149  0.00  0.00    +0.032 C 
ATOM      9  C   UNL     1       8.743   7.281   4.914  0.00  0.00    +0.012 C 
ATOM     10  C   UNL     1       9.547   6.096   5.482  0.00  0.00    +0.023 C 
ATOM     12  C   UNL     1       9.508   6.065   6.996  0.00  0.00    -0.073 C 
ATOM     13  C   UNL     1       9.137   7.133   7.724  0.00  0.00    -0.022 C 
ATOM     18  C   UNL     1       9.861   4.760   7.655  0.00  0.00    +0.039 C 
ENDROOT
BRANCH   7  11
ATOM     11  C   UNL     1       8.284   9.748   4.987  0.00  0.00    -0.013 C 
ATOM     16  C   UNL     1       7.234   9.202   4.025  0.00  0.00    +0.007 C 
ATOM     17  C   UNL     1       9.237  10.698   4.267  0.00  0.00    +0.007 C 
ENDBRANCH   7  11
BRANCH   8  14
ATOM     14  C   UNL     1       9.439   9.590   7.946  0.00  0.00    +0.113 C 
BRANCH  14   3
ATOM      2  O   UNL     1      11.278  11.512   6.829  0.00  0.00    -0.253 OA
ATOM      3  N   UNL     1      10.861   9.472   7.861  0.00  0.00    -0.299 N 
ATOM      5  N   UNL     1      13.031  10.084   7.347  0.00  0.00    -0.297 N 
ATOM     20  C   UNL     1      11.690  10.453   7.301  0.00  0.00    +0.300 C 
ATOM     29  H   UNL     1      11.306   8.665   8.285  0.00  0.00    +0.150 HD
ATOM     31  H   UNL     1      13.279   9.221   7.823  0.00  0.00    +0.150 HD
BRANCH   5  22
ATOM     22  C   UNL     1      14.091  10.918   6.834  0.00  0.00    +0.068 C 
ATOM     23  C   UNL     1      15.292  10.069   6.440  0.00  0.00    +0.027 C 
ATOM     24  C   UNL     1      14.477  11.981   7.856  0.00  0.00    +0.027 C 
ENDBRANCH   5  22
ENDBRANCH  14   3
ENDBRANCH   8  14
BRANCH  10  15
ATOM     15  C   UNL     1      10.991   6.112   4.969  0.00  0.00    +0.104 C 
BRANCH  15  19
ATOM      1  O   UNL     1      10.316   4.461   3.350  0.00  0.00    -0.275 OA
ATOM      4  N   UNL     1      12.402   5.522   3.142  0.00  0.00    -0.270 N 
ATOM      6  N   UNL     1      14.170   5.331   1.562  0.00  0.00    -0.240 NA
ATOM     19  C   UNL     1      11.170   5.256   3.731  0.00  0.00    +0.219 C 
ATOM     21  C   UNL     1      12.945   4.934   1.975  0.00  0.00    +0.125 A 
ATOM     25  C   UNL     1      12.179   3.980   1.325  0.00  0.00    +0.044 A 
ATOM     26  C   UNL     1      12.703   3.396   0.176  0.00  0.00    +0.005 A 
ATOM     27  C   UNL     1      14.646   4.742   0.443  0.00  0.00    +0.113 A 
ATOM     28  C   UNL     1      13.960   3.779  -0.280  0.00  0.00    +0.020 A 
ATOM     30  H   UNL     1      13.006   6.214   3.579  0.00  0.00    +0.156 HD
ENDBRANCH  15  19
ENDBRANCH  10  15
TORSDOF 6
ENDMDL
MODEL 8
REMARK VINA RESULT:      -6.3     22.949     27.556
REMARK  Name = 38029461
REMARK  11 active torsions:
REMARK  status: ('A' for Active; 'I' for Inactive)
REMARK    1  A    between atoms: N_3  and  C_14
REMARK    2  A    between atoms: N_5  and  C_22
REMARK    3  A    between atoms: C_7  and  C_11
REMARK    4  A    between atoms: C_8  and  C_14
REMARK    5  A    between atoms: C_10  and  C_15
REMARK    6  A    between atoms: C_11  and  C_16
REMARK    7  A    between atoms: C_11  and  C_17
REMARK    8  A    between atoms: C_12  and  C_18
REMARK    9  A    between atoms: C_15  and  C_19
REMARK   10  A    between atoms: C_22  and  C_23
REMARK   11  A    between atoms: C_22  and  C_24
REMARK                            x       y       z     vdW  Elec       q    Type
REMARK                         _______ _______ _______ _____ _____    ______ ____
ROOT
ATOM      7  C   UNL     1      -2.988 -12.393  13.567  0.00  0.00    +0.000 C 
ATOM      8  C   UNL     1      -1.899 -11.349  13.919  0.00  0.00    +0.032 C 
ATOM      9  C   UNL     1      -2.954 -12.717  12.065  0.00  0.00    +0.012 C 
ATOM     10  C   UNL     1      -3.178 -11.466  11.194  0.00  0.00    +0.023 C 
ATOM     12  C   UNL     1      -2.326 -10.301  11.655  0.00  0.00    -0.073 C 
ATOM     13  C   UNL     1      -1.752 -10.272  12.870  0.00  0.00    -0.022 C 
ATOM     18  C   UNL     1      -2.111  -9.187  10.667  0.00  0.00    +0.039 C 
ENDROOT
BRANCH   7  11
ATOM     11  C   UNL     1      -2.824 -13.682  14.378  0.00  0.00    -0.013 C 
ATOM     16  C   UNL     1      -2.051 -14.722  13.575  0.00  0.00    +0.007 C 
ATOM     17  C   UNL     1      -4.188 -14.225  14.797  0.00  0.00    +0.007 C 
ENDBRANCH   7  11
BRANCH   8  14
ATOM     14  C   UNL     1      -2.175 -10.702  15.281  0.00  0.00    +0.113 C 
BRANCH  14   3
ATOM      2  O   UNL     1      -3.968 -11.266  17.470  0.00  0.00    -0.253 OA
ATOM      3  N   UNL     1      -3.546 -10.316  15.391  0.00  0.00    -0.299 N 
ATOM      5  N   UNL     1      -5.647 -10.132  16.341  0.00  0.00    -0.297 N 
ATOM     20  C   UNL     1      -4.356 -10.629  16.491  0.00  0.00    +0.300 C 
ATOM     29  H   UNL     1      -3.944  -9.728  14.666  0.00  0.00    +0.150 HD
ATOM     31  H   UNL     1      -5.851  -9.555  15.529  0.00  0.00    +0.150 HD
BRANCH   5  22
ATOM     22  C   UNL     1      -6.679 -10.318  17.333  0.00  0.00    +0.068 C 
ATOM     23  C   UNL     1      -7.327 -11.687  17.175  0.00  0.00    +0.027 C 
ATOM     24  C   UNL     1      -7.713  -9.202  17.244  0.00  0.00    +0.027 C 
ENDBRANCH   5  22
ENDBRANCH  14   3
ENDBRANCH   8  14
BRANCH  10  15
ATOM     15  C   UNL     1      -4.661 -11.079  11.153  0.00  0.00    +0.104 C 
BRANCH  15  19
ATOM      1  O   UNL     1      -6.005  -9.979   9.484  0.00  0.00    -0.275 OA
ATOM      4  N   UNL     1      -4.481 -11.649   8.846  0.00  0.00    -0.270 N 
ATOM      6  N   UNL     1      -3.899 -12.598   6.744  0.00  0.00    -0.240 NA
ATOM     19  C   UNL     1      -5.146 -10.817   9.741  0.00  0.00    +0.219 C 
ATOM     21  C   UNL     1      -4.647 -11.714   7.442  0.00  0.00    +0.125 A 
ATOM     25  C   UNL     1      -5.574 -10.860   6.868  0.00  0.00    +0.044 A 
ATOM     26  C   UNL     1      -5.745 -10.915   5.489  0.00  0.00    +0.005 A 
ATOM     27  C   UNL     1      -4.092 -12.624   5.406  0.00  0.00    +0.113 A 
ATOM     28  C   UNL     1      -4.994 -11.811   4.737  0.00  0.00    +0.020 A 
ATOM     30  H   UNL     1      -3.789 -12.298   9.213  0.00  0.00    +0.156 HD
ENDBRANCH  15  19
ENDBRANCH  10  15
TORSDOF 6
ENDMDL
MODEL 9
REMARK VINA RESULT:      -6.2      7.857     12.802
REMARK  Name = 38029461
REMARK  11 active torsions:
REMARK  status: ('A' for Active; 'I' for Inactive)
REMARK    1  A    between atoms: N_3  and  C_14
REMARK    2  A    between atoms: N_5  and  C_22
REMARK    3  A    between atoms: C_7  and  C_11
REMARK    4  A    between atoms: C_8  and  C_14
REMARK    5  A    between atoms: C_10  and  C_15
REMARK    6  A    between atoms: C_11  and  C_16
REMARK    7  A    between atoms: C_11  and  C_17
REMARK    8  A    between atoms: C_12  and  C_18
REMARK    9  A    between atoms: C_15  and  C_19
REMARK   10  A    between atoms: C_22  and  C_23
REMARK   11  A    between atoms: C_22  and  C_24
REMARK                            x       y       z     vdW  Elec       q    Type
REMARK                         _______ _______ _______ _____ _____    ______ ____
ROOT
ATOM      7  C   UNL     1     -12.320  10.076  19.846  0.00  0.00    +0.000 C 
ATOM      8  C   UNL     1     -10.892   9.485  19.954  0.00  0.00    +0.032 C 
ATOM      9  C   UNL     1     -13.207   9.546  20.984  0.00  0.00    +0.012 C 
ATOM     10  C   UNL     1     -13.312   8.009  20.972  0.00  0.00    +0.023 C 
ATOM     12  C   UNL     1     -11.956   7.354  20.811  0.00  0.00    -0.073 C 
ATOM     13  C   UNL     1     -10.883   8.032  20.367  0.00  0.00    -0.022 C 
ATOM     18  C   UNL     1     -11.849   5.909  21.214  0.00  0.00    +0.039 C 
ENDROOT
BRANCH   7  11
ATOM     11  C   UNL     1     -12.306  11.607  19.871  0.00  0.00    -0.013 C 
ATOM     16  C   UNL     1     -13.090  12.127  21.071  0.00  0.00    +0.007 C 
ATOM     17  C   UNL     1     -12.874  12.166  18.569  0.00  0.00    +0.007 C 
ENDBRANCH   7  11
BRANCH   8  14
ATOM     14  C   UNL     1     -10.126   9.648  18.636  0.00  0.00    +0.113 C 
BRANCH  14   3
ATOM      2  O   UNL     1     -10.247  10.149  15.798  0.00  0.00    -0.253 OA
ATOM      3  N   UNL     1     -10.656   8.780  17.631  0.00  0.00    -0.299 N 
ATOM      5  N   UNL     1     -11.250   8.077  15.510  0.00  0.00    -0.297 N 
ATOM     20  C   UNL     1     -10.680   9.097  16.267  0.00  0.00    +0.300 C 
ATOM     29  H   UNL     1     -10.976   7.858  17.907  0.00  0.00    +0.150 HD
ATOM     31  H   UNL     1     -11.511   7.215  15.980  0.00  0.00    +0.150 HD
BRANCH   5  22
ATOM     22  C   UNL     1     -11.395   8.153  14.076  0.00  0.00    +0.068 C 
ATOM     23  C   UNL     1     -12.787   7.699  13.658  0.00  0.00    +0.027 C 
ATOM     24  C   UNL     1     -10.315   7.329  13.385  0.00  0.00    +0.027 C 
ENDBRANCH   5  22
ENDBRANCH  14   3
ENDBRANCH   8  14
BRANCH  10  15
ATOM     15  C   UNL     1     -14.287   7.529  19.891  0.00  0.00    +0.104 C 
BRANCH  15  19
ATOM      1  O   UNL     1     -16.390   6.356  19.856  0.00  0.00    -0.275 OA
ATOM      4  N   UNL     1     -14.912   6.057  21.657  0.00  0.00    -0.270 N 
ATOM      6  N   UNL     1     -15.013   4.746  23.639  0.00  0.00    -0.240 NA
ATOM     19  C   UNL     1     -15.336   6.584  20.442  0.00  0.00    +0.219 C 
ATOM     21  C   UNL     1     -15.600   5.141  22.488  0.00  0.00    +0.125 A 
ATOM     25  C   UNL     1     -16.844   4.704  22.062  0.00  0.00    +0.044 A 
ATOM     26  C   UNL     1     -17.529   3.803  22.871  0.00  0.00    +0.005 A 
ATOM     27  C   UNL     1     -15.708   3.871  24.399  0.00  0.00    +0.113 A 
ATOM     28  C   UNL     1     -16.958   3.374  24.063  0.00  0.00    +0.020 A 
ATOM     30  H   UNL     1     -14.005   6.345  22.018  0.00  0.00    +0.156 HD
ENDBRANCH  15  19
ENDBRANCH  10  15
TORSDOF 6
ENDMDL
MODEL 10
REMARK VINA RESULT:      -6.1     22.091     26.683
REMARK  Name = 38029461
REMARK  11 active torsions:
REMARK  status: ('A' for Active; 'I' for Inactive)
REMARK    1  A    between atoms: N_3  and  C_14
REMARK    2  A    between atoms: N_5  and  C_22
REMARK    3  A    between atoms: C_7  and  C_11
REMARK    4  A    between atoms: C_8  and  C_14
REMARK    5  A    between atoms: C_10  and  C_15
REMARK    6  A    between atoms: C_11  and  C_16
REMARK    7  A    between atoms: C_11  and  C_17
REMARK    8  A    between atoms: C_12  and  C_18
REMARK    9  A    between atoms: C_15  and  C_19
REMARK   10  A    between atoms: C_22  and  C_23
REMARK   11  A    between atoms: C_22  and  C_24
REMARK                            x       y       z     vdW  Elec       q    Type
REMARK                         _______ _______ _______ _____ _____    ______ ____
ROOT
ATOM      7  C   UNL     1      -2.933 -12.457  13.262  0.00  0.00    +0.000 C 
ATOM      8  C   UNL     1      -1.885 -11.342  13.509  0.00  0.00    +0.032 C 
ATOM      9  C   UNL     1      -3.046 -12.763  11.760  0.00  0.00    +0.012 C 
ATOM     10  C   UNL     1      -3.451 -11.522  10.942  0.00  0.00    +0.023 C 
ATOM     12  C   UNL     1      -2.634 -10.305  11.325  0.00  0.00    -0.073 C 
ATOM     13  C   UNL     1      -1.930 -10.248  12.469  0.00  0.00    -0.022 C 
ATOM     18  C   UNL     1      -2.607  -9.169  10.339  0.00  0.00    +0.039 C 
ENDROOT
BRANCH   7  11
ATOM     11  C   UNL     1      -2.591 -13.738  14.028  0.00  0.00    -0.013 C 
ATOM     16  C   UNL     1      -1.819 -14.703  13.134  0.00  0.00    +0.007 C 
ATOM     17  C   UNL     1      -3.862 -14.394  14.561  0.00  0.00    +0.007 C 
ENDBRANCH   7  11
BRANCH   8  14
ATOM     14  C   UNL     1      -2.049 -10.730  14.904  0.00  0.00    +0.113 C 
BRANCH  14   3
ATOM      2  O   UNL     1      -3.739 -11.420  17.138  0.00  0.00    -0.253 OA
ATOM      3  N   UNL     1      -3.400 -10.316  15.121  0.00  0.00    -0.299 N 
ATOM      5  N   UNL     1      -5.440 -10.153  16.198  0.00  0.00    -0.297 N 
ATOM     20  C   UNL     1      -4.159 -10.696  16.236  0.00  0.00    +0.300 C 
ATOM     29  H   UNL     1      -3.817  -9.661  14.468  0.00  0.00    +0.150 HD
ATOM     31  H   UNL     1      -5.669  -9.507  15.448  0.00  0.00    +0.150 HD
BRANCH   5  22
ATOM     22  C   UNL     1      -6.422 -10.391  17.228  0.00  0.00    +0.068 C 
ATOM     23  C   UNL     1      -6.991 -11.799  17.106  0.00  0.00    +0.027 C 
ATOM     24  C   UNL     1      -7.526  -9.342  17.167  0.00  0.00    +0.027 C 
ENDBRANCH   5  22
ENDBRANCH  14   3
ENDBRANCH   8  14
BRANCH  10  15
ATOM     15  C   UNL     1      -4.951 -11.239  11.072  0.00  0.00    +0.104 C 
BRANCH  15  19
ATOM      1  O   UNL     1      -5.600 -11.750   8.810  0.00  0.00    -0.275 OA
ATOM      4  N   UNL     1      -6.154  -9.668   9.744  0.00  0.00    -0.270 N 
ATOM      6  N   UNL     1      -7.312  -7.768   8.904  0.00  0.00    -0.240 NA
ATOM     19  C   UNL     1      -5.598 -10.943   9.734  0.00  0.00    +0.219 C 
ATOM     21  C   UNL     1      -6.844  -9.018   8.693  0.00  0.00    +0.125 A 
ATOM     25  C   UNL     1      -6.997  -9.713   7.505  0.00  0.00    +0.044 A 
ATOM     26  C   UNL     1      -7.674  -9.084   6.465  0.00  0.00    +0.005 A 
ATOM     27  C   UNL     1      -7.964  -7.189   7.872  0.00  0.00    +0.113 A 
ATOM     28  C   UNL     1      -8.170  -7.798   6.644  0.00  0.00    +0.020 A 
ATOM     30  H   UNL     1      -6.070  -9.112  10.593  0.00  0.00    +0.156 HD
ENDBRANCH  15  19
ENDBRANCH  10  15
TORSDOF 6
ENDMDL
