REMARK  Name = 40777985
REMARK  10 active torsions:
REMARK  status: ('A' for Active; 'I' for Inactive)
REMARK    1  A    between atoms: O_2  and  C_11
REMARK    2  A    between atoms: O_3  and  C_12
REMARK    3  A    between atoms: N_7  and  C_21
REMARK    4  A    between atoms: N_8  and  C_15
REMARK    5  A    between atoms: N_9  and  C_25
REMARK    6  A    between atoms: C_10  and  C_14
REMARK    7  A    between atoms: C_13  and  C_15
REMARK    8  A    between atoms: C_14  and  C_16
REMARK    9  A    between atoms: C_25  and  C_29
REMARK   10  A    between atoms: C_25  and  C_30
REMARK                            x       y       z     vdW  Elec       q    Type
REMARK                         _______ _______ _______ _____ _____    ______ ____
ROOT
ATOM      1  O   UNL     1       3.259   0.597  -0.518  0.00  0.00    -0.366 OA
ATOM     10  C   UNL     1       2.799   1.937  -0.268  0.00  0.00    +0.159 C 
ATOM     11  C   UNL     1       3.717   2.493   0.807  0.00  0.00    +0.175 C 
ATOM     12  C   UNL     1       5.039   1.853   0.438  0.00  0.00    +0.176 C 
ATOM     13  C   UNL     1       4.605   0.460  -0.006  0.00  0.00    +0.167 C 
ENDROOT
BRANCH  11   2
ATOM      2  O   UNL     1       3.755   3.904   0.793  0.00  0.00    -0.387 OA
ATOM     31  H   UNL     1       4.444   4.182   1.420  0.00  0.00    +0.210 HD
ENDBRANCH  11   2
BRANCH  12   3
ATOM      3  O   UNL     1       5.614   2.517  -0.687  0.00  0.00    -0.387 OA
ATOM     32  H   UNL     1       6.438   2.051  -0.910  0.00  0.00    +0.210 HD
ENDBRANCH  12   3
BRANCH  10  14
ATOM     14  C   UNL     1       1.338   1.907   0.144  0.00  0.00    +0.130 C 
BRANCH  14  16
ATOM      4  O   UNL     1       1.059   0.868  -1.973  0.00  0.00    -0.276 OA
ATOM      6  N   UNL     1      -0.853   1.125  -0.678  0.00  0.00    -0.298 N 
ATOM      7  N   UNL     1      -3.656   0.619  -0.158  0.00  0.00    -0.327 N 
ATOM     16  C   UNL     1       0.512   1.251  -0.936  0.00  0.00    +0.218 C 
ATOM     17  C   UNL     1      -1.721   0.506  -1.676  0.00  0.00    +0.126 C 
ATOM     18  C   UNL     1      -1.499   1.572   0.559  0.00  0.00    +0.126 C 
ATOM     19  C   UNL     1      -2.875  -0.260  -1.033  0.00  0.00    +0.124 C 
ATOM     20  C   UNL     1      -3.000   1.809   0.391  0.00  0.00    +0.124 C 
BRANCH   7  21
ATOM     21  C   UNL     1      -4.994   0.346   0.113  0.00  0.00    +0.030 A 
ATOM     23  C   UNL     1      -5.449  -0.972   0.121  0.00  0.00    +0.023 A 
ATOM     24  C   UNL     1      -5.879   1.392   0.377  0.00  0.00    +0.023 A 
ATOM     26  C   UNL     1      -6.790  -1.245   0.393  0.00  0.00    +0.002 A 
ATOM     27  C   UNL     1      -7.220   1.118   0.649  0.00  0.00    +0.002 A 
ATOM     28  C   UNL     1      -7.675  -0.200   0.657  0.00  0.00    +0.000 A 
ENDBRANCH   7  21
ENDBRANCH  14  16
ENDBRANCH  10  14
BRANCH  13  15
ATOM     15  C   UNL     1       4.568  -0.545   1.136  0.00  0.00    +0.140 C 
BRANCH  15   8
ATOM      5  O   UNL     1       1.868  -1.555   0.999  0.00  0.00    -0.253 OA
ATOM      8  N   UNL     1       4.152  -1.837   0.676  0.00  0.00    -0.297 N 
ATOM      9  N   UNL     1       2.695  -3.550   0.151  0.00  0.00    -0.297 N 
ATOM     22  C   UNL     1       2.817  -2.252   0.641  0.00  0.00    +0.300 C 
ATOM     33  H   UNL     1       4.864  -2.482   0.350  0.00  0.00    +0.150 HD
ATOM     34  H   UNL     1       3.530  -4.017  -0.190  0.00  0.00    +0.150 HD
BRANCH   9  25
ATOM     25  C   UNL     1       1.422  -4.218   0.012  0.00  0.00    +0.068 C 
ATOM     29  C   UNL     1       1.585  -5.718   0.225  0.00  0.00    +0.027 C 
ATOM     30  C   UNL     1       0.806  -3.918  -1.349  0.00  0.00    +0.027 C 
ENDBRANCH   9  25
ENDBRANCH  15   8
ENDBRANCH  13  15
TORSDOF 8
