MODEL 1
REMARK VINA RESULT:      -8.7      0.000      0.000
REMARK  Name = 11886048
REMARK  7 active torsions:
REMARK  status: ('A' for Active; 'I' for Inactive)
REMARK    1  A    between atoms: O_3  and  C_14
REMARK    2  A    between atoms: O_3  and  C_18
REMARK    3  A    between atoms: N_6  and  C_13
REMARK    4  A    between atoms: N_10  and  C_22
REMARK    5  A    between atoms: C_17  and  C_19
REMARK    6  A    between atoms: C_30  and  C_31
REMARK    7  A    between atoms: C_31  and  C_32
REMARK                            x       y       z     vdW  Elec       q    Type
REMARK                         _______ _______ _______ _____ _____    ______ ____
ROOT
ATOM      1  O   UNL     1      16.316   8.432  20.698  0.00  0.00    -0.368 OA
ATOM      2  O   UNL     1      16.285   5.895  18.932  0.00  0.00    -0.368 OA
ATOM     11  C   UNL     1      15.365   6.396  19.927  0.00  0.00    +0.177 C 
ATOM     12  C   UNL     1      16.202   7.036  21.016  0.00  0.00    +0.192 C 
ATOM     13  C   UNL     1      14.561   7.541  19.343  0.00  0.00    +0.168 C 
ATOM     14  C   UNL     1      17.526   6.322  20.879  0.00  0.00    +0.235 C 
ATOM     15  C   UNL     1      15.465   8.745  19.586  0.00  0.00    +0.190 C 
ATOM     16  C   UNL     1      17.627   6.123  19.386  0.00  0.00    +0.207 C 
ENDROOT
BRANCH  13   6
ATOM      6  N   UNL     1      13.219   7.637  19.922  0.00  0.00    -0.217 N 
ATOM      7  N   UNL     1      12.994   7.248  21.182  0.00  0.00    -0.043 NA
ATOM      8  N   UNL     1      11.111   7.991  20.247  0.00  0.00    -0.108 NA
ATOM      9  N   UNL     1      11.699   7.467  21.376  0.00  0.00    -0.023 NA
ATOM     17  C   UNL     1      12.072   8.088  19.359  0.00  0.00    +0.182 A 
BRANCH  17  19
ATOM     19  C   UNL     1      11.961   8.582  18.011  0.00  0.00    +0.021 A 
ATOM     20  C   UNL     1      13.028   9.267  17.427  0.00  0.00    +0.011 A 
ATOM     21  C   UNL     1      10.785   8.381  17.286  0.00  0.00    +0.011 A 
ATOM     23  C   UNL     1      12.920   9.747  16.122  0.00  0.00    +0.001 A 
ATOM     24  C   UNL     1      10.678   8.862  15.981  0.00  0.00    +0.001 A 
ATOM     25  C   UNL     1      11.746   9.545  15.399  0.00  0.00    +0.000 A 
ENDBRANCH  17  19
ENDBRANCH  13   6
BRANCH  14   3
ATOM      3  O   UNL     1      18.616   7.054  21.392  0.00  0.00    -0.442 OA
BRANCH   3  18
ATOM      4  O   UNL     1      19.951   6.218  23.051  0.00  0.00    -0.226 OA
ATOM     10  N   UNL     1      20.376   5.777  20.792  0.00  0.00    -0.251 N 
ATOM     18  C   UNL     1      19.692   6.326  21.859  0.00  0.00    +0.405 C 
ATOM     33  H   UNL     1      20.004   5.980  19.867  0.00  0.00    +0.158 HD
BRANCH  10  22
ATOM     22  C   UNL     1      21.532   4.964  20.825  0.00  0.00    +0.036 A 
ATOM     26  C   UNL     1      22.755   5.509  20.466  0.00  0.00    +0.024 A 
ATOM     27  C   UNL     1      21.421   3.640  21.217  0.00  0.00    +0.024 A 
ATOM     28  C   UNL     1      23.896   4.708  20.500  0.00  0.00    +0.013 A 
ATOM     29  C   UNL     1      22.563   2.839  21.250  0.00  0.00    +0.013 A 
ATOM     30  C   UNL     1      23.801   3.373  20.892  0.00  0.00    +0.017 A 
BRANCH  30  31
ATOM      5  O   UNL     1      26.097   2.964  20.540  0.00  0.00    -0.292 OA
ATOM     31  C   UNL     1      24.991   2.538  20.928  0.00  0.00    +0.160 C 
ATOM     32  C   UNL     1      24.909   1.107  21.449  0.00  0.00    +0.091 C 
ENDBRANCH  30  31
ENDBRANCH  10  22
ENDBRANCH   3  18
ENDBRANCH  14   3
TORSDOF 6
ENDMDL
MODEL 2
REMARK VINA RESULT:      -8.5      2.305      3.397
REMARK  Name = 11886048
REMARK  7 active torsions:
REMARK  status: ('A' for Active; 'I' for Inactive)
REMARK    1  A    between atoms: O_3  and  C_14
REMARK    2  A    between atoms: O_3  and  C_18
REMARK    3  A    between atoms: N_6  and  C_13
REMARK    4  A    between atoms: N_10  and  C_22
REMARK    5  A    between atoms: C_17  and  C_19
REMARK    6  A    between atoms: C_30  and  C_31
REMARK    7  A    between atoms: C_31  and  C_32
REMARK                            x       y       z     vdW  Elec       q    Type
REMARK                         _______ _______ _______ _____ _____    ______ ____
ROOT
ATOM      1  O   UNL     1      15.522   6.970  21.791  0.00  0.00    -0.368 OA
ATOM      2  O   UNL     1      16.603   9.519  20.415  0.00  0.00    -0.368 OA
ATOM     11  C   UNL     1      15.543   8.601  20.063  0.00  0.00    +0.177 C 
ATOM     12  C   UNL     1      16.013   7.216  20.464  0.00  0.00    +0.192 C 
ATOM     13  C   UNL     1      14.334   8.861  20.941  0.00  0.00    +0.168 C 
ATOM     14  C   UNL     1      17.516   7.356  20.440  0.00  0.00    +0.235 C 
ATOM     15  C   UNL     1      14.634   8.027  22.181  0.00  0.00    +0.190 C 
ATOM     16  C   UNL     1      17.711   8.770  20.933  0.00  0.00    +0.207 C 
ENDROOT
BRANCH  13   6
ATOM      6  N   UNL     1      13.073   8.550  20.264  0.00  0.00    -0.217 N 
ATOM      7  N   UNL     1      13.031   7.625  19.299  0.00  0.00    -0.043 NA
ATOM      8  N   UNL     1      11.007   8.501  19.628  0.00  0.00    -0.108 NA
ATOM      9  N   UNL     1      11.761   7.599  18.912  0.00  0.00    -0.023 NA
ATOM     17  C   UNL     1      11.841   9.079  20.461  0.00  0.00    +0.182 A 
BRANCH  17  19
ATOM     19  C   UNL     1      11.533  10.101  21.427  0.00  0.00    +0.021 A 
ATOM     20  C   UNL     1      11.064   9.748  22.693  0.00  0.00    +0.011 A 
ATOM     21  C   UNL     1      11.701  11.448  21.100  0.00  0.00    +0.011 A 
ATOM     23  C   UNL     1      10.764  10.737  23.629  0.00  0.00    +0.001 A 
ATOM     24  C   UNL     1      11.401  12.437  22.036  0.00  0.00    +0.001 A 
ATOM     25  C   UNL     1      10.932  12.082  23.301  0.00  0.00    +0.000 A 
ENDBRANCH  17  19
ENDBRANCH  13   6
BRANCH  14   3
ATOM      3  O   UNL     1      18.182   6.415  21.252  0.00  0.00    -0.442 OA
BRANCH   3  18
ATOM      4  O   UNL     1      18.913   5.014  19.598  0.00  0.00    -0.226 OA
ATOM     10  N   UNL     1      20.298   5.646  21.377  0.00  0.00    -0.251 N 
ATOM     18  C   UNL     1      19.130   5.622  20.639  0.00  0.00    +0.405 C 
ATOM     33  H   UNL     1      20.286   6.215  22.219  0.00  0.00    +0.158 HD
BRANCH  10  22
ATOM     22  C   UNL     1      21.513   4.976  21.105  0.00  0.00    +0.036 A 
ATOM     26  C   UNL     1      21.608   3.616  21.353  0.00  0.00    +0.024 A 
ATOM     27  C   UNL     1      22.584   5.691  20.594  0.00  0.00    +0.024 A 
ATOM     28  C   UNL     1      22.806   2.954  21.084  0.00  0.00    +0.013 A 
ATOM     29  C   UNL     1      23.782   5.029  20.325  0.00  0.00    +0.013 A 
ATOM     30  C   UNL     1      23.893   3.660  20.570  0.00  0.00    +0.017 A 
BRANCH  30  31
ATOM      5  O   UNL     1      25.489   1.962  20.936  0.00  0.00    -0.292 OA
ATOM     31  C   UNL     1      25.141   2.970  20.288  0.00  0.00    +0.160 C 
ATOM     32  C   UNL     1      26.062   3.470  19.180  0.00  0.00    +0.091 C 
ENDBRANCH  30  31
ENDBRANCH  10  22
ENDBRANCH   3  18
ENDBRANCH  14   3
TORSDOF 6
ENDMDL
MODEL 3
REMARK VINA RESULT:      -8.3      1.753      2.621
REMARK  Name = 11886048
REMARK  7 active torsions:
REMARK  status: ('A' for Active; 'I' for Inactive)
REMARK    1  A    between atoms: O_3  and  C_14
REMARK    2  A    between atoms: O_3  and  C_18
REMARK    3  A    between atoms: N_6  and  C_13
REMARK    4  A    between atoms: N_10  and  C_22
REMARK    5  A    between atoms: C_17  and  C_19
REMARK    6  A    between atoms: C_30  and  C_31
REMARK    7  A    between atoms: C_31  and  C_32
REMARK                            x       y       z     vdW  Elec       q    Type
REMARK                         _______ _______ _______ _____ _____    ______ ____
ROOT
ATOM      1  O   UNL     1      15.213   6.457  20.706  0.00  0.00    -0.368 OA
ATOM      2  O   UNL     1      16.121   9.408  20.555  0.00  0.00    -0.368 OA
ATOM     11  C   UNL     1      15.481   8.539  19.594  0.00  0.00    +0.177 C 
ATOM     12  C   UNL     1      16.070   7.157  19.791  0.00  0.00    +0.192 C 
ATOM     13  C   UNL     1      14.015   8.382  19.951  0.00  0.00    +0.168 C 
ATOM     14  C   UNL     1      17.418   7.456  20.405  0.00  0.00    +0.235 C 
ATOM     15  C   UNL     1      14.036   7.238  20.959  0.00  0.00    +0.190 C 
ATOM     16  C   UNL     1      17.114   8.657  21.268  0.00  0.00    +0.207 C 
ENDROOT
BRANCH  13   6
ATOM      6  N   UNL     1      13.172   8.166  18.774  0.00  0.00    -0.217 N 
ATOM      7  N   UNL     1      12.423   7.063  18.668  0.00  0.00    -0.043 NA
ATOM      8  N   UNL     1      12.151   8.364  16.877  0.00  0.00    -0.108 NA
ATOM      9  N   UNL     1      11.799   7.189  17.503  0.00  0.00    -0.023 NA
ATOM     17  C   UNL     1      13.003   8.954  17.684  0.00  0.00    +0.182 A 
BRANCH  17  19
ATOM     19  C   UNL     1      13.662  10.217  17.476  0.00  0.00    +0.021 A 
ATOM     20  C   UNL     1      14.596  10.357  16.447  0.00  0.00    +0.011 A 
ATOM     21  C   UNL     1      13.371  11.304  18.302  0.00  0.00    +0.011 A 
ATOM     23  C   UNL     1      15.236  11.580  16.246  0.00  0.00    +0.001 A 
ATOM     24  C   UNL     1      14.011  12.526  18.100  0.00  0.00    +0.001 A 
ATOM     25  C   UNL     1      14.944  12.664  17.073  0.00  0.00    +0.000 A 
ENDBRANCH  17  19
ENDBRANCH  13   6
BRANCH  14   3
ATOM      3  O   UNL     1      17.946   6.384  21.153  0.00  0.00    -0.442 OA
BRANCH   3  18
ATOM      4  O   UNL     1      18.776   5.057  19.486  0.00  0.00    -0.226 OA
ATOM     10  N   UNL     1      20.073   5.658  21.341  0.00  0.00    -0.251 N 
ATOM     18  C   UNL     1      18.937   5.634  20.554  0.00  0.00    +0.405 C 
ATOM     33  H   UNL     1      20.013   6.198  22.200  0.00  0.00    +0.158 HD
BRANCH  10  22
ATOM     22  C   UNL     1      21.312   5.023  21.097  0.00  0.00    +0.036 A 
ATOM     26  C   UNL     1      21.447   3.671  21.368  0.00  0.00    +0.024 A 
ATOM     27  C   UNL     1      22.368   5.765  20.593  0.00  0.00    +0.024 A 
ATOM     28  C   UNL     1      22.669   3.044  21.127  0.00  0.00    +0.013 A 
ATOM     29  C   UNL     1      23.591   5.138  20.352  0.00  0.00    +0.013 A 
ATOM     30  C   UNL     1      23.741   3.777  20.619  0.00  0.00    +0.017 A 
BRANCH  30  31
ATOM      5  O   UNL     1      25.818   3.566  19.520  0.00  0.00    -0.292 OA
ATOM     31  C   UNL     1      25.016   3.124  20.367  0.00  0.00    +0.160 C 
ATOM     32  C   UNL     1      25.403   1.869  21.143  0.00  0.00    +0.091 C 
ENDBRANCH  30  31
ENDBRANCH  10  22
ENDBRANCH   3  18
ENDBRANCH  14   3
TORSDOF 6
ENDMDL
MODEL 4
REMARK VINA RESULT:      -7.8      3.097     11.310
REMARK  Name = 11886048
REMARK  7 active torsions:
REMARK  status: ('A' for Active; 'I' for Inactive)
REMARK    1  A    between atoms: O_3  and  C_14
REMARK    2  A    between atoms: O_3  and  C_18
REMARK    3  A    between atoms: N_6  and  C_13
REMARK    4  A    between atoms: N_10  and  C_22
REMARK    5  A    between atoms: C_17  and  C_19
REMARK    6  A    between atoms: C_30  and  C_31
REMARK    7  A    between atoms: C_31  and  C_32
REMARK                            x       y       z     vdW  Elec       q    Type
REMARK                         _______ _______ _______ _____ _____    ______ ____
ROOT
ATOM      1  O   UNL     1      22.441   7.244  20.290  0.00  0.00    -0.368 OA
ATOM      2  O   UNL     1      22.243   5.038  22.448  0.00  0.00    -0.368 OA
ATOM     11  C   UNL     1      22.883   5.074  21.152  0.00  0.00    +0.177 C 
ATOM     12  C   UNL     1      21.982   5.884  20.241  0.00  0.00    +0.192 C 
ATOM     13  C   UNL     1      24.161   5.885  21.240  0.00  0.00    +0.168 C 
ATOM     14  C   UNL     1      20.627   5.727  20.889  0.00  0.00    +0.235 C 
ATOM     15  C   UNL     1      23.670   7.313  21.028  0.00  0.00    +0.190 C 
ATOM     16  C   UNL     1      20.978   5.709  22.358  0.00  0.00    +0.207 C 
ENDROOT
BRANCH  13   6
ATOM      6  N   UNL     1      25.183   5.426  20.297  0.00  0.00    -0.217 N 
ATOM      7  N   UNL     1      25.675   6.257  19.372  0.00  0.00    -0.043 NA
ATOM      8  N   UNL     1      26.627   4.248  19.200  0.00  0.00    -0.108 NA
ATOM      9  N   UNL     1      26.560   5.529  18.701  0.00  0.00    -0.023 NA
ATOM     17  C   UNL     1      25.764   4.207  20.189  0.00  0.00    +0.182 A 
BRANCH  17  19
ATOM     19  C   UNL     1      25.464   3.078  21.031  0.00  0.00    +0.021 A 
ATOM     20  C   UNL     1      26.057   2.968  22.290  0.00  0.00    +0.011 A 
ATOM     21  C   UNL     1      24.581   2.091  20.591  0.00  0.00    +0.011 A 
ATOM     23  C   UNL     1      25.768   1.874  23.106  0.00  0.00    +0.001 A 
ATOM     24  C   UNL     1      24.292   0.997  21.408  0.00  0.00    +0.001 A 
ATOM     25  C   UNL     1      24.886   0.889  22.665  0.00  0.00    +0.000 A 
ENDBRANCH  17  19
ENDBRANCH  13   6
BRANCH  14   3
ATOM      3  O   UNL     1      19.727   6.765  20.571  0.00  0.00    -0.442 OA
BRANCH   3  18
ATOM      4  O   UNL     1      18.182   5.406  19.574  0.00  0.00    -0.226 OA
ATOM     10  N   UNL     1      17.548   7.297  20.798  0.00  0.00    -0.251 N 
ATOM     18  C   UNL     1      18.438   6.395  20.248  0.00  0.00    +0.405 C 
ATOM     33  H   UNL     1      17.954   8.061  21.333  0.00  0.00    +0.158 HD
BRANCH  10  22
ATOM     22  C   UNL     1      16.136   7.290  20.711  0.00  0.00    +0.036 A 
ATOM     26  C   UNL     1      15.385   7.565  21.842  0.00  0.00    +0.024 A 
ATOM     27  C   UNL     1      15.532   7.009  19.496  0.00  0.00    +0.024 A 
ATOM     28  C   UNL     1      13.993   7.559  21.757  0.00  0.00    +0.013 A 
ATOM     29  C   UNL     1      14.140   7.002  19.411  0.00  0.00    +0.013 A 
ATOM     30  C   UNL     1      13.370   7.278  20.542  0.00  0.00    +0.017 A 
BRANCH  30  31
ATOM      5  O   UNL     1      11.324   7.816  19.499  0.00  0.00    -0.292 OA
ATOM     31  C   UNL     1      11.919   7.273  20.451  0.00  0.00    +0.160 C 
ATOM     32  C   UNL     1      11.084   6.595  21.532  0.00  0.00    +0.091 C 
ENDBRANCH  30  31
ENDBRANCH  10  22
ENDBRANCH   3  18
ENDBRANCH  14   3
TORSDOF 6
ENDMDL
MODEL 5
REMARK VINA RESULT:      -7.8      2.881     11.372
REMARK  Name = 11886048
REMARK  7 active torsions:
REMARK  status: ('A' for Active; 'I' for Inactive)
REMARK    1  A    between atoms: O_3  and  C_14
REMARK    2  A    between atoms: O_3  and  C_18
REMARK    3  A    between atoms: N_6  and  C_13
REMARK    4  A    between atoms: N_10  and  C_22
REMARK    5  A    between atoms: C_17  and  C_19
REMARK    6  A    between atoms: C_30  and  C_31
REMARK    7  A    between atoms: C_31  and  C_32
REMARK                            x       y       z     vdW  Elec       q    Type
REMARK                         _______ _______ _______ _____ _____    ______ ____
ROOT
ATOM      1  O   UNL     1      21.943   6.449  20.139  0.00  0.00    -0.368 OA
ATOM      2  O   UNL     1      21.304   5.433  22.988  0.00  0.00    -0.368 OA
ATOM     11  C   UNL     1      21.855   4.776  21.824  0.00  0.00    +0.177 C 
ATOM     12  C   UNL     1      21.144   5.356  20.617  0.00  0.00    +0.192 C 
ATOM     13  C   UNL     1      23.303   5.189  21.646  0.00  0.00    +0.168 C 
ATOM     14  C   UNL     1      19.836   5.833  21.200  0.00  0.00    +0.235 C 
ATOM     15  C   UNL     1      23.189   6.485  20.851  0.00  0.00    +0.190 C 
ATOM     16  C   UNL     1      20.255   6.316  22.568  0.00  0.00    +0.207 C 
ENDROOT
BRANCH  13   6
ATOM      6  N   UNL     1      24.113   4.140  21.024  0.00  0.00    -0.217 N 
ATOM      7  N   UNL     1      24.411   4.195  19.721  0.00  0.00    -0.043 NA
ATOM      8  N   UNL     1      25.304   2.374  20.648  0.00  0.00    -0.108 NA
ATOM      9  N   UNL     1      25.141   3.109  19.496  0.00  0.00    -0.023 NA
ATOM     17  C   UNL     1      24.658   3.032  21.583  0.00  0.00    +0.182 A 
BRANCH  17  19
ATOM     19  C   UNL     1      24.531   2.667  22.970  0.00  0.00    +0.021 A 
ATOM     20  C   UNL     1      23.616   1.685  23.354  0.00  0.00    +0.011 A 
ATOM     21  C   UNL     1      25.321   3.295  23.935  0.00  0.00    +0.011 A 
ATOM     23  C   UNL     1      23.491   1.333  24.698  0.00  0.00    +0.001 A 
ATOM     24  C   UNL     1      25.196   2.942  25.279  0.00  0.00    +0.001 A 
ATOM     25  C   UNL     1      24.281   1.961  25.660  0.00  0.00    +0.000 A 
ENDBRANCH  17  19
ENDBRANCH  13   6
BRANCH  14   3
ATOM      3  O   UNL     1      19.220   6.851  20.443  0.00  0.00    -0.442 OA
BRANCH   3  18
ATOM      4  O   UNL     1      17.597   5.788  19.232  0.00  0.00    -0.226 OA
ATOM     10  N   UNL     1      17.082   7.507  20.736  0.00  0.00    -0.251 N 
ATOM     18  C   UNL     1      17.913   6.636  20.056  0.00  0.00    +0.405 C 
ATOM     33  H   UNL     1      17.534   8.143  21.387  0.00  0.00    +0.158 HD
BRANCH  10  22
ATOM     22  C   UNL     1      15.676   7.622  20.638  0.00  0.00    +0.036 A 
ATOM     26  C   UNL     1      14.901   7.459  21.775  0.00  0.00    +0.024 A 
ATOM     27  C   UNL     1      15.101   7.896  19.407  0.00  0.00    +0.024 A 
ATOM     28  C   UNL     1      13.514   7.573  21.679  0.00  0.00    +0.013 A 
ATOM     29  C   UNL     1      13.714   8.010  19.312  0.00  0.00    +0.013 A 
ATOM     30  C   UNL     1      12.920   7.849  20.448  0.00  0.00    +0.017 A 
BRANCH  30  31
ATOM      5  O   UNL     1      10.927   8.396  19.312  0.00  0.00    -0.292 OA
ATOM     31  C   UNL     1      11.475   7.970  20.348  0.00  0.00    +0.160 C 
ATOM     32  C   UNL     1      10.587   7.572  21.523  0.00  0.00    +0.091 C 
ENDBRANCH  30  31
ENDBRANCH  10  22
ENDBRANCH   3  18
ENDBRANCH  14   3
TORSDOF 6
ENDMDL
MODEL 6
REMARK VINA RESULT:      -7.8     14.023     14.873
REMARK  Name = 11886048
REMARK  7 active torsions:
REMARK  status: ('A' for Active; 'I' for Inactive)
REMARK    1  A    between atoms: O_3  and  C_14
REMARK    2  A    between atoms: O_3  and  C_18
REMARK    3  A    between atoms: N_6  and  C_13
REMARK    4  A    between atoms: N_10  and  C_22
REMARK    5  A    between atoms: C_17  and  C_19
REMARK    6  A    between atoms: C_30  and  C_31
REMARK    7  A    between atoms: C_31  and  C_32
REMARK                            x       y       z     vdW  Elec       q    Type
REMARK                         _______ _______ _______ _____ _____    ______ ____
ROOT
ATOM      1  O   UNL     1      14.675   6.870   6.605  0.00  0.00    -0.368 OA
ATOM      2  O   UNL     1      13.453   9.648   6.014  0.00  0.00    -0.368 OA
ATOM     11  C   UNL     1      13.342   8.375   5.338  0.00  0.00    +0.177 C 
ATOM     12  C   UNL     1      14.699   7.706   5.438  0.00  0.00    +0.192 C 
ATOM     13  C   UNL     1      12.413   7.466   6.119  0.00  0.00    +0.168 C 
ATOM     14  C   UNL     1      15.635   8.878   5.608  0.00  0.00    +0.235 C 
ATOM     15  C   UNL     1      13.346   6.831   7.145  0.00  0.00    +0.190 C 
ATOM     16  C   UNL     1      14.809   9.824   6.448  0.00  0.00    +0.207 C 
ENDROOT
BRANCH  13   6
ATOM      6  N   UNL     1      11.693   6.526   5.258  0.00  0.00    -0.217 N 
ATOM      7  N   UNL     1      12.014   6.408   3.964  0.00  0.00    -0.043 NA
ATOM      8  N   UNL     1      10.340   5.028   4.481  0.00  0.00    -0.108 NA
ATOM      9  N   UNL     1      11.181   5.489   3.493  0.00  0.00    -0.023 NA
ATOM     17  C   UNL     1      10.676   5.685   5.566  0.00  0.00    +0.182 A 
BRANCH  17  19
ATOM     19  C   UNL     1      10.086   5.558   6.874  0.00  0.00    +0.021 A 
ATOM     20  C   UNL     1       9.447   6.652   7.461  0.00  0.00    +0.011 A 
ATOM     21  C   UNL     1      10.153   4.344   7.558  0.00  0.00    +0.011 A 
ATOM     23  C   UNL     1       8.876   6.531   8.728  0.00  0.00    +0.001 A 
ATOM     24  C   UNL     1       9.582   4.223   8.825  0.00  0.00    +0.001 A 
ATOM     25  C   UNL     1       8.945   5.317   9.410  0.00  0.00    +0.000 A 
ENDBRANCH  17  19
ENDBRANCH  13   6
BRANCH  14   3
ATOM      3  O   UNL     1      16.853   8.540   6.233  0.00  0.00    -0.442 OA
BRANCH   3  18
ATOM      4  O   UNL     1      18.026   9.626   4.598  0.00  0.00    -0.226 OA
ATOM     10  N   UNL     1      19.083   8.217   6.139  0.00  0.00    -0.251 N 
ATOM     18  C   UNL     1      18.011   8.867   5.559  0.00  0.00    +0.405 C 
ATOM     33  H   UNL     1      18.870   7.624   6.937  0.00  0.00    +0.158 HD
BRANCH  10  22
ATOM     22  C   UNL     1      20.444   8.275   5.762  0.00  0.00    +0.036 A 
ATOM     26  C   UNL     1      21.215   9.355   6.161  0.00  0.00    +0.024 A 
ATOM     27  C   UNL     1      20.982   7.249   5.000  0.00  0.00    +0.024 A 
ATOM     28  C   UNL     1      22.557   9.413   5.789  0.00  0.00    +0.013 A 
ATOM     29  C   UNL     1      22.326   7.307   4.628  0.00  0.00    +0.013 A 
ATOM     30  C   UNL     1      23.113   8.389   5.024  0.00  0.00    +0.017 A 
BRANCH  30  31
ATOM      5  O   UNL     1      24.869   8.946   3.550  0.00  0.00    -0.292 OA
ATOM     31  C   UNL     1      24.514   8.447   4.637  0.00  0.00    +0.160 C 
ATOM     32  C   UNL     1      25.591   7.893   5.564  0.00  0.00    +0.091 C 
ENDBRANCH  30  31
ENDBRANCH  10  22
ENDBRANCH   3  18
ENDBRANCH  14   3
TORSDOF 6
ENDMDL
MODEL 7
REMARK VINA RESULT:      -7.8      5.432     12.823
REMARK  Name = 11886048
REMARK  7 active torsions:
REMARK  status: ('A' for Active; 'I' for Inactive)
REMARK    1  A    between atoms: O_3  and  C_14
REMARK    2  A    between atoms: O_3  and  C_18
REMARK    3  A    between atoms: N_6  and  C_13
REMARK    4  A    between atoms: N_10  and  C_22
REMARK    5  A    between atoms: C_17  and  C_19
REMARK    6  A    between atoms: C_30  and  C_31
REMARK    7  A    between atoms: C_31  and  C_32
REMARK                            x       y       z     vdW  Elec       q    Type
REMARK                         _______ _______ _______ _____ _____    ______ ____
ROOT
ATOM      1  O   UNL     1      13.523   8.892  15.279  0.00  0.00    -0.368 OA
ATOM      2  O   UNL     1      14.923  11.092  16.940  0.00  0.00    -0.368 OA
ATOM     11  C   UNL     1      13.847  10.179  17.251  0.00  0.00    +0.177 C 
ATOM     12  C   UNL     1      13.018  10.033  15.990  0.00  0.00    +0.192 C 
ATOM     13  C   UNL     1      14.413   8.793  17.495  0.00  0.00    +0.168 C 
ATOM     14  C   UNL     1      13.304  11.321  15.255  0.00  0.00    +0.235 C 
ATOM     15  C   UNL     1      14.492   8.209  16.089  0.00  0.00    +0.190 C 
ATOM     16  C   UNL     1      14.754  11.567  15.597  0.00  0.00    +0.207 C 
ENDROOT
BRANCH  13   6
ATOM      6  N   UNL     1      13.615   8.022  18.451  0.00  0.00    -0.217 N 
ATOM      7  N   UNL     1      12.279   8.068  18.413  0.00  0.00    -0.043 NA
ATOM      8  N   UNL     1      12.966   6.724  20.054  0.00  0.00    -0.108 NA
ATOM      9  N   UNL     1      11.886   7.270  19.399  0.00  0.00    -0.023 NA
ATOM     17  C   UNL     1      14.028   7.204  19.450  0.00  0.00    +0.182 A 
BRANCH  17  19
ATOM     19  C   UNL     1      15.405   6.930  19.768  0.00  0.00    +0.021 A 
ATOM     20  C   UNL     1      16.191   6.183  18.887  0.00  0.00    +0.011 A 
ATOM     21  C   UNL     1      15.959   7.408  20.957  0.00  0.00    +0.011 A 
ATOM     23  C   UNL     1      17.525   5.916  19.196  0.00  0.00    +0.001 A 
ATOM     24  C   UNL     1      17.293   7.141  21.264  0.00  0.00    +0.001 A 
ATOM     25  C   UNL     1      18.075   6.394  20.383  0.00  0.00    +0.000 A 
ENDBRANCH  17  19
ENDBRANCH  13   6
BRANCH  14   3
ATOM      3  O   UNL     1      13.094  11.234  13.864  0.00  0.00    -0.442 OA
BRANCH   3  18
ATOM      4  O   UNL     1      12.931  13.331  12.966  0.00  0.00    -0.226 OA
ATOM     10  N   UNL     1      11.081  11.903  13.098  0.00  0.00    -0.251 N 
ATOM     18  C   UNL     1      12.402  12.270  13.271  0.00  0.00    +0.405 C 
ATOM     33  H   UNL     1      10.828  10.971  13.416  0.00  0.00    +0.158 HD
BRANCH  10  22
ATOM     22  C   UNL     1      10.034  12.665  12.530  0.00  0.00    +0.036 A 
ATOM     26  C   UNL     1       9.655  13.853  13.133  0.00  0.00    +0.024 A 
ATOM     27  C   UNL     1       9.408  12.208  11.381  0.00  0.00    +0.024 A 
ATOM     28  C   UNL     1       8.623  14.606  12.573  0.00  0.00    +0.013 A 
ATOM     29  C   UNL     1       8.375  12.961  10.821  0.00  0.00    +0.013 A 
ATOM     30  C   UNL     1       7.983  14.160  11.417  0.00  0.00    +0.017 A 
BRANCH  30  31
ATOM      5  O   UNL     1       6.101  15.576  11.543  0.00  0.00    -0.292 OA
ATOM     31  C   UNL     1       6.908  14.945  10.832  0.00  0.00    +0.160 C 
ATOM     32  C   UNL     1       6.743  15.013   9.318  0.00  0.00    +0.091 C 
ENDBRANCH  30  31
ENDBRANCH  10  22
ENDBRANCH   3  18
ENDBRANCH  14   3
TORSDOF 6
ENDMDL
MODEL 8
REMARK VINA RESULT:      -7.8     28.415     32.473
REMARK  Name = 11886048
REMARK  7 active torsions:
REMARK  status: ('A' for Active; 'I' for Inactive)
REMARK    1  A    between atoms: O_3  and  C_14
REMARK    2  A    between atoms: O_3  and  C_18
REMARK    3  A    between atoms: N_6  and  C_13
REMARK    4  A    between atoms: N_10  and  C_22
REMARK    5  A    between atoms: C_17  and  C_19
REMARK    6  A    between atoms: C_30  and  C_31
REMARK    7  A    between atoms: C_31  and  C_32
REMARK                            x       y       z     vdW  Elec       q    Type
REMARK                         _______ _______ _______ _____ _____    ______ ____
ROOT
ATOM      1  O   UNL     1      -9.964 -10.015  17.754  0.00  0.00    -0.368 OA
ATOM      2  O   UNL     1      -8.170  -9.730  15.252  0.00  0.00    -0.368 OA
ATOM     11  C   UNL     1      -7.888  -9.626  16.666  0.00  0.00    +0.177 C 
ATOM     12  C   UNL     1      -9.092  -8.965  17.306  0.00  0.00    +0.192 C 
ATOM     13  C   UNL     1      -7.845 -11.013  17.278  0.00  0.00    +0.168 C 
ATOM     14  C   UNL     1      -9.695  -8.191  16.158  0.00  0.00    +0.235 C 
ATOM     15  C   UNL     1      -9.311 -11.284  17.599  0.00  0.00    +0.190 C 
ATOM     16  C   UNL     1      -9.434  -9.107  14.986  0.00  0.00    +0.207 C 
ENDROOT
BRANCH  13   6
ATOM      6  N   UNL     1      -6.927 -11.095  18.416  0.00  0.00    -0.217 N 
ATOM      7  N   UNL     1      -7.377 -10.930  19.665  0.00  0.00    -0.043 NA
ATOM      8  N   UNL     1      -5.181 -11.315  19.672  0.00  0.00    -0.108 NA
ATOM      9  N   UNL     1      -6.301 -11.065  20.431  0.00  0.00    -0.023 NA
ATOM     17  C   UNL     1      -5.592 -11.329  18.426  0.00  0.00    +0.182 A 
BRANCH  17  19
ATOM     19  C   UNL     1      -4.791 -11.551  17.250  0.00  0.00    +0.021 A 
ATOM     20  C   UNL     1      -3.932 -10.551  16.790  0.00  0.00    +0.011 A 
ATOM     21  C   UNL     1      -4.871 -12.766  16.566  0.00  0.00    +0.011 A 
ATOM     23  C   UNL     1      -3.157 -10.765  15.651  0.00  0.00    +0.001 A 
ATOM     24  C   UNL     1      -4.095 -12.979  15.427  0.00  0.00    +0.001 A 
ATOM     25  C   UNL     1      -3.238 -11.978  14.969  0.00  0.00    +0.000 A 
ENDBRANCH  17  19
ENDBRANCH  13   6
BRANCH  14   3
ATOM      3  O   UNL     1     -11.068  -7.917  16.323  0.00  0.00    -0.442 OA
BRANCH   3  18
ATOM      4  O   UNL     1     -11.328  -5.647  16.416  0.00  0.00    -0.226 OA
ATOM     10  N   UNL     1     -12.205  -6.913  14.654  0.00  0.00    -0.251 N 
ATOM     18  C   UNL     1     -11.526  -6.709  15.839  0.00  0.00    +0.405 C 
ATOM     33  H   UNL     1     -12.265  -7.875  14.330  0.00  0.00    +0.158 HD
BRANCH  10  22
ATOM     22  C   UNL     1     -12.831  -5.948  13.832  0.00  0.00    +0.036 A 
ATOM     26  C   UNL     1     -12.064  -4.947  13.257  0.00  0.00    +0.024 A 
ATOM     27  C   UNL     1     -14.198  -6.022  13.616  0.00  0.00    +0.024 A 
ATOM     28  C   UNL     1     -12.680  -3.995  12.445  0.00  0.00    +0.013 A 
ATOM     29  C   UNL     1     -14.814  -5.069  12.804  0.00  0.00    +0.013 A 
ATOM     30  C   UNL     1     -14.054  -4.056  12.218  0.00  0.00    +0.017 A 
BRANCH  30  31
ATOM      5  O   UNL     1     -15.486  -2.220  11.840  0.00  0.00    -0.292 OA
ATOM     31  C   UNL     1     -14.697  -3.064  11.371  0.00  0.00    +0.160 C 
ATOM     32  C   UNL     1     -14.417  -3.036   9.872  0.00  0.00    +0.091 C 
ENDBRANCH  30  31
ENDBRANCH  10  22
ENDBRANCH   3  18
ENDBRANCH  14   3
TORSDOF 6
ENDMDL
MODEL 9
REMARK VINA RESULT:      -7.7     27.719     30.049
REMARK  Name = 11886048
REMARK  7 active torsions:
REMARK  status: ('A' for Active; 'I' for Inactive)
REMARK    1  A    between atoms: O_3  and  C_14
REMARK    2  A    between atoms: O_3  and  C_18
REMARK    3  A    between atoms: N_6  and  C_13
REMARK    4  A    between atoms: N_10  and  C_22
REMARK    5  A    between atoms: C_17  and  C_19
REMARK    6  A    between atoms: C_30  and  C_31
REMARK    7  A    between atoms: C_31  and  C_32
REMARK                            x       y       z     vdW  Elec       q    Type
REMARK                         _______ _______ _______ _____ _____    ______ ____
ROOT
ATOM      1  O   UNL     1      -5.197  -9.599  12.301  0.00  0.00    -0.368 OA
ATOM      2  O   UNL     1      -3.679  -9.769   9.613  0.00  0.00    -0.368 OA
ATOM     11  C   UNL     1      -4.853 -10.450  10.110  0.00  0.00    +0.177 C 
ATOM     12  C   UNL     1      -4.622 -10.703  11.586  0.00  0.00    +0.192 C 
ATOM     13  C   UNL     1      -6.041  -9.509  10.068  0.00  0.00    +0.168 C 
ATOM     14  C   UNL     1      -3.115 -10.712  11.689  0.00  0.00    +0.235 C 
ATOM     15  C   UNL     1      -5.925  -8.761  11.391  0.00  0.00    +0.190 C 
ATOM     16  C   UNL     1      -2.722  -9.663  10.676  0.00  0.00    +0.207 C 
ENDROOT
BRANCH  13   6
ATOM      6  N   UNL     1      -7.307 -10.212   9.853  0.00  0.00    -0.217 N 
ATOM      7  N   UNL     1      -7.863 -10.927  10.838  0.00  0.00    -0.043 NA
ATOM      8  N   UNL     1      -9.124 -11.019   9.002  0.00  0.00    -0.108 NA
ATOM      9  N   UNL     1      -8.976 -11.420  10.310  0.00  0.00    -0.023 NA
ATOM     17  C   UNL     1      -8.078 -10.272   8.739  0.00  0.00    +0.182 A 
BRANCH  17  19
ATOM     19  C   UNL     1      -7.771  -9.614   7.495  0.00  0.00    +0.021 A 
ATOM     20  C   UNL     1      -8.335  -8.370   7.205  0.00  0.00    +0.011 A 
ATOM     21  C   UNL     1      -6.912 -10.219   6.576  0.00  0.00    +0.011 A 
ATOM     23  C   UNL     1      -8.040  -7.734   5.999  0.00  0.00    +0.001 A 
ATOM     24  C   UNL     1      -6.617  -9.581   5.371  0.00  0.00    +0.001 A 
ATOM     25  C   UNL     1      -7.182  -8.339   5.083  0.00  0.00    +0.000 A 
ENDBRANCH  17  19
ENDBRANCH  13   6
BRANCH  14   3
ATOM      3  O   UNL     1      -2.637 -10.409  12.980  0.00  0.00    -0.442 OA
BRANCH   3  18
ATOM      4  O   UNL     1      -3.085 -12.360  14.085  0.00  0.00    -0.226 OA
ATOM     10  N   UNL     1      -3.750 -10.284  14.937  0.00  0.00    -0.251 N 
ATOM     18  C   UNL     1      -3.161 -11.140  14.026  0.00  0.00    +0.405 C 
ATOM     33  H   UNL     1      -3.711  -9.293  14.713  0.00  0.00    +0.158 HD
BRANCH  10  22
ATOM     22  C   UNL     1      -4.401 -10.616  16.147  0.00  0.00    +0.036 A 
ATOM     26  C   UNL     1      -3.661 -11.140  17.195  0.00  0.00    +0.024 A 
ATOM     27  C   UNL     1      -5.766 -10.409  16.263  0.00  0.00    +0.024 A 
ATOM     28  C   UNL     1      -4.302 -11.467  18.389  0.00  0.00    +0.013 A 
ATOM     29  C   UNL     1      -6.408 -10.737  17.458  0.00  0.00    +0.013 A 
ATOM     30  C   UNL     1      -5.676 -11.265  18.521  0.00  0.00    +0.017 A 
BRANCH  30  31
ATOM      5  O   UNL     1      -5.849 -11.313  20.873  0.00  0.00    -0.292 OA
ATOM     31  C   UNL     1      -6.345 -11.605  19.767  0.00  0.00    +0.160 C 
ATOM     32  C   UNL     1      -7.684 -12.334  19.745  0.00  0.00    +0.091 C 
ENDBRANCH  30  31
ENDBRANCH  10  22
ENDBRANCH   3  18
ENDBRANCH  14   3
TORSDOF 6
ENDMDL
MODEL 10
REMARK VINA RESULT:      -7.7     27.509     29.838
REMARK  Name = 11886048
REMARK  7 active torsions:
REMARK  status: ('A' for Active; 'I' for Inactive)
REMARK    1  A    between atoms: O_3  and  C_14
REMARK    2  A    between atoms: O_3  and  C_18
REMARK    3  A    between atoms: N_6  and  C_13
REMARK    4  A    between atoms: N_10  and  C_22
REMARK    5  A    between atoms: C_17  and  C_19
REMARK    6  A    between atoms: C_30  and  C_31
REMARK    7  A    between atoms: C_31  and  C_32
REMARK                            x       y       z     vdW  Elec       q    Type
REMARK                         _______ _______ _______ _____ _____    ______ ____
ROOT
ATOM      1  O   UNL     1      -4.565 -10.044  15.712  0.00  0.00    -0.368 OA
ATOM      2  O   UNL     1      -4.390 -13.129  15.603  0.00  0.00    -0.368 OA
ATOM     11  C   UNL     1      -4.473 -12.200  16.707  0.00  0.00    +0.177 C 
ATOM     12  C   UNL     1      -3.661 -10.982  16.317  0.00  0.00    +0.192 C 
ATOM     13  C   UNL     1      -5.894 -11.685  16.831  0.00  0.00    +0.168 C 
ATOM     14  C   UNL     1      -2.683 -11.543  15.312  0.00  0.00    +0.235 C 
ATOM     15  C   UNL     1      -5.914 -10.514  15.854  0.00  0.00    +0.190 C 
ATOM     16  C   UNL     1      -3.518 -12.583  14.603  0.00  0.00    +0.207 C 
ENDROOT
BRANCH  13   6
ATOM      6  N   UNL     1      -6.254 -11.357  18.212  0.00  0.00    -0.217 N 
ATOM      7  N   UNL     1      -5.416 -11.638  19.216  0.00  0.00    -0.043 NA
ATOM      8  N   UNL     1      -7.270 -10.674  19.994  0.00  0.00    -0.108 NA
ATOM      9  N   UNL     1      -6.045 -11.217  20.307  0.00  0.00    -0.023 NA
ATOM     17  C   UNL     1      -7.379 -10.772  18.690  0.00  0.00    +0.182 A 
BRANCH  17  19
ATOM     19  C   UNL     1      -8.487 -10.341  17.877  0.00  0.00    +0.021 A 
ATOM     20  C   UNL     1      -9.465 -11.258  17.487  0.00  0.00    +0.011 A 
ATOM     21  C   UNL     1      -8.585  -9.008  17.475  0.00  0.00    +0.011 A 
ATOM     23  C   UNL     1     -10.538 -10.843  16.699  0.00  0.00    +0.001 A 
ATOM     24  C   UNL     1      -9.659  -8.594  16.687  0.00  0.00    +0.001 A 
ATOM     25  C   UNL     1     -10.635  -9.511  16.298  0.00  0.00    +0.000 A 
ENDBRANCH  17  19
ENDBRANCH  13   6
BRANCH  14   3
ATOM      3  O   UNL     1      -2.172 -10.576  14.422  0.00  0.00    -0.442 OA
BRANCH   3  18
ATOM      4  O   UNL     1      -1.488 -11.542  12.465  0.00  0.00    -0.226 OA
ATOM     10  N   UNL     1      -3.416 -10.219  12.575  0.00  0.00    -0.251 N 
ATOM     18  C   UNL     1      -2.290 -10.846  13.074  0.00  0.00    +0.405 C 
ATOM     33  H   UNL     1      -3.963  -9.681  13.241  0.00  0.00    +0.158 HD
BRANCH  10  22
ATOM     22  C   UNL     1      -3.904 -10.235  11.248  0.00  0.00    +0.036 A 
ATOM     26  C   UNL     1      -3.656  -9.152  10.420  0.00  0.00    +0.024 A 
ATOM     27  C   UNL     1      -4.621 -11.334  10.800  0.00  0.00    +0.024 A 
ATOM     28  C   UNL     1      -4.136  -9.167   9.111  0.00  0.00    +0.013 A 
ATOM     29  C   UNL     1      -5.101 -11.348   9.490  0.00  0.00    +0.013 A 
ATOM     30  C   UNL     1      -4.858 -10.265   8.646  0.00  0.00    +0.017 A 
BRANCH  30  31
ATOM      5  O   UNL     1      -6.186  -9.439   6.879  0.00  0.00    -0.292 OA
ATOM     31  C   UNL     1      -5.358 -10.282   7.280  0.00  0.00    +0.160 C 
ATOM     32  C   UNL     1      -4.875 -11.344   6.299  0.00  0.00    +0.091 C 
ENDBRANCH  30  31
ENDBRANCH  10  22
ENDBRANCH   3  18
ENDBRANCH  14   3
TORSDOF 6
ENDMDL
