REMARK  Name = 11884075
REMARK  8 active torsions:
REMARK  status: ('A' for Active; 'I' for Inactive)
REMARK    1  A    between atoms: S_1  and  N_9
REMARK    2  A    between atoms: S_1  and  C_18
REMARK    3  A    between atoms: O_4  and  C_15
REMARK    4  A    between atoms: O_4  and  C_19
REMARK    5  A    between atoms: O_8  and  C_33
REMARK    6  A    between atoms: O_8  and  C_34
REMARK    7  A    between atoms: N_9  and  C_14
REMARK    8  A    between atoms: N_10  and  C_25
REMARK                            x       y       z     vdW  Elec       q    Type
REMARK                         _______ _______ _______ _____ _____    ______ ____
ROOT
ATOM      2  O   UNL     1      -0.485   1.559  -0.867  0.00  0.00    -0.369 OA
ATOM      3  O   UNL     1       1.413   1.912   1.527  0.00  0.00    -0.368 OA
ATOM     12  C   UNL     1       1.328   0.892   0.511  0.00  0.00    +0.171 C 
ATOM     13  C   UNL     1      -0.145   0.683   0.220  0.00  0.00    +0.191 C 
ATOM     14  C   UNL     1       1.885   1.415  -0.790  0.00  0.00    +0.133 C 
ATOM     15  C   UNL     1      -0.799   1.112   1.511  0.00  0.00    +0.235 C 
ATOM     16  C   UNL     1       0.709   2.166  -1.383  0.00  0.00    +0.183 C 
ATOM     17  C   UNL     1       0.086   2.257   1.951  0.00  0.00    +0.207 C 
ENDROOT
BRANCH  14   9
ATOM      9  N   UNL     1       2.254   0.283  -1.674  0.00  0.00    -0.182 NA
ATOM     35  H   UNL     1       1.632  -0.534  -1.688  0.00  0.00    +0.148 HD
BRANCH   9   1
ATOM      1  S   UNL     1       3.826   0.182  -2.305  0.00  0.00    +0.061 S 
ATOM      5  O   UNL     1       4.153   1.419  -2.989  0.00  0.00    -0.153 OA
ATOM      6  O   UNL     1       3.975  -1.089  -2.987  0.00  0.00    -0.153 OA
BRANCH   1  18
ATOM     11  N   UNL     1       3.998  -2.087  -0.380  0.00  0.00    -0.253 NA
ATOM     18  C   UNL     1       4.805   0.097  -0.836  0.00  0.00    +0.131 A 
ATOM     20  C   UNL     1       4.772  -1.039  -0.042  0.00  0.00    +0.097 A 
ATOM     21  C   UNL     1       5.589   1.204  -0.525  0.00  0.00    +0.031 A 
ATOM     22  C   UNL     1       5.573  -1.049   1.119  0.00  0.00    +0.002 A 
ATOM     23  C   UNL     1       6.376   1.187   0.620  0.00  0.00    +0.003 A 
ATOM     24  C   UNL     1       6.369   0.063   1.442  0.00  0.00    +0.010 A 
ATOM     26  C   UNL     1       5.548  -2.193   1.928  0.00  0.00    +0.011 A 
ATOM     27  C   UNL     1       4.002  -3.172   0.428  0.00  0.00    +0.111 A 
ATOM     28  C   UNL     1       4.751  -3.275   1.582  0.00  0.00    +0.020 A 
ENDBRANCH   1  18
ENDBRANCH   9   1
ENDBRANCH  14   9
BRANCH  15   4
ATOM      4  O   UNL     1      -2.142   1.510   1.357  0.00  0.00    -0.442 OA
BRANCH   4  19
ATOM      7  O   UNL     1      -2.692  -0.601   0.669  0.00  0.00    -0.226 OA
ATOM     10  N   UNL     1      -4.295   1.098   0.823  0.00  0.00    -0.251 N 
ATOM     19  C   UNL     1      -3.031   0.549   0.919  0.00  0.00    +0.405 C 
ATOM     36  H   UNL     1      -4.378   2.080   1.077  0.00  0.00    +0.158 HD
BRANCH  10  25
ATOM     25  C   UNL     1      -5.490   0.464   0.415  0.00  0.00    +0.037 A 
ATOM     29  C   UNL     1      -6.669   1.192   0.385  0.00  0.00    +0.027 A 
ATOM     30  C   UNL     1      -5.460  -0.873   0.052  0.00  0.00    +0.027 A 
ATOM     31  C   UNL     1      -7.849   0.567  -0.018  0.00  0.00    +0.047 A 
ATOM     32  C   UNL     1      -6.640  -1.499  -0.351  0.00  0.00    +0.047 A 
ATOM     33  C   UNL     1      -7.834  -0.779  -0.386  0.00  0.00    +0.120 A 
BRANCH  33   8
ATOM      8  O   UNL     1      -8.985  -1.389  -0.781  0.00  0.00    -0.495 OA
ATOM     34  C   UNL     1      -8.899  -2.766  -1.144  0.00  0.00    +0.277 C 
ENDBRANCH  33   8
ENDBRANCH  10  25
ENDBRANCH   4  19
ENDBRANCH  15   4
TORSDOF 7
