MODEL 1
REMARK VINA RESULT:      -6.2      0.000      0.000
REMARK  Name = 28961842
REMARK  11 active torsions:
REMARK  status: ('A' for Active; 'I' for Inactive)
REMARK    1  A    between atoms: O_3  and  C_11
REMARK    2  A    between atoms: O_4  and  C_17
REMARK    3  A    between atoms: O_4  and  C_20
REMARK    4  A    between atoms: O_5  and  C_18
REMARK    5  A    between atoms: N_6  and  C_8
REMARK    6  A    between atoms: N_7  and  C_16
REMARK    7  A    between atoms: N_7  and  C_19
REMARK    8  A    between atoms: C_9  and  C_16
REMARK    9  A    between atoms: C_10  and  C_17
REMARK   10  A    between atoms: C_13  and  C_18
REMARK   11  A    between atoms: C_19  and  C_21
REMARK                            x       y       z     vdW  Elec       q    Type
REMARK                         _______ _______ _______ _____ _____    ______ ____
ROOT
ATOM      2  O   UNL     1      11.647   7.257  19.842  0.00  0.00    -0.366 OA
ATOM      8  C   UNL     1      12.914   9.265  20.015  0.00  0.00    +0.118 C 
ATOM      9  C   UNL     1      12.863   7.876  19.365  0.00  0.00    +0.152 C 
ATOM     11  C   UNL     1      12.096   9.080  21.284  0.00  0.00    +0.165 C 
ATOM     13  C   UNL     1      11.006   8.141  20.780  0.00  0.00    +0.174 C 
ENDROOT
BRANCH   8   6
ATOM      6  N   UNL     1      14.235   9.836  20.207  0.00  0.00    -0.289 NA
ATOM     10  C   UNL     1      14.804  10.526  19.045  0.00  0.00    +0.083 C 
ATOM     12  C   UNL     1      14.298  10.767  21.333  0.00  0.00    +0.085 C 
ATOM     14  C   UNL     1      16.016  11.207  19.677  0.00  0.00    +0.022 C 
ATOM     15  C   UNL     1      15.570  11.569  21.090  0.00  0.00    +0.017 C 
BRANCH  10  17
ATOM     17  C   UNL     1      13.890  11.540  18.349  0.00  0.00    +0.178 C 
BRANCH  17   4
ATOM      4  O   UNL     1      14.022  11.382  16.948  0.00  0.00    -0.381 OA
ATOM     20  C   UNL     1      14.313  10.034  16.595  0.00  0.00    +0.194 C 
ENDBRANCH  17   4
ENDBRANCH  10  17
ENDBRANCH   8   6
BRANCH  11   3
ATOM      3  O   UNL     1      12.857   8.453  22.307  0.00  0.00    -0.388 OA
ATOM     27  H   UNL     1      13.758   8.815  22.267  0.00  0.00    +0.210 HD
ENDBRANCH  11   3
BRANCH   9  16
ATOM     16  C   UNL     1      14.012   6.928  19.689  0.00  0.00    +0.114 C 
BRANCH  16   7
ATOM      7  N   UNL     1      15.203   7.274  18.928  0.00  0.00    -0.310 NA
ATOM     28  H   UNL     1      15.571   8.164  19.262  0.00  0.00    +0.122 HD
BRANCH   7  19
ATOM     19  C   UNL     1      16.224   6.242  19.059  0.00  0.00    +0.116 C 
BRANCH  19  21
ATOM      1 CL   UNL     1      21.014   5.397  20.932  0.00  0.00    -0.084 Cl
ATOM     21  C   UNL     1      17.359   6.687  19.943  0.00  0.00    -0.032 A 
ATOM     22  C   UNL     1      18.524   5.926  20.018  0.00  0.00    +0.025 A 
ATOM     23  C   UNL     1      17.243   7.862  20.687  0.00  0.00    +0.005 A 
ATOM     24  C   UNL     1      19.576   6.339  20.837  0.00  0.00    +0.041 A 
ATOM     25  C   UNL     1      18.294   8.274  21.506  0.00  0.00    +0.002 A 
ATOM     26  C   UNL     1      19.461   7.513  21.581  0.00  0.00    +0.020 A 
ENDBRANCH  19  21
ENDBRANCH   7  19
ENDBRANCH  16   7
ENDBRANCH   9  16
BRANCH  13  18
ATOM     18  C   UNL     1      10.309   7.317  21.849  0.00  0.00    +0.190 C 
BRANCH  18   5
ATOM      5  O   UNL     1      10.499   5.941  21.563  0.00  0.00    -0.392 OA
ATOM     29  H   UNL     1      10.154   5.784  20.667  0.00  0.00    +0.210 HD
ENDBRANCH  18   5
ENDBRANCH  13  18
TORSDOF 10
ENDMDL
MODEL 2
REMARK VINA RESULT:      -5.9     30.899     32.593
REMARK  Name = 28961842
REMARK  11 active torsions:
REMARK  status: ('A' for Active; 'I' for Inactive)
REMARK    1  A    between atoms: O_3  and  C_11
REMARK    2  A    between atoms: O_4  and  C_17
REMARK    3  A    between atoms: O_4  and  C_20
REMARK    4  A    between atoms: O_5  and  C_18
REMARK    5  A    between atoms: N_6  and  C_8
REMARK    6  A    between atoms: N_7  and  C_16
REMARK    7  A    between atoms: N_7  and  C_19
REMARK    8  A    between atoms: C_9  and  C_16
REMARK    9  A    between atoms: C_10  and  C_17
REMARK   10  A    between atoms: C_13  and  C_18
REMARK   11  A    between atoms: C_19  and  C_21
REMARK                            x       y       z     vdW  Elec       q    Type
REMARK                         _______ _______ _______ _____ _____    ______ ____
ROOT
ATOM      2  O   UNL     1     -15.581   0.432  29.391  0.00  0.00    -0.366 OA
ATOM      8  C   UNL     1     -15.054   2.080  31.025  0.00  0.00    +0.118 C 
ATOM      9  C   UNL     1     -15.949   1.763  29.820  0.00  0.00    +0.152 C 
ATOM     11  C   UNL     1     -13.833   1.206  30.786  0.00  0.00    +0.165 C 
ATOM     13  C   UNL     1     -14.489  -0.039  30.203  0.00  0.00    +0.174 C 
ENDROOT
BRANCH   8   6
ATOM      6  N   UNL     1     -14.774   3.485  31.264  0.00  0.00    -0.289 NA
ATOM     10  C   UNL     1     -15.897   4.279  31.775  0.00  0.00    +0.083 C 
ATOM     12  C   UNL     1     -13.648   3.698  32.173  0.00  0.00    +0.085 C 
ATOM     14  C   UNL     1     -15.185   5.576  32.155  0.00  0.00    +0.022 C 
ATOM     15  C   UNL     1     -13.806   5.140  32.639  0.00  0.00    +0.017 C 
BRANCH  10  17
ATOM     17  C   UNL     1     -16.654   3.685  32.966  0.00  0.00    +0.178 C 
BRANCH  17   4
ATOM      4  O   UNL     1     -17.176   4.747  33.746  0.00  0.00    -0.381 OA
ATOM     20  C   UNL     1     -18.592   4.833  33.639  0.00  0.00    +0.194 C 
ENDBRANCH  17   4
ENDBRANCH  10  17
ENDBRANCH   8   6
BRANCH  11   3
ATOM      3  O   UNL     1     -12.951   1.793  29.839  0.00  0.00    -0.388 OA
ATOM     27  H   UNL     1     -13.485   2.087  29.082  0.00  0.00    +0.210 HD
ENDBRANCH  11   3
BRANCH   9  16
ATOM     16  C   UNL     1     -15.818   2.681  28.611  0.00  0.00    +0.114 C 
BRANCH  16   7
ATOM      7  N   UNL     1     -16.932   2.495  27.693  0.00  0.00    -0.310 NA
ATOM     28  H   UNL     1     -17.495   3.346  27.668  0.00  0.00    +0.122 HD
BRANCH   7  19
ATOM     19  C   UNL     1     -16.456   2.184  26.351  0.00  0.00    +0.116 C 
BRANCH  19  21
ATOM      1 CL   UNL     1     -13.964   4.922  22.682  0.00  0.00    -0.084 Cl
ATOM     21  C   UNL     1     -16.389   3.412  25.482  0.00  0.00    -0.032 A 
ATOM     22  C   UNL     1     -15.332   3.578  24.589  0.00  0.00    +0.025 A 
ATOM     23  C   UNL     1     -17.386   4.385  25.573  0.00  0.00    +0.005 A 
ATOM     24  C   UNL     1     -15.271   4.716  23.783  0.00  0.00    +0.041 A 
ATOM     25  C   UNL     1     -17.324   5.522  24.768  0.00  0.00    +0.002 A 
ATOM     26  C   UNL     1     -16.267   5.688  23.873  0.00  0.00    +0.020 A 
ENDBRANCH  19  21
ENDBRANCH   7  19
ENDBRANCH  16   7
ENDBRANCH   9  16
BRANCH  13  18
ATOM     18  C   UNL     1     -13.584  -0.921  29.360  0.00  0.00    +0.190 C 
BRANCH  18   5
ATOM      5  O   UNL     1     -12.361  -1.115  30.052  0.00  0.00    -0.392 OA
ATOM     29  H   UNL     1     -11.899  -1.852  29.615  0.00  0.00    +0.210 HD
ENDBRANCH  18   5
ENDBRANCH  13  18
TORSDOF 10
ENDMDL
MODEL 3
REMARK VINA RESULT:      -5.7     15.437     18.454
REMARK  Name = 28961842
REMARK  11 active torsions:
REMARK  status: ('A' for Active; 'I' for Inactive)
REMARK    1  A    between atoms: O_3  and  C_11
REMARK    2  A    between atoms: O_4  and  C_17
REMARK    3  A    between atoms: O_4  and  C_20
REMARK    4  A    between atoms: O_5  and  C_18
REMARK    5  A    between atoms: N_6  and  C_8
REMARK    6  A    between atoms: N_7  and  C_16
REMARK    7  A    between atoms: N_7  and  C_19
REMARK    8  A    between atoms: C_9  and  C_16
REMARK    9  A    between atoms: C_10  and  C_17
REMARK   10  A    between atoms: C_13  and  C_18
REMARK   11  A    between atoms: C_19  and  C_21
REMARK                            x       y       z     vdW  Elec       q    Type
REMARK                         _______ _______ _______ _____ _____    ______ ____
ROOT
ATOM      2  O   UNL     1      11.180   6.868   3.217  0.00  0.00    -0.366 OA
ATOM      8  C   UNL     1      12.181   5.990   1.244  0.00  0.00    +0.118 C 
ATOM      9  C   UNL     1      11.007   5.836   2.220  0.00  0.00    +0.152 C 
ATOM     11  C   UNL     1      13.254   6.646   2.099  0.00  0.00    +0.165 C 
ATOM     13  C   UNL     1      12.403   7.580   2.950  0.00  0.00    +0.174 C 
ENDROOT
BRANCH   8   6
ATOM      6  N   UNL     1      12.596   4.787   0.543  0.00  0.00    -0.289 NA
ATOM     10  C   UNL     1      11.598   4.202  -0.358  0.00  0.00    +0.083 C 
ATOM     12  C   UNL     1      13.821   4.971  -0.233  0.00  0.00    +0.085 C 
ATOM     14  C   UNL     1      12.446   3.168  -1.096  0.00  0.00    +0.022 C 
ATOM     15  C   UNL     1      13.827   3.803  -1.211  0.00  0.00    +0.017 C 
BRANCH  10  17
ATOM     17  C   UNL     1      10.920   5.170  -1.333  0.00  0.00    +0.178 C 
BRANCH  17   4
ATOM      4  O   UNL     1       9.517   4.998  -1.240  0.00  0.00    -0.381 OA
ATOM     20  C   UNL     1       8.831   5.696  -2.274  0.00  0.00    +0.194 C 
ENDBRANCH  17   4
ENDBRANCH  10  17
ENDBRANCH   8   6
BRANCH  11   3
ATOM      3  O   UNL     1      13.919   5.695   2.919  0.00  0.00    -0.388 OA
ATOM     27  H   UNL     1      14.718   6.120   3.274  0.00  0.00    +0.210 HD
ENDBRANCH  11   3
BRANCH   9  16
ATOM     16  C   UNL     1      10.902   4.506   2.958  0.00  0.00    +0.114 C 
BRANCH  16   7
ATOM      7  N   UNL     1      11.061   4.693   4.392  0.00  0.00    -0.310 NA
ATOM     28  H   UNL     1      11.223   5.681   4.589  0.00  0.00    +0.122 HD
BRANCH   7  19
ATOM     19  C   UNL     1       9.879   4.238   5.112  0.00  0.00    +0.116 C 
BRANCH  19  21
ATOM      1 CL   UNL     1       9.638   4.735  10.295  0.00  0.00    -0.084 Cl
ATOM     21  C   UNL     1       9.587   5.100   6.312  0.00  0.00    -0.032 A 
ATOM     22  C   UNL     1       9.732   4.579   7.596  0.00  0.00    +0.025 A 
ATOM     23  C   UNL     1       9.170   6.420   6.136  0.00  0.00    +0.005 A 
ATOM     24  C   UNL     1       9.462   5.379   8.708  0.00  0.00    +0.041 A 
ATOM     25  C   UNL     1       8.900   7.219   7.246  0.00  0.00    +0.002 A 
ATOM     26  C   UNL     1       9.046   6.698   8.533  0.00  0.00    +0.020 A 
ENDBRANCH  19  21
ENDBRANCH   7  19
ENDBRANCH  16   7
ENDBRANCH   9  16
BRANCH  13  18
ATOM     18  C   UNL     1      13.026   8.015   4.265  0.00  0.00    +0.190 C 
BRANCH  18   5
ATOM      5  O   UNL     1      12.945   6.941   5.188  0.00  0.00    -0.392 OA
ATOM     29  H   UNL     1      12.654   6.157   4.690  0.00  0.00    +0.210 HD
ENDBRANCH  18   5
ENDBRANCH  13  18
TORSDOF 10
ENDMDL
MODEL 4
REMARK VINA RESULT:      -5.6     13.692     16.203
REMARK  Name = 28961842
REMARK  11 active torsions:
REMARK  status: ('A' for Active; 'I' for Inactive)
REMARK    1  A    between atoms: O_3  and  C_11
REMARK    2  A    between atoms: O_4  and  C_17
REMARK    3  A    between atoms: O_4  and  C_20
REMARK    4  A    between atoms: O_5  and  C_18
REMARK    5  A    between atoms: N_6  and  C_8
REMARK    6  A    between atoms: N_7  and  C_16
REMARK    7  A    between atoms: N_7  and  C_19
REMARK    8  A    between atoms: C_9  and  C_16
REMARK    9  A    between atoms: C_10  and  C_17
REMARK   10  A    between atoms: C_13  and  C_18
REMARK   11  A    between atoms: C_19  and  C_21
REMARK                            x       y       z     vdW  Elec       q    Type
REMARK                         _______ _______ _______ _____ _____    ______ ____
ROOT
ATOM      2  O   UNL     1       9.082   5.572   6.880  0.00  0.00    -0.366 OA
ATOM      8  C   UNL     1      10.692   7.269   6.441  0.00  0.00    +0.118 C 
ATOM      9  C   UNL     1       9.760   6.239   5.791  0.00  0.00    +0.152 C 
ATOM     11  C   UNL     1      10.957   6.674   7.815  0.00  0.00    +0.165 C 
ATOM     13  C   UNL     1       9.591   6.076   8.130  0.00  0.00    +0.174 C 
ENDROOT
BRANCH   8   6
ATOM      6  N   UNL     1      11.878   7.631   5.683  0.00  0.00    -0.289 NA
ATOM     10  C   UNL     1      11.660   8.561   4.570  0.00  0.00    +0.083 C 
ATOM     12  C   UNL     1      12.939   8.196   6.516  0.00  0.00    +0.085 C 
ATOM     14  C   UNL     1      13.100   8.914   4.204  0.00  0.00    +0.022 C 
ATOM     15  C   UNL     1      13.857   8.905   5.528  0.00  0.00    +0.017 C 
BRANCH  10  17
ATOM     17  C   UNL     1      10.840   9.814   4.890  0.00  0.00    +0.178 C 
BRANCH  17   4
ATOM      4  O   UNL     1       9.979  10.083   3.798  0.00  0.00    -0.381 OA
ATOM     20  C   UNL     1       8.784   9.313   3.867  0.00  0.00    +0.194 C 
ENDBRANCH  17   4
ENDBRANCH  10  17
ENDBRANCH   8   6
BRANCH  11   3
ATOM      3  O   UNL     1      11.944   5.654   7.759  0.00  0.00    -0.388 OA
ATOM     27  H   UNL     1      11.932   5.281   6.862  0.00  0.00    +0.210 HD
ENDBRANCH  11   3
BRANCH   9  16
ATOM     16  C   UNL     1      10.420   5.161   4.940  0.00  0.00    +0.114 C 
BRANCH  16   7
ATOM      7  N   UNL     1      10.493   5.571   3.545  0.00  0.00    -0.310 NA
ATOM     28  H   UNL     1      11.207   6.292   3.442  0.00  0.00    +0.122 HD
BRANCH   7  19
ATOM     19  C   UNL     1      10.813   4.439   2.685  0.00  0.00    +0.116 C 
BRANCH  19  21
ATOM      1 CL   UNL     1      15.117   7.251   1.829  0.00  0.00    -0.084 Cl
ATOM     21  C   UNL     1      12.227   4.507   2.173  0.00  0.00    -0.032 A 
ATOM     22  C   UNL     1      12.934   5.706   2.232  0.00  0.00    +0.025 A 
ATOM     23  C   UNL     1      12.829   3.367   1.637  0.00  0.00    +0.005 A 
ATOM     24  C   UNL     1      14.245   5.768   1.758  0.00  0.00    +0.041 A 
ATOM     25  C   UNL     1      14.139   3.429   1.163  0.00  0.00    +0.002 A 
ATOM     26  C   UNL     1      14.847   4.630   1.223  0.00  0.00    +0.020 A 
ENDBRANCH  19  21
ENDBRANCH   7  19
ENDBRANCH  16   7
ENDBRANCH   9  16
BRANCH  13  18
ATOM     18  C   UNL     1       9.588   4.958   9.158  0.00  0.00    +0.190 C 
BRANCH  18   5
ATOM      5  O   UNL     1      10.152   3.796   8.573  0.00  0.00    -0.392 OA
ATOM     29  H   UNL     1      11.118   3.863   8.677  0.00  0.00    +0.210 HD
ENDBRANCH  18   5
ENDBRANCH  13  18
TORSDOF 10
ENDMDL
MODEL 5
REMARK VINA RESULT:      -5.6     26.170     28.812
REMARK  Name = 28961842
REMARK  11 active torsions:
REMARK  status: ('A' for Active; 'I' for Inactive)
REMARK    1  A    between atoms: O_3  and  C_11
REMARK    2  A    between atoms: O_4  and  C_17
REMARK    3  A    between atoms: O_4  and  C_20
REMARK    4  A    between atoms: O_5  and  C_18
REMARK    5  A    between atoms: N_6  and  C_8
REMARK    6  A    between atoms: N_7  and  C_16
REMARK    7  A    between atoms: N_7  and  C_19
REMARK    8  A    between atoms: C_9  and  C_16
REMARK    9  A    between atoms: C_10  and  C_17
REMARK   10  A    between atoms: C_13  and  C_18
REMARK   11  A    between atoms: C_19  and  C_21
REMARK                            x       y       z     vdW  Elec       q    Type
REMARK                         _______ _______ _______ _____ _____    ______ ____
ROOT
ATOM      2  O   UNL     1      -3.313 -10.491  15.459  0.00  0.00    -0.366 OA
ATOM      8  C   UNL     1      -3.605 -10.567  13.098  0.00  0.00    +0.118 C 
ATOM      9  C   UNL     1      -4.308 -10.764  14.447  0.00  0.00    +0.152 C 
ATOM     11  C   UNL     1      -2.145 -10.838  13.429  0.00  0.00    +0.165 C 
ATOM     13  C   UNL     1      -2.053 -10.217  14.818  0.00  0.00    +0.174 C 
ENDROOT
BRANCH   8   6
ATOM      6  N   UNL     1      -4.138 -11.325  11.979  0.00  0.00    -0.289 NA
ATOM     10  C   UNL     1      -5.416 -10.849  11.442  0.00  0.00    +0.083 C 
ATOM     12  C   UNL     1      -3.206 -11.420  10.856  0.00  0.00    +0.085 C 
ATOM     14  C   UNL     1      -5.517 -11.676  10.161  0.00  0.00    +0.022 C 
ATOM     15  C   UNL     1      -4.079 -11.823   9.675  0.00  0.00    +0.017 C 
BRANCH  10  17
ATOM     17  C   UNL     1      -5.507  -9.349  11.148  0.00  0.00    +0.178 C 
BRANCH  17   4
ATOM      4  O   UNL     1      -6.334  -8.745  12.128  0.00  0.00    -0.381 OA
ATOM     20  C   UNL     1      -7.358  -9.629  12.570  0.00  0.00    +0.194 C 
ENDBRANCH  17   4
ENDBRANCH  10  17
ENDBRANCH   8   6
BRANCH  11   3
ATOM      3  O   UNL     1      -1.876 -12.232  13.490  0.00  0.00    -0.388 OA
ATOM     27  H   UNL     1      -2.362 -12.658  12.765  0.00  0.00    +0.210 HD
ENDBRANCH  11   3
BRANCH   9  16
ATOM     16  C   UNL     1      -4.872 -12.152  14.728  0.00  0.00    +0.114 C 
BRANCH  16   7
ATOM      7  N   UNL     1      -4.027 -12.877  15.665  0.00  0.00    -0.310 NA
ATOM     28  H   UNL     1      -3.473 -12.212  16.205  0.00  0.00    +0.122 HD
BRANCH   7  19
ATOM     19  C   UNL     1      -4.830 -13.692  16.568  0.00  0.00    +0.116 C 
BRANCH  19  21
ATOM      1 CL   UNL     1      -8.792 -12.296  19.654  0.00  0.00    -0.084 Cl
ATOM     21  C   UNL     1      -5.327 -12.898  17.747  0.00  0.00    -0.032 A 
ATOM     22  C   UNL     1      -6.671 -12.958  18.112  0.00  0.00    +0.025 A 
ATOM     23  C   UNL     1      -4.442 -12.099  18.472  0.00  0.00    +0.005 A 
ATOM     24  C   UNL     1      -7.132 -12.222  19.204  0.00  0.00    +0.041 A 
ATOM     25  C   UNL     1      -4.902 -11.363  19.563  0.00  0.00    +0.002 A 
ATOM     26  C   UNL     1      -6.247 -11.424  19.930  0.00  0.00    +0.020 A 
ENDBRANCH  19  21
ENDBRANCH   7  19
ENDBRANCH  16   7
ENDBRANCH   9  16
BRANCH  13  18
ATOM     18  C   UNL     1      -0.923 -10.734  15.691  0.00  0.00    +0.190 C 
BRANCH  18   5
ATOM      5  O   UNL     1      -1.465 -11.183  16.922  0.00  0.00    -0.392 OA
ATOM     29  H   UNL     1      -0.813 -10.977  17.614  0.00  0.00    +0.210 HD
ENDBRANCH  18   5
ENDBRANCH  13  18
TORSDOF 10
ENDMDL
MODEL 6
REMARK VINA RESULT:      -5.5     26.889     28.614
REMARK  Name = 28961842
REMARK  11 active torsions:
REMARK  status: ('A' for Active; 'I' for Inactive)
REMARK    1  A    between atoms: O_3  and  C_11
REMARK    2  A    between atoms: O_4  and  C_17
REMARK    3  A    between atoms: O_4  and  C_20
REMARK    4  A    between atoms: O_5  and  C_18
REMARK    5  A    between atoms: N_6  and  C_8
REMARK    6  A    between atoms: N_7  and  C_16
REMARK    7  A    between atoms: N_7  and  C_19
REMARK    8  A    between atoms: C_9  and  C_16
REMARK    9  A    between atoms: C_10  and  C_17
REMARK   10  A    between atoms: C_13  and  C_18
REMARK   11  A    between atoms: C_19  and  C_21
REMARK                            x       y       z     vdW  Elec       q    Type
REMARK                         _______ _______ _______ _____ _____    ______ ____
ROOT
ATOM      2  O   UNL     1      -1.741 -12.907  13.117  0.00  0.00    -0.366 OA
ATOM      8  C   UNL     1      -3.518 -11.825  11.960  0.00  0.00    +0.118 C 
ATOM      9  C   UNL     1      -2.215 -11.596  12.736  0.00  0.00    +0.152 C 
ATOM     11  C   UNL     1      -4.017 -13.152  12.512  0.00  0.00    +0.165 C 
ATOM     13  C   UNL     1      -2.698 -13.895  12.689  0.00  0.00    +0.174 C 
ENDROOT
BRANCH   8   6
ATOM      6  N   UNL     1      -4.483 -10.740  11.990  0.00  0.00    -0.289 NA
ATOM     10  C   UNL     1      -4.164  -9.584  11.145  0.00  0.00    +0.083 C 
ATOM     12  C   UNL     1      -5.837 -11.168  11.642  0.00  0.00    +0.085 C 
ATOM     14  C   UNL     1      -5.477  -8.807  11.212  0.00  0.00    +0.022 C 
ATOM     15  C   UNL     1      -6.563  -9.875  11.290  0.00  0.00    +0.017 C 
BRANCH  10  17
ATOM     17  C   UNL     1      -3.770  -9.896   9.698  0.00  0.00    +0.178 C 
BRANCH  17   4
ATOM      4  O   UNL     1      -4.533  -9.072   8.834  0.00  0.00    -0.381 OA
ATOM     20  C   UNL     1      -5.137  -9.823   7.787  0.00  0.00    +0.194 C 
ENDBRANCH  17   4
ENDBRANCH  10  17
ENDBRANCH   8   6
BRANCH  11   3
ATOM      3  O   UNL     1      -4.664 -12.984  13.765  0.00  0.00    -0.388 OA
ATOM     27  H   UNL     1      -4.275 -13.623  14.386  0.00  0.00    +0.210 HD
ENDBRANCH  11   3
BRANCH   9  16
ATOM     16  C   UNL     1      -2.314 -10.763  14.008  0.00  0.00    +0.114 C 
BRANCH  16   7
ATOM      7  N   UNL     1      -2.384 -11.616  15.185  0.00  0.00    -0.310 NA
ATOM     28  H   UNL     1      -1.583 -12.248  15.193  0.00  0.00    +0.122 HD
BRANCH   7  19
ATOM     19  C   UNL     1      -2.391 -10.821  16.406  0.00  0.00    +0.116 C 
BRANCH  19  21
ATOM      1 CL   UNL     1      -7.368  -9.304  16.716  0.00  0.00    -0.084 Cl
ATOM     21  C   UNL     1      -3.719 -10.893  17.113  0.00  0.00    -0.032 A 
ATOM     22  C   UNL     1      -4.802 -10.153  16.642  0.00  0.00    +0.025 A 
ATOM     23  C   UNL     1      -3.864 -11.701  18.242  0.00  0.00    +0.005 A 
ATOM     24  C   UNL     1      -6.032 -10.221  17.297  0.00  0.00    +0.041 A 
ATOM     25  C   UNL     1      -5.093 -11.769  18.897  0.00  0.00    +0.002 A 
ATOM     26  C   UNL     1      -6.178 -11.028  18.425  0.00  0.00    +0.020 A 
ENDBRANCH  19  21
ENDBRANCH   7  19
ENDBRANCH  16   7
ENDBRANCH   9  16
BRANCH  13  18
ATOM     18  C   UNL     1      -2.721 -15.036  13.691  0.00  0.00    +0.190 C 
BRANCH  18   5
ATOM      5  O   UNL     1      -2.631 -14.498  15.000  0.00  0.00    -0.392 OA
ATOM     29  H   UNL     1      -3.287 -14.965  15.548  0.00  0.00    +0.210 HD
ENDBRANCH  18   5
ENDBRANCH  13  18
TORSDOF 10
ENDMDL
MODEL 7
REMARK VINA RESULT:      -5.4     28.889     31.806
REMARK  Name = 28961842
REMARK  11 active torsions:
REMARK  status: ('A' for Active; 'I' for Inactive)
REMARK    1  A    between atoms: O_3  and  C_11
REMARK    2  A    between atoms: O_4  and  C_17
REMARK    3  A    between atoms: O_4  and  C_20
REMARK    4  A    between atoms: O_5  and  C_18
REMARK    5  A    between atoms: N_6  and  C_8
REMARK    6  A    between atoms: N_7  and  C_16
REMARK    7  A    between atoms: N_7  and  C_19
REMARK    8  A    between atoms: C_9  and  C_16
REMARK    9  A    between atoms: C_10  and  C_17
REMARK   10  A    between atoms: C_13  and  C_18
REMARK   11  A    between atoms: C_19  and  C_21
REMARK                            x       y       z     vdW  Elec       q    Type
REMARK                         _______ _______ _______ _____ _____    ______ ____
ROOT
ATOM      2  O   UNL     1     -17.562   3.161  24.115  0.00  0.00    -0.366 OA
ATOM      8  C   UNL     1     -17.202   2.560  26.390  0.00  0.00    +0.118 C 
ATOM      9  C   UNL     1     -16.808   3.549  25.285  0.00  0.00    +0.152 C 
ATOM     11  C   UNL     1     -17.630   1.327  25.609  0.00  0.00    +0.165 C 
ATOM     13  C   UNL     1     -18.322   1.976  24.417  0.00  0.00    +0.174 C 
ENDROOT
BRANCH   8   6
ATOM      6  N   UNL     1     -16.211   2.325  27.425  0.00  0.00    -0.289 NA
ATOM     10  C   UNL     1     -15.897   3.478  28.276  0.00  0.00    +0.083 C 
ATOM     12  C   UNL     1     -16.561   1.217  28.312  0.00  0.00    +0.085 C 
ATOM     14  C   UNL     1     -15.069   2.810  29.373  0.00  0.00    +0.022 C 
ATOM     15  C   UNL     1     -15.684   1.425  29.540  0.00  0.00    +0.017 C 
BRANCH  10  17
ATOM     17  C   UNL     1     -17.097   4.231  28.860  0.00  0.00    +0.178 C 
BRANCH  17   4
ATOM      4  O   UNL     1     -16.840   5.622  28.780  0.00  0.00    -0.381 OA
ATOM     20  C   UNL     1     -17.565   6.231  27.718  0.00  0.00    +0.194 C 
ENDBRANCH  17   4
ENDBRANCH  10  17
ENDBRANCH   8   6
BRANCH  11   3
ATOM      3  O   UNL     1     -16.508   0.568  25.179  0.00  0.00    -0.388 OA
ATOM     27  H   UNL     1     -16.322  -0.097  25.864  0.00  0.00    +0.210 HD
ENDBRANCH  11   3
BRANCH   9  16
ATOM     16  C   UNL     1     -15.337   3.578  24.886  0.00  0.00    +0.114 C 
BRANCH  16   7
ATOM      7  N   UNL     1     -15.178   4.037  23.514  0.00  0.00    -0.310 NA
ATOM     28  H   UNL     1     -15.933   4.683  23.284  0.00  0.00    +0.122 HD
BRANCH   7  19
ATOM     19  C   UNL     1     -13.893   4.701  23.332  0.00  0.00    +0.116 C 
BRANCH  19  21
ATOM      1 CL   UNL     1     -11.264   7.618  19.905  0.00  0.00    -0.084 Cl
ATOM     21  C   UNL     1     -13.916   5.651  22.164  0.00  0.00    -0.032 A 
ATOM     22  C   UNL     1     -12.720   6.137  21.637  0.00  0.00    +0.025 A 
ATOM     23  C   UNL     1     -15.134   6.047  21.611  0.00  0.00    +0.005 A 
ATOM     24  C   UNL     1     -12.741   7.017  20.554  0.00  0.00    +0.041 A 
ATOM     25  C   UNL     1     -15.155   6.927  20.530  0.00  0.00    +0.002 A 
ATOM     26  C   UNL     1     -13.958   7.413  20.001  0.00  0.00    +0.020 A 
ENDBRANCH  19  21
ENDBRANCH   7  19
ENDBRANCH  16   7
ENDBRANCH   9  16
BRANCH  13  18
ATOM     18  C   UNL     1     -18.421   1.114  23.170  0.00  0.00    +0.190 C 
BRANCH  18   5
ATOM      5  O   UNL     1     -17.284   1.352  22.357  0.00  0.00    -0.392 OA
ATOM     29  H   UNL     1     -17.337   0.738  21.604  0.00  0.00    +0.210 HD
ENDBRANCH  18   5
ENDBRANCH  13  18
TORSDOF 10
ENDMDL
MODEL 8
REMARK VINA RESULT:      -5.1     26.806     29.227
REMARK  Name = 28961842
REMARK  11 active torsions:
REMARK  status: ('A' for Active; 'I' for Inactive)
REMARK    1  A    between atoms: O_3  and  C_11
REMARK    2  A    between atoms: O_4  and  C_17
REMARK    3  A    between atoms: O_4  and  C_20
REMARK    4  A    between atoms: O_5  and  C_18
REMARK    5  A    between atoms: N_6  and  C_8
REMARK    6  A    between atoms: N_7  and  C_16
REMARK    7  A    between atoms: N_7  and  C_19
REMARK    8  A    between atoms: C_9  and  C_16
REMARK    9  A    between atoms: C_10  and  C_17
REMARK   10  A    between atoms: C_13  and  C_18
REMARK   11  A    between atoms: C_19  and  C_21
REMARK                            x       y       z     vdW  Elec       q    Type
REMARK                         _______ _______ _______ _____ _____    ______ ____
ROOT
ATOM      2  O   UNL     1      -4.837 -11.575  14.227  0.00  0.00    -0.366 OA
ATOM      8  C   UNL     1      -5.290 -11.719  16.560  0.00  0.00    +0.118 C 
ATOM      9  C   UNL     1      -5.931 -11.667  15.167  0.00  0.00    +0.152 C 
ATOM     11  C   UNL     1      -3.961 -11.008  16.353  0.00  0.00    +0.165 C 
ATOM     13  C   UNL     1      -3.597 -11.497  14.956  0.00  0.00    +0.174 C 
ENDROOT
BRANCH   8   6
ATOM      6  N   UNL     1      -6.097 -11.216  17.658  0.00  0.00    -0.289 NA
ATOM     10  C   UNL     1      -7.348 -11.938  17.908  0.00  0.00    +0.083 C 
ATOM     12  C   UNL     1      -5.369 -11.163  18.925  0.00  0.00    +0.085 C 
ATOM     14  C   UNL     1      -7.769 -11.333  19.246  0.00  0.00    +0.022 C 
ATOM     15  C   UNL     1      -6.461 -11.064  19.983  0.00  0.00    +0.017 C 
BRANCH  10  17
ATOM     17  C   UNL     1      -7.240 -13.464  17.992  0.00  0.00    +0.178 C 
BRANCH  17   4
ATOM      4  O   UNL     1      -8.016 -14.031  16.951  0.00  0.00    -0.381 OA
ATOM     20  C   UNL     1      -7.977 -15.453  16.980  0.00  0.00    +0.194 C 
ENDBRANCH  17   4
ENDBRANCH  10  17
ENDBRANCH   8   6
BRANCH  11   3
ATOM      3  O   UNL     1      -4.120  -9.596  16.358  0.00  0.00    -0.388 OA
ATOM     27  H   UNL     1      -4.165  -9.301  15.433  0.00  0.00    +0.210 HD
ENDBRANCH  11   3
BRANCH   9  16
ATOM     16  C   UNL     1      -6.867 -10.496  14.889  0.00  0.00    +0.114 C 
BRANCH  16   7
ATOM      7  N   UNL     1      -6.274  -9.571  13.934  0.00  0.00    -0.310 NA
ATOM     28  H   UNL     1      -5.348  -9.906  13.669  0.00  0.00    +0.122 HD
BRANCH   7  19
ATOM     19  C   UNL     1      -7.107  -9.445  12.745  0.00  0.00    +0.116 C 
BRANCH  19  21
ATOM      1 CL   UNL     1      -2.418  -9.284  10.476  0.00  0.00    -0.084 Cl
ATOM     21  C   UNL     1      -6.283  -9.221  11.505  0.00  0.00    -0.032 A 
ATOM     22  C   UNL     1      -4.895  -9.343  11.558  0.00  0.00    +0.025 A 
ATOM     23  C   UNL     1      -6.909  -8.890  10.303  0.00  0.00    +0.005 A 
ATOM     24  C   UNL     1      -4.132  -9.136  10.409  0.00  0.00    +0.041 A 
ATOM     25  C   UNL     1      -6.146  -8.683   9.154  0.00  0.00    +0.002 A 
ATOM     26  C   UNL     1      -4.757  -8.805   9.207  0.00  0.00    +0.020 A 
ENDBRANCH  19  21
ENDBRANCH   7  19
ENDBRANCH  16   7
ENDBRANCH   9  16
BRANCH  13  18
ATOM     18  C   UNL     1      -2.621 -10.619  14.191  0.00  0.00    +0.190 C 
BRANCH  18   5
ATOM      5  O   UNL     1      -1.749  -9.990  15.115  0.00  0.00    -0.392 OA
ATOM     29  H   UNL     1      -1.062  -9.536  14.597  0.00  0.00    +0.210 HD
ENDBRANCH  18   5
ENDBRANCH  13  18
TORSDOF 10
ENDMDL
MODEL 9
REMARK VINA RESULT:      -5.1     14.338     16.921
REMARK  Name = 28961842
REMARK  11 active torsions:
REMARK  status: ('A' for Active; 'I' for Inactive)
REMARK    1  A    between atoms: O_3  and  C_11
REMARK    2  A    between atoms: O_4  and  C_17
REMARK    3  A    between atoms: O_4  and  C_20
REMARK    4  A    between atoms: O_5  and  C_18
REMARK    5  A    between atoms: N_6  and  C_8
REMARK    6  A    between atoms: N_7  and  C_16
REMARK    7  A    between atoms: N_7  and  C_19
REMARK    8  A    between atoms: C_9  and  C_16
REMARK    9  A    between atoms: C_10  and  C_17
REMARK   10  A    between atoms: C_13  and  C_18
REMARK   11  A    between atoms: C_19  and  C_21
REMARK                            x       y       z     vdW  Elec       q    Type
REMARK                         _______ _______ _______ _____ _____    ______ ____
ROOT
ATOM      2  O   UNL     1       9.364   5.848   5.576  0.00  0.00    -0.366 OA
ATOM      8  C   UNL     1      10.658   7.739   6.220  0.00  0.00    +0.118 C 
ATOM      9  C   UNL     1       9.962   7.050   5.040  0.00  0.00    +0.152 C 
ATOM     11  C   UNL     1      10.958   6.584   7.163  0.00  0.00    +0.165 C 
ATOM     13  C   UNL     1       9.710   5.732   6.969  0.00  0.00    +0.174 C 
ENDROOT
BRANCH   8   6
ATOM      6  N   UNL     1      11.794   8.582   5.892  0.00  0.00    -0.289 NA
ATOM     10  C   UNL     1      11.475   9.840   5.208  0.00  0.00    +0.083 C 
ATOM     12  C   UNL     1      12.611   8.921   7.057  0.00  0.00    +0.085 C 
ATOM     14  C   UNL     1      12.822  10.556   5.277  0.00  0.00    +0.022 C 
ATOM     15  C   UNL     1      13.430  10.125   6.607  0.00  0.00    +0.017 C 
BRANCH  10  17
ATOM     17  C   UNL     1      10.359  10.682   5.835  0.00  0.00    +0.178 C 
BRANCH  17   4
ATOM      4  O   UNL     1       9.256  10.706   4.946  0.00  0.00    -0.381 OA
ATOM     20  C   UNL     1       9.658  10.469   3.602  0.00  0.00    +0.194 C 
ENDBRANCH  17   4
ENDBRANCH  10  17
ENDBRANCH   8   6
BRANCH  11   3
ATOM      3  O   UNL     1      12.116   5.867   6.756  0.00  0.00    -0.388 OA
ATOM     27  H   UNL     1      12.261   6.052   5.813  0.00  0.00    +0.210 HD
ENDBRANCH  11   3
BRANCH   9  16
ATOM     16  C   UNL     1      10.848   6.633   3.872  0.00  0.00    +0.114 C 
BRANCH  16   7
ATOM      7  N   UNL     1      11.319   5.266   4.037  0.00  0.00    -0.310 NA
ATOM     28  H   UNL     1      11.209   4.986   5.012  0.00  0.00    +0.122 HD
BRANCH   7  19
ATOM     19  C   UNL     1      10.577   4.351   3.179  0.00  0.00    +0.116 C 
BRANCH  19  21
ATOM      1 CL   UNL     1      10.557   4.317  -2.033  0.00  0.00    -0.084 Cl
ATOM     21  C   UNL     1      11.305   4.078   1.890  0.00  0.00    -0.032 A 
ATOM     22  C   UNL     1      10.669   4.299   0.669  0.00  0.00    +0.025 A 
ATOM     23  C   UNL     1      12.617   3.604   1.918  0.00  0.00    +0.005 A 
ATOM     24  C   UNL     1      11.344   4.047  -0.526  0.00  0.00    +0.041 A 
ATOM     25  C   UNL     1      13.292   3.351   0.724  0.00  0.00    +0.002 A 
ATOM     26  C   UNL     1      12.655   3.572  -0.498  0.00  0.00    +0.020 A 
ENDBRANCH  19  21
ENDBRANCH   7  19
ENDBRANCH  16   7
ENDBRANCH   9  16
BRANCH  13  18
ATOM     18  C   UNL     1       9.859   4.263   7.327  0.00  0.00    +0.190 C 
BRANCH  18   5
ATOM      5  O   UNL     1      10.615   4.157   8.522  0.00  0.00    -0.392 OA
ATOM     29  H   UNL     1       9.981   4.126   9.260  0.00  0.00    +0.210 HD
ENDBRANCH  18   5
ENDBRANCH  13  18
TORSDOF 10
ENDMDL
MODEL 10
REMARK VINA RESULT:      -5.1     30.381     32.677
REMARK  Name = 28961842
REMARK  11 active torsions:
REMARK  status: ('A' for Active; 'I' for Inactive)
REMARK    1  A    between atoms: O_3  and  C_11
REMARK    2  A    between atoms: O_4  and  C_17
REMARK    3  A    between atoms: O_4  and  C_20
REMARK    4  A    between atoms: O_5  and  C_18
REMARK    5  A    between atoms: N_6  and  C_8
REMARK    6  A    between atoms: N_7  and  C_16
REMARK    7  A    between atoms: N_7  and  C_19
REMARK    8  A    between atoms: C_9  and  C_16
REMARK    9  A    between atoms: C_10  and  C_17
REMARK   10  A    between atoms: C_13  and  C_18
REMARK   11  A    between atoms: C_19  and  C_21
REMARK                            x       y       z     vdW  Elec       q    Type
REMARK                         _______ _______ _______ _____ _____    ______ ____
ROOT
ATOM      2  O   UNL     1     -18.573   2.891  27.242  0.00  0.00    -0.366 OA
ATOM      8  C   UNL     1     -16.964   2.130  28.823  0.00  0.00    +0.118 C 
ATOM      9  C   UNL     1     -17.418   3.335  27.990  0.00  0.00    +0.152 C 
ATOM     11  C   UNL     1     -17.470   0.944  28.015  0.00  0.00    +0.165 C 
ATOM     13  C   UNL     1     -18.799   1.495  27.512  0.00  0.00    +0.174 C 
ENDROOT
BRANCH   8   6
ATOM      6  N   UNL     1     -15.555   2.085  29.173  0.00  0.00    -0.289 NA
ATOM     10  C   UNL     1     -15.100   3.124  30.102  0.00  0.00    +0.083 C 
ATOM     12  C   UNL     1     -15.145   0.798  29.731  0.00  0.00    +0.085 C 
ATOM     14  C   UNL     1     -13.701   2.613  30.443  0.00  0.00    +0.022 C 
ATOM     15  C   UNL     1     -13.824   1.093  30.431  0.00  0.00    +0.017 C 
BRANCH  10  17
ATOM     17  C   UNL     1     -15.947   3.319  31.363  0.00  0.00    +0.178 C 
BRANCH  17   4
ATOM      4  O   UNL     1     -15.341   4.316  32.167  0.00  0.00    -0.381 OA
ATOM     20  C   UNL     1     -15.374   3.971  33.547  0.00  0.00    +0.194 C 
ENDBRANCH  17   4
ENDBRANCH  10  17
ENDBRANCH   8   6
BRANCH  11   3
ATOM      3  O   UNL     1     -16.608   0.653  26.923  0.00  0.00    -0.388 OA
ATOM     27  H   UNL     1     -15.763   0.343  27.289  0.00  0.00    +0.210 HD
ENDBRANCH  11   3
BRANCH   9  16
ATOM     16  C   UNL     1     -16.414   3.890  26.986  0.00  0.00    +0.114 C 
BRANCH  16   7
ATOM      7  N   UNL     1     -16.814   3.577  25.622  0.00  0.00    -0.310 NA
ATOM     28  H   UNL     1     -17.302   4.377  25.220  0.00  0.00    +0.122 HD
BRANCH   7  19
ATOM     19  C   UNL     1     -15.656   3.246  24.802  0.00  0.00    +0.116 C 
BRANCH  19  21
ATOM      1 CL   UNL     1     -12.800   6.102  21.506  0.00  0.00    -0.084 Cl
ATOM     21  C   UNL     1     -15.587   4.099  23.563  0.00  0.00    -0.032 A 
ATOM     22  C   UNL     1     -14.369   4.641  23.156  0.00  0.00    +0.025 A 
ATOM     23  C   UNL     1     -16.743   4.348  22.822  0.00  0.00    +0.005 A 
ATOM     24  C   UNL     1     -14.304   5.431  22.007  0.00  0.00    +0.041 A 
ATOM     25  C   UNL     1     -16.679   5.138  21.675  0.00  0.00    +0.002 A 
ATOM     26  C   UNL     1     -15.460   5.679  21.267  0.00  0.00    +0.020 A 
ENDBRANCH  19  21
ENDBRANCH   7  19
ENDBRANCH  16   7
ENDBRANCH   9  16
BRANCH  13  18
ATOM     18  C   UNL     1     -19.352   0.828  26.265  0.00  0.00    +0.190 C 
BRANCH  18   5
ATOM      5  O   UNL     1     -18.774   1.439  25.123  0.00  0.00    -0.392 OA
ATOM     29  H   UNL     1     -17.863   1.685  25.360  0.00  0.00    +0.210 HD
ENDBRANCH  18   5
ENDBRANCH  13  18
TORSDOF 10
ENDMDL
