MODEL 1
REMARK VINA RESULT:      -7.1      0.000      0.000
REMARK  Name = 11882972
REMARK  8 active torsions:
REMARK  status: ('A' for Active; 'I' for Inactive)
REMARK    1  A    between atoms: O_3  and  C_16
REMARK    2  A    between atoms: O_4  and  C_21
REMARK    3  A    between atoms: C_11  and  C_19
REMARK    4  A    between atoms: C_13  and  C_21
REMARK    5  A    between atoms: C_13  and  C_22
REMARK    6  A    between atoms: C_14  and  C_24
REMARK    7  A    between atoms: C_24  and  C_25
REMARK    8  A    between atoms: C_27  and  C_28
REMARK                            x       y       z     vdW  Elec       q    Type
REMARK                         _______ _______ _______ _____ _____    ______ ____
ROOT
ATOM      1  S   UNL     1      -5.834  -9.938  10.371  0.00  0.00    -0.057 S 
ATOM      6  O   UNL     1     -10.235  -8.511  10.994  0.00  0.00    -0.275 OA
ATOM      7  N   UNL     1      -7.659  -9.457  12.141  0.00  0.00    -0.229 NA
ATOM      8  N   UNL     1      -8.258  -9.091   9.836  0.00  0.00    -0.264 N 
ATOM     11  C   UNL     1      -5.261 -10.874  14.809  0.00  0.00    -0.019 C 
ATOM     12  C   UNL     1      -3.967 -10.395  14.013  0.00  0.00    +0.011 C 
ATOM     13  C   UNL     1      -2.567 -10.823  14.599  0.00  0.00    +0.021 C 
ATOM     14  C   UNL     1      -6.497  -9.988  14.317  0.00  0.00    +0.054 C 
ATOM     15  C   UNL     1      -5.054 -10.626  16.325  0.00  0.00    +0.010 C 
ATOM     16  C   UNL     1      -2.548 -10.551  16.130  0.00  0.00    +0.123 C 
ATOM     17  C   UNL     1      -4.113 -10.652  12.485  0.00  0.00    +0.049 C 
ATOM     18  C   UNL     1      -3.736 -11.162  16.864  0.00  0.00    +0.032 C 
ATOM     19  C   UNL     1      -5.582 -12.372  14.589  0.00  0.00    +0.012 C 
ATOM     20  C   UNL     1      -6.531  -9.892  12.813  0.00  0.00    +0.058 A 
ATOM     22  C   UNL     1      -1.457  -9.942  13.959  0.00  0.00    +0.016 C 
ATOM     23  C   UNL     1      -5.444 -10.177  12.012  0.00  0.00    +0.015 A 
ATOM     26  C   UNL     1      -7.409  -9.448  10.850  0.00  0.00    +0.165 A 
ATOM     28  C   UNL     1      -9.587  -8.655   9.962  0.00  0.00    +0.222 C 
ATOM     39  H   UNL     1      -7.854  -9.152   8.904  0.00  0.00    +0.157 HD
ENDROOT
BRANCH  28  27
ATOM     27  C   UNL     1     -10.202  -8.351   8.627  0.00  0.00    +0.075 C 
ATOM     29  C   UNL     1     -11.497  -7.553   8.787  0.00  0.00    +0.013 C 
ATOM     30  C   UNL     1      -9.183  -7.650   7.725  0.00  0.00    +0.013 C 
ATOM     32  C   UNL     1     -11.266  -6.079   9.123  0.00  0.00    +0.001 C 
ATOM     33  C   UNL     1      -8.971  -6.182   8.089  0.00  0.00    +0.001 C 
ATOM     34  C   UNL     1     -10.291  -5.422   8.154  0.00  0.00    +0.000 C 
ENDBRANCH  28  27
BRANCH  16   3
ATOM      3  O   UNL     1      -1.343 -11.047  16.714  0.00  0.00    -0.391 OA
ATOM     37  H   UNL     1      -1.378 -10.859  17.668  0.00  0.00    +0.210 HD
ENDBRANCH  16   3
BRANCH  13  21
ATOM     21  C   UNL     1      -2.165 -12.284  14.294  0.00  0.00    +0.165 C 
BRANCH  21   4
ATOM      4  O   UNL     1      -1.350 -12.276  13.144  0.00  0.00    -0.394 OA
ATOM     38  H   UNL     1      -1.437 -11.399  12.733  0.00  0.00    +0.209 HD
ENDBRANCH  21   4
ENDBRANCH  13  21
BRANCH  14  24
ATOM     24  C   UNL     1      -7.856 -10.421  14.882  0.00  0.00    +0.106 C 
BRANCH  24  25
ATOM      2  S   UNL     1     -11.724  -7.415  14.141  0.00  0.00    -0.061 S 
ATOM      5  O   UNL     1      -8.163  -8.921  16.740  0.00  0.00    -0.275 OA
ATOM      9  N   UNL     1      -9.619  -8.824  14.894  0.00  0.00    -0.265 N 
ATOM     10  N   UNL     1     -10.463  -7.085  16.372  0.00  0.00    -0.233 NA
ATOM     25  C   UNL     1      -8.545  -9.301  15.639  0.00  0.00    +0.219 C 
ATOM     31  C   UNL     1     -10.486  -7.795  15.266  0.00  0.00    +0.164 A 
ATOM     35  C   UNL     1     -12.290  -6.200  15.210  0.00  0.00    +0.068 A 
ATOM     36  C   UNL     1     -11.498  -6.172  16.339  0.00  0.00    +0.120 A 
ATOM     40  H   UNL     1      -9.827  -9.242  13.990  0.00  0.00    +0.157 HD
ENDBRANCH  24  25
ENDBRANCH  14  24
TORSDOF 6
ENDMDL
MODEL 2
REMARK VINA RESULT:      -7.0     28.803     32.616
REMARK  Name = 11882972
REMARK  8 active torsions:
REMARK  status: ('A' for Active; 'I' for Inactive)
REMARK    1  A    between atoms: O_3  and  C_16
REMARK    2  A    between atoms: O_4  and  C_21
REMARK    3  A    between atoms: C_11  and  C_19
REMARK    4  A    between atoms: C_13  and  C_21
REMARK    5  A    between atoms: C_13  and  C_22
REMARK    6  A    between atoms: C_14  and  C_24
REMARK    7  A    between atoms: C_24  and  C_25
REMARK    8  A    between atoms: C_27  and  C_28
REMARK                            x       y       z     vdW  Elec       q    Type
REMARK                         _______ _______ _______ _____ _____    ______ ____
ROOT
ATOM      1  S   UNL     1      16.985   5.904  19.831  0.00  0.00    -0.057 S 
ATOM      6  O   UNL     1      21.186   7.450  21.152  0.00  0.00    -0.275 OA
ATOM      7  N   UNL     1      18.249   7.869  20.939  0.00  0.00    -0.229 NA
ATOM      8  N   UNL     1      19.575   5.987  20.229  0.00  0.00    -0.264 N 
ATOM     11  C   UNL     1      14.926   9.826  20.957  0.00  0.00    -0.019 C 
ATOM     12  C   UNL     1      14.056   8.501  21.109  0.00  0.00    +0.011 C 
ATOM     13  C   UNL     1      12.488   8.664  21.054  0.00  0.00    +0.021 C 
ATOM     14  C   UNL     1      16.404   9.506  21.473  0.00  0.00    +0.054 C 
ATOM     15  C   UNL     1      14.327  10.941  21.853  0.00  0.00    +0.010 C 
ATOM     16  C   UNL     1      12.064   9.849  21.967  0.00  0.00    +0.123 C 
ATOM     17  C   UNL     1      14.600   7.358  20.203  0.00  0.00    +0.049 C 
ATOM     18  C   UNL     1      12.828  11.135  21.677  0.00  0.00    +0.032 C 
ATOM     19  C   UNL     1      14.990  10.341  19.499  0.00  0.00    +0.012 C 
ATOM     20  C   UNL     1      16.908   8.206  20.901  0.00  0.00    +0.058 A 
ATOM     22  C   UNL     1      11.824   7.379  21.624  0.00  0.00    +0.016 C 
ATOM     23  C   UNL     1      16.079   7.249  20.353  0.00  0.00    +0.015 A 
ATOM     26  C   UNL     1      18.407   6.682  20.397  0.00  0.00    +0.165 A 
ATOM     28  C   UNL     1      20.864   6.400  20.606  0.00  0.00    +0.222 C 
ATOM     39  H   UNL     1      19.467   5.076  19.789  0.00  0.00    +0.157 HD
ENDROOT
BRANCH  28  27
ATOM     27  C   UNL     1      21.900   5.369  20.264  0.00  0.00    +0.075 C 
ATOM     29  C   UNL     1      23.308   5.882  20.571  0.00  0.00    +0.013 C 
ATOM     30  C   UNL     1      21.585   4.049  20.971  0.00  0.00    +0.013 C 
ATOM     32  C   UNL     1      23.650   5.868  22.061  0.00  0.00    +0.001 C 
ATOM     33  C   UNL     1      21.932   4.069  22.459  0.00  0.00    +0.001 C 
ATOM     34  C   UNL     1      23.372   4.511  22.694  0.00  0.00    +0.000 C 
ENDBRANCH  28  27
BRANCH  16   3
ATOM      3  O   UNL     1      10.665  10.105  21.841  0.00  0.00    -0.391 OA
ATOM     37  H   UNL     1      10.293   9.427  21.250  0.00  0.00    +0.210 HD
ENDBRANCH  16   3
BRANCH  13  21
ATOM     21  C   UNL     1      11.911   8.832  19.630  0.00  0.00    +0.165 C 
BRANCH  21   4
ATOM      4  O   UNL     1      10.566   8.409  19.657  0.00  0.00    -0.394 OA
ATOM     38  H   UNL     1      10.186   8.594  18.781  0.00  0.00    +0.209 HD
ENDBRANCH  21   4
ENDBRANCH  13  21
BRANCH  14  24
ATOM     24  C   UNL     1      17.414  10.642  21.259  0.00  0.00    +0.106 C 
BRANCH  24  25
ATOM      2  S   UNL     1      21.266   9.455  24.140  0.00  0.00    -0.061 S 
ATOM      5  O   UNL     1      17.522  12.063  23.199  0.00  0.00    -0.275 OA
ATOM      9  N   UNL     1      19.133  10.378  22.881  0.00  0.00    -0.265 N 
ATOM     10  N   UNL     1      19.805  11.415  24.977  0.00  0.00    -0.233 NA
ATOM     25  C   UNL     1      18.009  11.133  22.565  0.00  0.00    +0.219 C 
ATOM     31  C   UNL     1      19.942  10.538  24.009  0.00  0.00    +0.164 A 
ATOM     35  C   UNL     1      21.708  10.212  25.613  0.00  0.00    +0.068 A 
ATOM     36  C   UNL     1      20.819  11.228  25.896  0.00  0.00    +0.120 A 
ATOM     40  H   UNL     1      19.429   9.633  22.254  0.00  0.00    +0.157 HD
ENDBRANCH  24  25
ENDBRANCH  14  24
TORSDOF 6
ENDMDL
MODEL 3
REMARK VINA RESULT:      -6.7     26.372     29.288
REMARK  Name = 11882972
REMARK  8 active torsions:
REMARK  status: ('A' for Active; 'I' for Inactive)
REMARK    1  A    between atoms: O_3  and  C_16
REMARK    2  A    between atoms: O_4  and  C_21
REMARK    3  A    between atoms: C_11  and  C_19
REMARK    4  A    between atoms: C_13  and  C_21
REMARK    5  A    between atoms: C_13  and  C_22
REMARK    6  A    between atoms: C_14  and  C_24
REMARK    7  A    between atoms: C_24  and  C_25
REMARK    8  A    between atoms: C_27  and  C_28
REMARK                            x       y       z     vdW  Elec       q    Type
REMARK                         _______ _______ _______ _____ _____    ______ ____
ROOT
ATOM      1  S   UNL     1      13.849   7.532   6.814  0.00  0.00    -0.057 S 
ATOM      6  O   UNL     1      10.968   5.482   3.766  0.00  0.00    -0.275 OA
ATOM      7  N   UNL     1      13.534   6.876   4.332  0.00  0.00    -0.229 NA
ATOM      8  N   UNL     1      11.751   6.294   5.844  0.00  0.00    -0.264 N 
ATOM     11  C   UNL     1      16.787   8.794   3.548  0.00  0.00    -0.019 C 
ATOM     12  C   UNL     1      17.412   8.476   4.977  0.00  0.00    +0.011 C 
ATOM     13  C   UNL     1      18.797   9.147   5.319  0.00  0.00    +0.021 C 
ATOM     14  C   UNL     1      15.659   7.702   3.250  0.00  0.00    +0.054 C 
ATOM     15  C   UNL     1      17.889   8.666   2.465  0.00  0.00    +0.010 C 
ATOM     16  C   UNL     1      19.764   8.968   4.113  0.00  0.00    +0.123 C 
ATOM     17  C   UNL     1      16.350   8.621   6.107  0.00  0.00    +0.049 C 
ATOM     18  C   UNL     1      19.165   9.429   2.789  0.00  0.00    +0.032 C 
ATOM     19  C   UNL     1      16.168  10.210   3.463  0.00  0.00    +0.012 C 
ATOM     20  C   UNL     1      14.755   7.517   4.441  0.00  0.00    +0.058 A 
ATOM     22  C   UNL     1      19.432   8.412   6.533  0.00  0.00    +0.016 C 
ATOM     23  C   UNL     1      15.093   7.920   5.717  0.00  0.00    +0.015 A 
ATOM     26  C   UNL     1      12.966   6.833   5.517  0.00  0.00    +0.165 A 
ATOM     28  C   UNL     1      10.845   5.666   4.973  0.00  0.00    +0.222 C 
ATOM     39  H   UNL     1      11.507   6.363   6.829  0.00  0.00    +0.157 HD
ENDROOT
BRANCH  28  27
ATOM     27  C   UNL     1       9.615   5.195   5.695  0.00  0.00    +0.075 C 
ATOM     29  C   UNL     1       9.853   5.135   7.205  0.00  0.00    +0.013 C 
ATOM     30  C   UNL     1       8.417   6.069   5.319  0.00  0.00    +0.013 C 
ATOM     32  C   UNL     1       9.838   6.508   7.878  0.00  0.00    +0.001 C 
ATOM     33  C   UNL     1       8.434   7.435   6.003  0.00  0.00    +0.001 C 
ATOM     34  C   UNL     1       8.592   7.305   7.514  0.00  0.00    +0.000 C 
ENDBRANCH  28  27
BRANCH  16   3
ATOM      3  O   UNL     1      20.983   9.675   4.338  0.00  0.00    -0.391 OA
ATOM     37  H   UNL     1      21.645   9.031   4.644  0.00  0.00    +0.210 HD
ENDBRANCH  16   3
BRANCH  13  21
ATOM     21  C   UNL     1      18.705  10.632   5.734  0.00  0.00    +0.165 C 
BRANCH  21   4
ATOM      4  O   UNL     1      19.693  10.869   6.712  0.00  0.00    -0.394 OA
ATOM     38  H   UNL     1      20.351  10.157   6.638  0.00  0.00    +0.209 HD
ENDBRANCH  21   4
ENDBRANCH  13  21
BRANCH  14  24
ATOM     24  C   UNL     1      14.853   7.952   1.968  0.00  0.00    +0.106 C 
BRANCH  24  25
ATOM      2  S   UNL     1      11.363   4.969   0.106  0.00  0.00    -0.061 S 
ATOM      5  O   UNL     1      15.822   6.223   0.602  0.00  0.00    -0.275 OA
ATOM      9  N   UNL     1      13.490   6.323   0.897  0.00  0.00    -0.265 N 
ATOM     10  N   UNL     1      13.794   4.392  -0.552  0.00  0.00    -0.233 NA
ATOM     25  C   UNL     1      14.809   6.729   1.071  0.00  0.00    +0.219 C 
ATOM     31  C   UNL     1      13.057   5.235   0.137  0.00  0.00    +0.164 A 
ATOM     35  C   UNL     1      11.618   3.616  -0.915  0.00  0.00    +0.068 A 
ATOM     36  C   UNL     1      12.967   3.465  -1.155  0.00  0.00    +0.120 A 
ATOM     40  H   UNL     1      12.741   6.847   1.345  0.00  0.00    +0.157 HD
ENDBRANCH  24  25
ENDBRANCH  14  24
TORSDOF 6
ENDMDL
MODEL 4
REMARK VINA RESULT:      -6.6      3.766      7.076
REMARK  Name = 11882972
REMARK  8 active torsions:
REMARK  status: ('A' for Active; 'I' for Inactive)
REMARK    1  A    between atoms: O_3  and  C_16
REMARK    2  A    between atoms: O_4  and  C_21
REMARK    3  A    between atoms: C_11  and  C_19
REMARK    4  A    between atoms: C_13  and  C_21
REMARK    5  A    between atoms: C_13  and  C_22
REMARK    6  A    between atoms: C_14  and  C_24
REMARK    7  A    between atoms: C_24  and  C_25
REMARK    8  A    between atoms: C_27  and  C_28
REMARK                            x       y       z     vdW  Elec       q    Type
REMARK                         _______ _______ _______ _____ _____    ______ ____
ROOT
ATOM      1  S   UNL     1      -8.296 -11.685  12.889  0.00  0.00    -0.057 S 
ATOM      6  O   UNL     1      -4.854 -12.238   9.784  0.00  0.00    -0.275 OA
ATOM      7  N   UNL     1      -5.732 -11.876  12.603  0.00  0.00    -0.229 NA
ATOM      8  N   UNL     1      -7.061 -12.008  10.598  0.00  0.00    -0.264 N 
ATOM     11  C   UNL     1      -5.385 -11.087  16.362  0.00  0.00    -0.019 C 
ATOM     12  C   UNL     1      -6.777 -11.776  16.715  0.00  0.00    +0.011 C 
ATOM     13  C   UNL     1      -7.274 -11.661  18.207  0.00  0.00    +0.021 C 
ATOM     14  C   UNL     1      -4.878 -11.686  14.970  0.00  0.00    +0.054 C 
ATOM     15  C   UNL     1      -4.343 -11.441  17.454  0.00  0.00    +0.010 C 
ATOM     16  C   UNL     1      -6.098 -12.002  19.167  0.00  0.00    +0.123 C 
ATOM     17  C   UNL     1      -7.868 -11.424  15.662  0.00  0.00    +0.049 C 
ATOM     18  C   UNL     1      -4.834 -11.203  18.875  0.00  0.00    +0.032 C 
ATOM     19  C   UNL     1      -5.486  -9.547  16.252  0.00  0.00    +0.012 C 
ATOM     20  C   UNL     1      -5.989 -11.704  13.951  0.00  0.00    +0.058 A 
ATOM     22  C   UNL     1      -8.391 -12.715  18.453  0.00  0.00    +0.016 C 
ATOM     23  C   UNL     1      -7.324 -11.604  14.285  0.00  0.00    +0.015 A 
ATOM     26  C   UNL     1      -6.872 -11.874  11.947  0.00  0.00    +0.165 A 
ATOM     28  C   UNL     1      -6.068 -12.177   9.619  0.00  0.00    +0.222 C 
ATOM     39  H   UNL     1      -8.034 -11.985  10.302  0.00  0.00    +0.157 HD
ENDROOT
BRANCH  28  27
ATOM     27  C   UNL     1      -6.657 -12.292   8.243  0.00  0.00    +0.075 C 
ATOM     29  C   UNL     1      -7.666 -11.172   7.982  0.00  0.00    +0.013 C 
ATOM     30  C   UNL     1      -5.543 -12.340   7.195  0.00  0.00    +0.013 C 
ATOM     32  C   UNL     1      -7.014  -9.820   7.693  0.00  0.00    +0.001 C 
ATOM     33  C   UNL     1      -4.908 -10.976   6.932  0.00  0.00    +0.001 C 
ATOM     34  C   UNL     1      -5.958  -9.922   6.599  0.00  0.00    +0.000 C 
ENDBRANCH  28  27
BRANCH  16   3
ATOM      3  O   UNL     1      -6.478 -11.783  20.525  0.00  0.00    -0.391 OA
ATOM     37  H   UNL     1      -6.084 -10.940  20.809  0.00  0.00    +0.210 HD
ENDBRANCH  16   3
BRANCH  13  21
ATOM     21  C   UNL     1      -7.903 -10.297  18.570  0.00  0.00    +0.165 C 
BRANCH  21   4
ATOM      4  O   UNL     1      -8.707 -10.483  19.713  0.00  0.00    -0.394 OA
ATOM     38  H   UNL     1      -9.110 -11.366  19.644  0.00  0.00    +0.209 HD
ENDBRANCH  21   4
ENDBRANCH  13  21
BRANCH  14  24
ATOM     24  C   UNL     1      -3.615 -11.019  14.411  0.00  0.00    +0.106 C 
BRANCH  24  25
ATOM      2  S   UNL     1      -2.705 -15.329  12.143  0.00  0.00    -0.061 S 
ATOM      5  O   UNL     1      -1.386 -11.797  14.880  0.00  0.00    -0.275 OA
ATOM      9  N   UNL     1      -2.808 -13.060  13.495  0.00  0.00    -0.265 N 
ATOM     10  N   UNL     1      -0.762 -14.376  13.556  0.00  0.00    -0.233 NA
ATOM     25  C   UNL     1      -2.453 -11.988  14.307  0.00  0.00    +0.219 C 
ATOM     31  C   UNL     1      -1.997 -14.150  13.169  0.00  0.00    +0.164 A 
ATOM     35  C   UNL     1      -1.246 -16.228  12.211  0.00  0.00    +0.068 A 
ATOM     36  C   UNL     1      -0.332 -15.568  13.005  0.00  0.00    +0.120 A 
ATOM     40  H   UNL     1      -3.735 -13.086  13.076  0.00  0.00    +0.157 HD
ENDBRANCH  24  25
ENDBRANCH  14  24
TORSDOF 6
ENDMDL
MODEL 5
REMARK VINA RESULT:      -6.5      4.619     10.180
REMARK  Name = 11882972
REMARK  8 active torsions:
REMARK  status: ('A' for Active; 'I' for Inactive)
REMARK    1  A    between atoms: O_3  and  C_16
REMARK    2  A    between atoms: O_4  and  C_21
REMARK    3  A    between atoms: C_11  and  C_19
REMARK    4  A    between atoms: C_13  and  C_21
REMARK    5  A    between atoms: C_13  and  C_22
REMARK    6  A    between atoms: C_14  and  C_24
REMARK    7  A    between atoms: C_24  and  C_25
REMARK    8  A    between atoms: C_27  and  C_28
REMARK                            x       y       z     vdW  Elec       q    Type
REMARK                         _______ _______ _______ _____ _____    ______ ____
ROOT
ATOM      1  S   UNL     1     -10.324 -10.762  20.078  0.00  0.00    -0.057 S 
ATOM      6  O   UNL     1      -7.264  -9.303  16.868  0.00  0.00    -0.275 OA
ATOM      7  N   UNL     1     -10.072  -9.513  17.827  0.00  0.00    -0.229 NA
ATOM      8  N   UNL     1      -8.049 -10.336  18.844  0.00  0.00    -0.264 N 
ATOM     11  C   UNL     1     -13.921  -9.392  17.613  0.00  0.00    -0.019 C 
ATOM     12  C   UNL     1     -14.086  -9.338  19.196  0.00  0.00    +0.011 C 
ATOM     13  C   UNL     1     -15.555  -9.395  19.765  0.00  0.00    +0.021 C 
ATOM     14  C   UNL     1     -12.449  -8.886  17.253  0.00  0.00    +0.054 C 
ATOM     15  C   UNL     1     -14.943  -8.428  16.956  0.00  0.00    +0.010 C 
ATOM     16  C   UNL     1     -16.453  -8.407  18.967  0.00  0.00    +0.123 C 
ATOM     17  C   UNL     1     -13.100 -10.314  19.903  0.00  0.00    +0.049 C 
ATOM     18  C   UNL     1     -16.368  -8.604  17.458  0.00  0.00    +0.032 C 
ATOM     19  C   UNL     1     -14.133 -10.811  17.034  0.00  0.00    +0.012 C 
ATOM     20  C   UNL     1     -11.419  -9.540  18.139  0.00  0.00    +0.058 A 
ATOM     22  C   UNL     1     -15.545  -8.918  21.246  0.00  0.00    +0.016 C 
ATOM     23  C   UNL     1     -11.732 -10.158  19.333  0.00  0.00    +0.015 A 
ATOM     26  C   UNL     1      -9.402 -10.133  18.772  0.00  0.00    +0.165 A 
ATOM     28  C   UNL     1      -7.084  -9.921  17.912  0.00  0.00    +0.222 C 
ATOM     39  H   UNL     1      -7.739 -10.837  19.673  0.00  0.00    +0.157 HD
ENDROOT
BRANCH  28  27
ATOM     27  C   UNL     1      -5.699 -10.323  18.331  0.00  0.00    +0.075 C 
ATOM     29  C   UNL     1      -5.710 -11.677  19.043  0.00  0.00    +0.013 C 
ATOM     30  C   UNL     1      -4.756 -10.297  17.126  0.00  0.00    +0.013 C 
ATOM     32  C   UNL     1      -5.870 -12.864  18.093  0.00  0.00    +0.001 C 
ATOM     33  C   UNL     1      -4.943 -11.492  16.193  0.00  0.00    +0.001 C 
ATOM     34  C   UNL     1      -4.864 -12.814  16.950  0.00  0.00    +0.000 C 
ENDBRANCH  28  27
BRANCH  16   3
ATOM      3  O   UNL     1     -17.816  -8.528  19.371  0.00  0.00    -0.391 OA
ATOM     37  H   UNL     1     -18.258  -9.128  18.745  0.00  0.00    +0.210 HD
ENDBRANCH  16   3
BRANCH  13  21
ATOM     21  C   UNL     1     -16.178 -10.809  19.789  0.00  0.00    +0.165 C 
BRANCH  21   4
ATOM      4  O   UNL     1     -16.986 -10.905  20.940  0.00  0.00    -0.394 OA
ATOM     38  H   UNL     1     -16.602 -10.319  21.615  0.00  0.00    +0.209 HD
ENDBRANCH  21   4
ENDBRANCH  13  21
BRANCH  14  24
ATOM     24  C   UNL     1     -12.075  -9.014  15.771  0.00  0.00    +0.106 C 
BRANCH  24  25
ATOM      2  S   UNL     1     -14.462  -5.498  13.224  0.00  0.00    -0.061 S 
ATOM      5  O   UNL     1     -10.602  -7.196  15.205  0.00  0.00    -0.275 OA
ATOM      9  N   UNL     1     -12.860  -7.132  14.546  0.00  0.00    -0.265 N 
ATOM     10  N   UNL     1     -11.958  -5.046  13.677  0.00  0.00    -0.233 NA
ATOM     25  C   UNL     1     -11.729  -7.674  15.149  0.00  0.00    +0.219 C 
ATOM     31  C   UNL     1     -12.928  -5.911  13.873  0.00  0.00    +0.164 A 
ATOM     35  C   UNL     1     -13.789  -4.038  12.628  0.00  0.00    +0.068 A 
ATOM     36  C   UNL     1     -12.453  -3.972  12.963  0.00  0.00    +0.120 A 
ATOM     40  H   UNL     1     -13.740  -7.641  14.583  0.00  0.00    +0.157 HD
ENDBRANCH  24  25
ENDBRANCH  14  24
TORSDOF 6
ENDMDL
MODEL 6
REMARK VINA RESULT:      -6.5      3.545      7.061
REMARK  Name = 11882972
REMARK  8 active torsions:
REMARK  status: ('A' for Active; 'I' for Inactive)
REMARK    1  A    between atoms: O_3  and  C_16
REMARK    2  A    between atoms: O_4  and  C_21
REMARK    3  A    between atoms: C_11  and  C_19
REMARK    4  A    between atoms: C_13  and  C_21
REMARK    5  A    between atoms: C_13  and  C_22
REMARK    6  A    between atoms: C_14  and  C_24
REMARK    7  A    between atoms: C_24  and  C_25
REMARK    8  A    between atoms: C_27  and  C_28
REMARK                            x       y       z     vdW  Elec       q    Type
REMARK                         _______ _______ _______ _____ _____    ______ ____
ROOT
ATOM      1  S   UNL     1     -10.197 -10.387  13.086  0.00  0.00    -0.057 S 
ATOM      6  O   UNL     1      -5.899  -8.976  11.936  0.00  0.00    -0.275 OA
ATOM      7  N   UNL     1      -7.821  -9.924  13.999  0.00  0.00    -0.229 NA
ATOM      8  N   UNL     1      -8.177  -9.537  11.647  0.00  0.00    -0.264 N 
ATOM     11  C   UNL     1      -9.190 -10.601  17.540  0.00  0.00    -0.019 C 
ATOM     12  C   UNL     1     -10.272 -11.642  17.008  0.00  0.00    +0.011 C 
ATOM     13  C   UNL     1     -11.291 -12.219  18.064  0.00  0.00    +0.021 C 
ATOM     14  C   UNL     1      -8.029 -10.496  16.447  0.00  0.00    +0.054 C 
ATOM     15  C   UNL     1      -8.573 -11.130  18.860  0.00  0.00    +0.010 C 
ATOM     16  C   UNL     1     -10.514 -12.657  19.338  0.00  0.00    +0.123 C 
ATOM     17  C   UNL     1     -10.945 -11.140  15.697  0.00  0.00    +0.049 C 
ATOM     18  C   UNL     1      -9.603 -11.567  19.892  0.00  0.00    +0.032 C 
ATOM     19  C   UNL     1      -9.783  -9.195  17.797  0.00  0.00    +0.012 C 
ATOM     20  C   UNL     1      -8.601 -10.344  15.061  0.00  0.00    +0.058 A 
ATOM     22  C   UNL     1     -11.968 -13.489  17.476  0.00  0.00    +0.016 C 
ATOM     23  C   UNL     1      -9.906 -10.657  14.743  0.00  0.00    +0.015 A 
ATOM     26  C   UNL     1      -8.559  -9.901  12.911  0.00  0.00    +0.165 A 
ATOM     28  C   UNL     1      -6.902  -9.106  11.243  0.00  0.00    +0.222 C 
ATOM     39  H   UNL     1      -8.911  -9.601  10.947  0.00  0.00    +0.157 HD
ENDROOT
BRANCH  28  27
ATOM     27  C   UNL     1      -6.860  -8.796   9.774  0.00  0.00    +0.075 C 
ATOM     29  C   UNL     1      -5.544  -8.114   9.394  0.00  0.00    +0.013 C 
ATOM     30  C   UNL     1      -7.126 -10.064   8.960  0.00  0.00    +0.013 C 
ATOM     32  C   UNL     1      -4.359  -9.076   9.322  0.00  0.00    +0.001 C 
ATOM     33  C   UNL     1      -5.925 -11.007   8.910  0.00  0.00    +0.001 C 
ATOM     34  C   UNL     1      -4.663 -10.287   8.448  0.00  0.00    +0.000 C 
ENDBRANCH  28  27
BRANCH  16   3
ATOM      3  O   UNL     1     -11.419 -13.064  20.364  0.00  0.00    -0.391 OA
ATOM     37  H   UNL     1     -11.996 -13.754  19.991  0.00  0.00    +0.210 HD
ENDBRANCH  16   3
BRANCH  13  21
ATOM     21  C   UNL     1     -12.448 -11.262  18.427  0.00  0.00    +0.165 C 
BRANCH  21   4
ATOM      4  O   UNL     1     -13.586 -12.047  18.703  0.00  0.00    -0.394 OA
ATOM     38  H   UNL     1     -13.295 -12.800  19.246  0.00  0.00    +0.209 HD
ENDBRANCH  21   4
ENDBRANCH  13  21
BRANCH  14  24
ATOM     24  C   UNL     1      -6.973  -9.422  16.740  0.00  0.00    +0.106 C 
BRANCH  24  25
ATOM      2  S   UNL     1      -3.417 -10.634  13.511  0.00  0.00    -0.061 S 
ATOM      5  O   UNL     1      -5.035 -10.295  17.867  0.00  0.00    -0.275 OA
ATOM      9  N   UNL     1      -5.052 -10.113  15.521  0.00  0.00    -0.265 N 
ATOM     10  N   UNL     1      -2.856 -11.046  16.000  0.00  0.00    -0.233 NA
ATOM     25  C   UNL     1      -5.572  -9.998  16.806  0.00  0.00    +0.219 C 
ATOM     31  C   UNL     1      -3.788 -10.604  15.185  0.00  0.00    +0.164 A 
ATOM     35  C   UNL     1      -1.878 -11.290  13.888  0.00  0.00    +0.068 A 
ATOM     36  C   UNL     1      -1.761 -11.438  15.254  0.00  0.00    +0.120 A 
ATOM     40  H   UNL     1      -5.613  -9.818  14.725  0.00  0.00    +0.157 HD
ENDBRANCH  24  25
ENDBRANCH  14  24
TORSDOF 6
ENDMDL
MODEL 7
REMARK VINA RESULT:      -6.5      3.876      7.652
REMARK  Name = 11882972
REMARK  8 active torsions:
REMARK  status: ('A' for Active; 'I' for Inactive)
REMARK    1  A    between atoms: O_3  and  C_16
REMARK    2  A    between atoms: O_4  and  C_21
REMARK    3  A    between atoms: C_11  and  C_19
REMARK    4  A    between atoms: C_13  and  C_21
REMARK    5  A    between atoms: C_13  and  C_22
REMARK    6  A    between atoms: C_14  and  C_24
REMARK    7  A    between atoms: C_24  and  C_25
REMARK    8  A    between atoms: C_27  and  C_28
REMARK                            x       y       z     vdW  Elec       q    Type
REMARK                         _______ _______ _______ _____ _____    ______ ____
ROOT
ATOM      1  S   UNL     1      -8.771  -9.183  14.656  0.00  0.00    -0.057 S 
ATOM      6  O   UNL     1      -4.818 -10.308  12.443  0.00  0.00    -0.275 OA
ATOM      7  N   UNL     1      -6.650 -10.660  14.760  0.00  0.00    -0.229 NA
ATOM      8  N   UNL     1      -6.874  -9.213  12.846  0.00  0.00    -0.264 N 
ATOM     11  C   UNL     1      -7.750 -11.767  18.287  0.00  0.00    -0.019 C 
ATOM     12  C   UNL     1      -9.297 -11.617  17.937  0.00  0.00    +0.011 C 
ATOM     13  C   UNL     1     -10.322 -11.841  19.114  0.00  0.00    +0.021 C 
ATOM     14  C   UNL     1      -6.949 -11.939  16.915  0.00  0.00    +0.054 C 
ATOM     15  C   UNL     1      -7.537 -13.043  19.141  0.00  0.00    +0.010 C 
ATOM     16  C   UNL     1      -9.936 -13.131  19.892  0.00  0.00    +0.123 C 
ATOM     17  C   UNL     1      -9.569 -10.330  17.104  0.00  0.00    +0.049 C 
ATOM     18  C   UNL     1      -8.477 -13.153  20.332  0.00  0.00    +0.032 C 
ATOM     19  C   UNL     1      -7.188 -10.550  19.062  0.00  0.00    +0.012 C 
ATOM     20  C   UNL     1      -7.395 -10.922  15.896  0.00  0.00    +0.058 A 
ATOM     22  C   UNL     1     -11.740 -12.068  18.516  0.00  0.00    +0.016 C 
ATOM     23  C   UNL     1      -8.582 -10.225  15.991  0.00  0.00    +0.015 A 
ATOM     26  C   UNL     1      -7.274  -9.755  14.038  0.00  0.00    +0.165 A 
ATOM     28  C   UNL     1      -5.700  -9.512  12.136  0.00  0.00    +0.222 C 
ATOM     39  H   UNL     1      -7.517  -8.530  12.454  0.00  0.00    +0.157 HD
ENDROOT
BRANCH  28  27
ATOM     27  C   UNL     1      -5.603  -8.719  10.864  0.00  0.00    +0.075 C 
ATOM     29  C   UNL     1      -4.184  -8.768  10.294  0.00  0.00    +0.013 C 
ATOM     30  C   UNL     1      -6.659  -9.194   9.864  0.00  0.00    +0.013 C 
ATOM     32  C   UNL     1      -3.850 -10.092   9.605  0.00  0.00    +0.001 C 
ATOM     33  C   UNL     1      -6.299 -10.521   9.198  0.00  0.00    +0.001 C 
ATOM     34  C   UNL     1      -4.906 -10.479   8.578  0.00  0.00    +0.000 C 
ENDBRANCH  28  27
BRANCH  16   3
ATOM      3  O   UNL     1     -10.766 -13.293  21.041  0.00  0.00    -0.391 OA
ATOM     37  H   UNL     1     -11.308 -12.489  21.129  0.00  0.00    +0.210 HD
ENDBRANCH  16   3
BRANCH  13  21
ATOM     21  C   UNL     1     -10.465 -10.640  20.076  0.00  0.00    +0.165 C 
BRANCH  21   4
ATOM      4  O   UNL     1     -11.725 -10.735  20.700  0.00  0.00    -0.394 OA
ATOM     38  H   UNL     1     -11.705 -11.517  21.278  0.00  0.00    +0.209 HD
ENDBRANCH  21   4
ENDBRANCH  13  21
BRANCH  14  24
ATOM     24  C   UNL     1      -5.422 -11.950  17.065  0.00  0.00    +0.106 C 
BRANCH  24  25
ATOM      2  S   UNL     1      -2.259 -12.983  13.394  0.00  0.00    -0.061 S 
ATOM      5  O   UNL     1      -5.037 -14.319  16.888  0.00  0.00    -0.275 OA
ATOM      9  N   UNL     1      -3.956 -12.836  15.415  0.00  0.00    -0.265 N 
ATOM     10  N   UNL     1      -3.152 -15.022  14.709  0.00  0.00    -0.233 NA
ATOM     25  C   UNL     1      -4.797 -13.194  16.464  0.00  0.00    +0.219 C 
ATOM     31  C   UNL     1      -3.209 -13.711  14.624  0.00  0.00    +0.164 A 
ATOM     35  C   UNL     1      -1.714 -14.540  12.927  0.00  0.00    +0.068 A 
ATOM     36  C   UNL     1      -2.293 -15.495  13.736  0.00  0.00    +0.120 A 
ATOM     40  H   UNL     1      -3.845 -11.854  15.175  0.00  0.00    +0.157 HD
ENDBRANCH  24  25
ENDBRANCH  14  24
TORSDOF 6
ENDMDL
MODEL 8
REMARK VINA RESULT:      -6.4      2.257      2.979
REMARK  Name = 11882972
REMARK  8 active torsions:
REMARK  status: ('A' for Active; 'I' for Inactive)
REMARK    1  A    between atoms: O_3  and  C_16
REMARK    2  A    between atoms: O_4  and  C_21
REMARK    3  A    between atoms: C_11  and  C_19
REMARK    4  A    between atoms: C_13  and  C_21
REMARK    5  A    between atoms: C_13  and  C_22
REMARK    6  A    between atoms: C_14  and  C_24
REMARK    7  A    between atoms: C_24  and  C_25
REMARK    8  A    between atoms: C_27  and  C_28
REMARK                            x       y       z     vdW  Elec       q    Type
REMARK                         _______ _______ _______ _____ _____    ______ ____
ROOT
ATOM      1  S   UNL     1      -6.585 -11.171  12.416  0.00  0.00    -0.057 S 
ATOM      6  O   UNL     1     -10.212  -8.595  11.001  0.00  0.00    -0.275 OA
ATOM      7  N   UNL     1      -8.611  -9.774  13.214  0.00  0.00    -0.229 NA
ATOM      8  N   UNL     1      -8.280  -9.947  10.833  0.00  0.00    -0.264 N 
ATOM     11  C   UNL     1      -7.814 -10.913  16.811  0.00  0.00    -0.019 C 
ATOM     12  C   UNL     1      -6.252 -11.012  16.518  0.00  0.00    +0.011 C 
ATOM     13  C   UNL     1      -5.342 -11.584  17.671  0.00  0.00    +0.021 C 
ATOM     14  C   UNL     1      -8.457  -9.930  15.728  0.00  0.00    +0.054 C 
ATOM     15  C   UNL     1      -8.035 -10.300  18.218  0.00  0.00    +0.010 C 
ATOM     16  C   UNL     1      -5.726 -10.900  19.014  0.00  0.00    +0.123 C 
ATOM     17  C   UNL     1      -5.976 -11.651  15.125  0.00  0.00    +0.049 C 
ATOM     18  C   UNL     1      -7.218 -10.966  19.316  0.00  0.00    +0.032 C 
ATOM     19  C   UNL     1      -8.527 -12.285  16.748  0.00  0.00    +0.012 C 
ATOM     20  C   UNL     1      -7.973 -10.262  14.339  0.00  0.00    +0.058 A 
ATOM     22  C   UNL     1      -3.859 -11.222  17.375  0.00  0.00    +0.016 C 
ATOM     23  C   UNL     1      -6.846 -11.020  14.093  0.00  0.00    +0.015 A 
ATOM     26  C   UNL     1      -7.973 -10.195  12.144  0.00  0.00    +0.165 A 
ATOM     28  C   UNL     1      -9.354  -9.182  10.349  0.00  0.00    +0.222 C 
ATOM     39  H   UNL     1      -7.643 -10.368  10.161  0.00  0.00    +0.157 HD
ENDROOT
BRANCH  28  27
ATOM     27  C   UNL     1      -9.369  -9.130   8.849  0.00  0.00    +0.075 C 
ATOM     29  C   UNL     1     -10.280  -8.009   8.346  0.00  0.00    +0.013 C 
ATOM     30  C   UNL     1      -7.941  -9.018   8.311  0.00  0.00    +0.013 C 
ATOM     32  C   UNL     1      -9.662  -6.616   8.482  0.00  0.00    +0.001 C 
ATOM     33  C   UNL     1      -7.350  -7.618   8.466  0.00  0.00    +0.001 C 
ATOM     34  C   UNL     1      -8.266  -6.553   7.874  0.00  0.00    +0.000 C 
ENDBRANCH  28  27
BRANCH  16   3
ATOM      3  O   UNL     1      -5.010 -11.487  20.100  0.00  0.00    -0.391 OA
ATOM     37  H   UNL     1      -4.090 -11.618  19.811  0.00  0.00    +0.210 HD
ENDBRANCH  16   3
BRANCH  13  21
ATOM     21  C   UNL     1      -5.373 -13.123  17.809  0.00  0.00    +0.165 C 
BRANCH  21   4
ATOM      4  O   UNL     1      -4.209 -13.519  18.498  0.00  0.00    -0.394 OA
ATOM     38  H   UNL     1      -4.491 -13.938  19.328  0.00  0.00    +0.209 HD
ENDBRANCH  21   4
ENDBRANCH  13  21
BRANCH  14  24
ATOM     24  C   UNL     1      -9.988  -9.837  15.780  0.00  0.00    +0.106 C 
BRANCH  24  25
ATOM      2  S   UNL     1     -12.997  -7.286  12.783  0.00  0.00    -0.061 S 
ATOM      5  O   UNL     1     -10.131  -7.530  16.448  0.00  0.00    -0.275 OA
ATOM      9  N   UNL     1     -11.342  -8.293  14.581  0.00  0.00    -0.265 N 
ATOM     10  N   UNL     1     -11.916  -5.931  14.701  0.00  0.00    -0.233 NA
ATOM     25  C   UNL     1     -10.480  -8.407  15.666  0.00  0.00    +0.219 C 
ATOM     31  C   UNL     1     -11.990  -7.128  14.163  0.00  0.00    +0.164 A 
ATOM     35  C   UNL     1     -13.378  -5.618  12.901  0.00  0.00    +0.068 A 
ATOM     36  C   UNL     1     -12.713  -5.067  13.976  0.00  0.00    +0.120 A 
ATOM     40  H   UNL     1     -11.549  -9.114  14.017  0.00  0.00    +0.157 HD
ENDBRANCH  24  25
ENDBRANCH  14  24
TORSDOF 6
ENDMDL
MODEL 9
REMARK VINA RESULT:      -6.4     25.892     30.387
REMARK  Name = 11882972
REMARK  8 active torsions:
REMARK  status: ('A' for Active; 'I' for Inactive)
REMARK    1  A    between atoms: O_3  and  C_16
REMARK    2  A    between atoms: O_4  and  C_21
REMARK    3  A    between atoms: C_11  and  C_19
REMARK    4  A    between atoms: C_13  and  C_21
REMARK    5  A    between atoms: C_13  and  C_22
REMARK    6  A    between atoms: C_14  and  C_24
REMARK    7  A    between atoms: C_24  and  C_25
REMARK    8  A    between atoms: C_27  and  C_28
REMARK                            x       y       z     vdW  Elec       q    Type
REMARK                         _______ _______ _______ _____ _____    ______ ____
ROOT
ATOM      1  S   UNL     1      18.792 -10.214   1.297  0.00  0.00    -0.057 S 
ATOM      6  O   UNL     1      19.433 -13.936   4.041  0.00  0.00    -0.275 OA
ATOM      7  N   UNL     1      20.325 -11.259   3.101  0.00  0.00    -0.229 NA
ATOM      8  N   UNL     1      18.411 -12.554   2.419  0.00  0.00    -0.264 N 
ATOM     11  C   UNL     1      22.734  -8.291   2.586  0.00  0.00    -0.019 C 
ATOM     12  C   UNL     1      21.551  -7.295   2.207  0.00  0.00    +0.011 C 
ATOM     13  C   UNL     1      21.957  -5.843   1.747  0.00  0.00    +0.021 C 
ATOM     14  C   UNL     1      22.109  -9.503   3.420  0.00  0.00    +0.054 C 
ATOM     15  C   UNL     1      23.758  -7.555   3.488  0.00  0.00    +0.010 C 
ATOM     16  C   UNL     1      23.020  -5.273   2.729  0.00  0.00    +0.123 C 
ATOM     17  C   UNL     1      20.509  -7.979   1.275  0.00  0.00    +0.049 C 
ATOM     18  C   UNL     1      24.206  -6.208   2.940  0.00  0.00    +0.032 C 
ATOM     19  C   UNL     1      23.473  -8.847   1.345  0.00  0.00    +0.012 C 
ATOM     20  C   UNL     1      20.864 -10.032   2.756  0.00  0.00    +0.058 A 
ATOM     22  C   UNL     1      20.711  -4.916   1.827  0.00  0.00    +0.016 C 
ATOM     23  C   UNL     1      20.151  -9.324   1.810  0.00  0.00    +0.015 A 
ATOM     26  C   UNL     1      19.237 -11.462   2.390  0.00  0.00    +0.165 A 
ATOM     28  C   UNL     1      18.552 -13.698   3.221  0.00  0.00    +0.222 C 
ATOM     39  H   UNL     1      17.615 -12.500   1.787  0.00  0.00    +0.157 HD
ENDROOT
BRANCH  28  27
ATOM     27  C   UNL     1      17.448 -14.687   2.979  0.00  0.00    +0.075 C 
ATOM     29  C   UNL     1      16.759 -15.073   4.289  0.00  0.00    +0.013 C 
ATOM     30  C   UNL     1      16.472 -14.141   1.935  0.00  0.00    +0.013 C 
ATOM     32  C   UNL     1      15.808 -13.997   4.816  0.00  0.00    +0.001 C 
ATOM     33  C   UNL     1      15.540 -13.066   2.491  0.00  0.00    +0.001 C 
ATOM     34  C   UNL     1      14.822 -13.540   3.749  0.00  0.00    +0.000 C 
ENDBRANCH  28  27
BRANCH  16   3
ATOM      3  O   UNL     1      23.505  -4.012   2.270  0.00  0.00    -0.391 OA
ATOM     37  H   UNL     1      24.459  -4.105   2.105  0.00  0.00    +0.210 HD
ENDBRANCH  16   3
BRANCH  13  21
ATOM     21  C   UNL     1      22.451  -5.748   0.286  0.00  0.00    +0.165 C 
BRANCH  21   4
ATOM      4  O   UNL     1      21.905  -4.578  -0.279  0.00  0.00    -0.394 OA
ATOM     38  H   UNL     1      21.584  -4.024   0.453  0.00  0.00    +0.209 HD
ENDBRANCH  21   4
ENDBRANCH  13  21
BRANCH  14  24
ATOM     24  C   UNL     1      23.097 -10.633   3.740  0.00  0.00    +0.106 C 
BRANCH  24  25
ATOM      2  S   UNL     1      22.449 -14.900   6.172  0.00  0.00    -0.061 S 
ATOM      5  O   UNL     1      23.106 -10.288   6.122  0.00  0.00    -0.275 OA
ATOM      9  N   UNL     1      22.815 -12.452   5.245  0.00  0.00    -0.265 N 
ATOM     10  N   UNL     1      22.723 -12.800   7.653  0.00  0.00    -0.233 NA
ATOM     25  C   UNL     1      23.010 -11.076   5.188  0.00  0.00    +0.219 C 
ATOM     31  C   UNL     1      22.686 -13.218   6.407  0.00  0.00    +0.164 A 
ATOM     35  C   UNL     1      22.391 -15.105   7.873  0.00  0.00    +0.068 A 
ATOM     36  C   UNL     1      22.555 -13.883   8.492  0.00  0.00    +0.120 A 
ATOM     40  H   UNL     1      22.760 -12.987   4.382  0.00  0.00    +0.157 HD
ENDBRANCH  24  25
ENDBRANCH  14  24
TORSDOF 6
ENDMDL
MODEL 10
REMARK VINA RESULT:      -6.2     27.720     30.635
REMARK  Name = 11882972
REMARK  8 active torsions:
REMARK  status: ('A' for Active; 'I' for Inactive)
REMARK    1  A    between atoms: O_3  and  C_16
REMARK    2  A    between atoms: O_4  and  C_21
REMARK    3  A    between atoms: C_11  and  C_19
REMARK    4  A    between atoms: C_13  and  C_21
REMARK    5  A    between atoms: C_13  and  C_22
REMARK    6  A    between atoms: C_14  and  C_24
REMARK    7  A    between atoms: C_24  and  C_25
REMARK    8  A    between atoms: C_27  and  C_28
REMARK                            x       y       z     vdW  Elec       q    Type
REMARK                         _______ _______ _______ _____ _____    ______ ____
ROOT
ATOM      1  S   UNL     1      17.336  -9.492  -2.670  0.00  0.00    -0.057 S 
ATOM      6  O   UNL     1      19.683 -11.872   0.588  0.00  0.00    -0.275 OA
ATOM      7  N   UNL     1      19.128  -9.308  -0.813  0.00  0.00    -0.229 NA
ATOM      8  N   UNL     1      18.155 -11.483  -1.173  0.00  0.00    -0.264 N 
ATOM     11  C   UNL     1      19.718  -5.663  -1.926  0.00  0.00    -0.019 C 
ATOM     12  C   UNL     1      18.207  -5.477  -2.391  0.00  0.00    +0.011 C 
ATOM     13  C   UNL     1      17.837  -4.116  -3.097  0.00  0.00    +0.021 C 
ATOM     14  C   UNL     1      19.766  -6.867  -0.877  0.00  0.00    +0.054 C 
ATOM     15  C   UNL     1      20.199  -4.373  -1.211  0.00  0.00    +0.010 C 
ATOM     16  C   UNL     1      18.433  -2.936  -2.279  0.00  0.00    +0.123 C 
ATOM     17  C   UNL     1      17.685  -6.736  -3.143  0.00  0.00    +0.049 C 
ATOM     18  C   UNL     1      19.921  -3.096  -1.990  0.00  0.00    +0.032 C 
ATOM     19  C   UNL     1      20.677  -5.966  -3.102  0.00  0.00    +0.012 C 
ATOM     20  C   UNL     1      18.982  -8.053  -1.377  0.00  0.00    +0.058 A 
ATOM     22  C   UNL     1      16.291  -3.946  -3.095  0.00  0.00    +0.016 C 
ATOM     23  C   UNL     1      18.040  -7.968  -2.382  0.00  0.00    +0.015 A 
ATOM     26  C   UNL     1      18.316 -10.146  -1.420  0.00  0.00    +0.165 A 
ATOM     28  C   UNL     1      18.830 -12.249  -0.209  0.00  0.00    +0.222 C 
ATOM     39  H   UNL     1      17.463 -11.942  -1.759  0.00  0.00    +0.157 HD
ENDROOT
BRANCH  28  27
ATOM     27  C   UNL     1      18.387 -13.684  -0.228  0.00  0.00    +0.075 C 
ATOM     29  C   UNL     1      18.737 -14.386   1.085  0.00  0.00    +0.013 C 
ATOM     30  C   UNL     1      16.897 -13.771  -0.567  0.00  0.00    +0.013 C 
ATOM     32  C   UNL     1      17.806 -14.015   2.240  0.00  0.00    +0.001 C 
ATOM     33  C   UNL     1      15.994 -13.390   0.605  0.00  0.00    +0.001 C 
ATOM     34  C   UNL     1      16.339 -14.181   1.862  0.00  0.00    +0.000 C 
ENDBRANCH  28  27
BRANCH  16   3
ATOM      3  O   UNL     1      18.227  -1.698  -2.959  0.00  0.00    -0.391 OA
ATOM     37  H   UNL     1      17.744  -1.890  -3.781  0.00  0.00    +0.210 HD
ENDBRANCH  16   3
BRANCH  13  21
ATOM     21  C   UNL     1      18.262  -4.028  -4.580  0.00  0.00    +0.165 C 
BRANCH  21   4
ATOM      4  O   UNL     1      17.286  -3.276  -5.265  0.00  0.00    -0.394 OA
ATOM     38  H   UNL     1      16.737  -2.834  -4.595  0.00  0.00    +0.209 HD
ENDBRANCH  21   4
ENDBRANCH  13  21
BRANCH  14  24
ATOM     24  C   UNL     1      21.179  -7.274  -0.438  0.00  0.00    +0.106 C 
BRANCH  24  25
ATOM      2  S   UNL     1      21.891 -10.457   3.293  0.00  0.00    -0.061 S 
ATOM      5  O   UNL     1      21.347  -6.123   1.670  0.00  0.00    -0.275 OA
ATOM      9  N   UNL     1      21.525  -8.468   1.590  0.00  0.00    -0.265 N 
ATOM     10  N   UNL     1      21.775  -7.962   3.957  0.00  0.00    -0.233 NA
ATOM     25  C   UNL     1      21.358  -7.190   1.066  0.00  0.00    +0.219 C 
ATOM     31  C   UNL     1      21.716  -8.787   2.936  0.00  0.00    +0.164 A 
ATOM     35  C   UNL     1      22.063 -10.060   4.951  0.00  0.00    +0.068 A 
ATOM     36  C   UNL     1      21.974  -8.693   5.112  0.00  0.00    +0.120 A 
ATOM     40  H   UNL     1      21.519  -9.271   0.965  0.00  0.00    +0.157 HD
ENDBRANCH  24  25
ENDBRANCH  14  24
TORSDOF 6
ENDMDL
