MODEL 1
REMARK VINA RESULT:      -6.0      0.000      0.000
REMARK  Name = 38028655
REMARK  11 active torsions:
REMARK  status: ('A' for Active; 'I' for Inactive)
REMARK    1  A    between atoms: N_3  and  C_13
REMARK    2  A    between atoms: N_4  and  C_20
REMARK    3  A    between atoms: C_6  and  C_10
REMARK    4  A    between atoms: C_7  and  C_13
REMARK    5  A    between atoms: C_9  and  C_14
REMARK    6  A    between atoms: C_10  and  C_15
REMARK    7  A    between atoms: C_10  and  C_16
REMARK    8  A    between atoms: C_11  and  C_17
REMARK    9  A    between atoms: C_14  and  C_18
REMARK   10  A    between atoms: C_19  and  C_21
REMARK   11  A    between atoms: C_20  and  C_23
REMARK                            x       y       z     vdW  Elec       q    Type
REMARK                         _______ _______ _______ _____ _____    ______ ____
ROOT
ATOM      6  C   UNL     1      -3.267 -12.141  12.511  0.00  0.00    +0.000 C 
ATOM      7  C   UNL     1      -2.151 -11.080  12.357  0.00  0.00    +0.032 C 
ATOM      8  C   UNL     1      -3.873 -12.485  11.142  0.00  0.00    +0.012 C 
ATOM      9  C   UNL     1      -4.469 -11.250  10.441  0.00  0.00    +0.023 C 
ATOM     11  C   UNL     1      -3.522 -10.067  10.485  0.00  0.00    -0.073 C 
ATOM     12  C   UNL     1      -2.484 -10.014  11.339  0.00  0.00    -0.022 C 
ATOM     17  C   UNL     1      -3.769  -8.965   9.493  0.00  0.00    +0.039 C 
ENDROOT
BRANCH   6  10
ATOM     10  C   UNL     1      -2.751 -13.417  13.184  0.00  0.00    -0.013 C 
ATOM     15  C   UNL     1      -2.529 -14.514  12.148  0.00  0.00    +0.007 C 
ATOM     16  C   UNL     1      -3.723 -13.881  14.264  0.00  0.00    +0.007 C 
ENDBRANCH   6  10
BRANCH   7  13
ATOM     13  C   UNL     1      -1.829 -10.417  13.702  0.00  0.00    +0.112 C 
BRANCH  13   3
ATOM      2  O   UNL     1      -2.039 -10.956  16.514  0.00  0.00    -0.269 OA
ATOM      3  N   UNL     1      -3.005 -10.304  14.507  0.00  0.00    -0.310 N 
ATOM     19  C   UNL     1      -3.020 -10.587  15.872  0.00  0.00    +0.262 C 
ATOM     28  H   UNL     1      -3.860  -9.965  14.073  0.00  0.00    +0.149 HD
BRANCH  19  21
ATOM      5  N   UNL     1      -5.291  -9.802  15.866  0.00  0.00    -0.250 NA
ATOM     21  C   UNL     1      -4.328 -10.447  16.562  0.00  0.00    +0.125 A 
ATOM     22  C   UNL     1      -4.505 -10.960  17.836  0.00  0.00    +0.033 A 
ATOM     24  C   UNL     1      -5.749 -10.803  18.435  0.00  0.00    +0.004 A 
ATOM     25  C   UNL     1      -6.488  -9.666  16.480  0.00  0.00    +0.111 A 
ATOM     26  C   UNL     1      -6.765 -10.144  17.750  0.00  0.00    +0.020 A 
ENDBRANCH  19  21
ENDBRANCH  13   3
ENDBRANCH   7  13
BRANCH   9  14
ATOM     14  C   UNL     1      -5.833 -10.883  11.034  0.00  0.00    +0.103 C 
BRANCH  14  18
ATOM      1  O   UNL     1      -6.980 -11.249   8.934  0.00  0.00    -0.276 OA
ATOM      4  N   UNL     1      -7.623  -9.479  10.296  0.00  0.00    -0.304 N 
ATOM     18  C   UNL     1      -6.858 -10.586   9.962  0.00  0.00    +0.214 C 
ATOM     29  H   UNL     1      -7.453  -9.008  11.180  0.00  0.00    +0.150 HD
BRANCH   4  20
ATOM     20  C   UNL     1      -8.679  -8.966   9.454  0.00  0.00    +0.193 C 
BRANCH  20  23
ATOM     23  C   UNL     1      -8.252  -7.756   8.752  0.00  0.00    -0.087 C 
ATOM     27  C   UNL     1      -7.901  -6.762   8.179  0.00  0.00    +0.005 C 
ENDBRANCH  20  23
ENDBRANCH   4  20
ENDBRANCH  14  18
ENDBRANCH   9  14
TORSDOF 8
ENDMDL
MODEL 2
REMARK VINA RESULT:      -5.9     23.544     26.098
REMARK  Name = 38028655
REMARK  11 active torsions:
REMARK  status: ('A' for Active; 'I' for Inactive)
REMARK    1  A    between atoms: N_3  and  C_13
REMARK    2  A    between atoms: N_4  and  C_20
REMARK    3  A    between atoms: C_6  and  C_10
REMARK    4  A    between atoms: C_7  and  C_13
REMARK    5  A    between atoms: C_9  and  C_14
REMARK    6  A    between atoms: C_10  and  C_15
REMARK    7  A    between atoms: C_10  and  C_16
REMARK    8  A    between atoms: C_11  and  C_17
REMARK    9  A    between atoms: C_14  and  C_18
REMARK   10  A    between atoms: C_19  and  C_21
REMARK   11  A    between atoms: C_20  and  C_23
REMARK                            x       y       z     vdW  Elec       q    Type
REMARK                         _______ _______ _______ _____ _____    ______ ____
ROOT
ATOM      6  C   UNL     1       9.145   8.051   5.052  0.00  0.00    +0.000 C 
ATOM      7  C   UNL     1       8.856   8.864   6.338  0.00  0.00    +0.032 C 
ATOM      8  C   UNL     1       8.471   6.672   5.126  0.00  0.00    +0.012 C 
ATOM      9  C   UNL     1       8.952   5.853   6.339  0.00  0.00    +0.023 C 
ATOM     11  C   UNL     1       8.950   6.677   7.611  0.00  0.00    -0.073 C 
ATOM     12  C   UNL     1       8.894   8.021   7.591  0.00  0.00    -0.022 C 
ATOM     17  C   UNL     1       8.969   5.919   8.908  0.00  0.00    +0.039 C 
ENDROOT
BRANCH   6  10
ATOM     10  C   UNL     1       8.676   8.789   3.794  0.00  0.00    -0.013 C 
ATOM     15  C   UNL     1       7.215   9.205   3.934  0.00  0.00    +0.007 C 
ATOM     16  C   UNL     1       8.874   7.917   2.559  0.00  0.00    +0.007 C 
ENDBRANCH   6  10
BRANCH   7  13
ATOM     13  C   UNL     1       9.834  10.036   6.482  0.00  0.00    +0.112 C 
BRANCH  13   3
ATOM      2  O   UNL     1      12.072  10.369   8.249  0.00  0.00    -0.269 OA
ATOM      3  N   UNL     1      11.178   9.608   6.247  0.00  0.00    -0.310 N 
ATOM     19  C   UNL     1      12.209   9.811   7.163  0.00  0.00    +0.262 C 
ATOM     28  H   UNL     1      11.383   9.099   5.392  0.00  0.00    +0.149 HD
BRANCH  19  21
ATOM      5  N   UNL     1      13.697   7.989   6.674  0.00  0.00    -0.250 NA
ATOM     21  C   UNL     1      13.556   9.330   6.759  0.00  0.00    +0.125 A 
ATOM     22  C   UNL     1      14.571  10.236   6.496  0.00  0.00    +0.033 A 
ATOM     24  C   UNL     1      15.811   9.732   6.120  0.00  0.00    +0.004 A 
ATOM     25  C   UNL     1      14.917   7.536   6.307  0.00  0.00    +0.111 A 
ATOM     26  C   UNL     1      15.995   8.357   6.022  0.00  0.00    +0.020 A 
ENDBRANCH  19  21
ENDBRANCH  13   3
ENDBRANCH   7  13
BRANCH   9  14
ATOM     14  C   UNL     1      10.335   5.245   6.081  0.00  0.00    +0.103 C 
BRANCH  14  18
ATOM      1  O   UNL     1      10.223   4.850   3.696  0.00  0.00    -0.276 OA
ATOM      4  N   UNL     1      11.856   6.268   4.547  0.00  0.00    -0.304 N 
ATOM     18  C   UNL     1      10.770   5.411   4.643  0.00  0.00    +0.214 C 
ATOM     29  H   UNL     1      12.227   6.695   5.391  0.00  0.00    +0.150 HD
BRANCH   4  20
ATOM     20  C   UNL     1      12.484   6.609   3.291  0.00  0.00    +0.193 C 
BRANCH  20  23
ATOM     23  C   UNL     1      12.693   8.053   3.181  0.00  0.00    -0.087 C 
ATOM     27  C   UNL     1      12.861   9.237   3.089  0.00  0.00    +0.005 C 
ENDBRANCH  20  23
ENDBRANCH   4  20
ENDBRANCH  14  18
ENDBRANCH   9  14
TORSDOF 8
ENDMDL
MODEL 3
REMARK VINA RESULT:      -5.7     23.499     26.038
REMARK  Name = 38028655
REMARK  11 active torsions:
REMARK  status: ('A' for Active; 'I' for Inactive)
REMARK    1  A    between atoms: N_3  and  C_13
REMARK    2  A    between atoms: N_4  and  C_20
REMARK    3  A    between atoms: C_6  and  C_10
REMARK    4  A    between atoms: C_7  and  C_13
REMARK    5  A    between atoms: C_9  and  C_14
REMARK    6  A    between atoms: C_10  and  C_15
REMARK    7  A    between atoms: C_10  and  C_16
REMARK    8  A    between atoms: C_11  and  C_17
REMARK    9  A    between atoms: C_14  and  C_18
REMARK   10  A    between atoms: C_19  and  C_21
REMARK   11  A    between atoms: C_20  and  C_23
REMARK                            x       y       z     vdW  Elec       q    Type
REMARK                         _______ _______ _______ _____ _____    ______ ____
ROOT
ATOM      6  C   UNL     1       8.943   8.411   5.745  0.00  0.00    +0.000 C 
ATOM      7  C   UNL     1       8.733   8.206   7.265  0.00  0.00    +0.032 C 
ATOM      8  C   UNL     1       8.523   7.153   4.970  0.00  0.00    +0.012 C 
ATOM      9  C   UNL     1       9.314   5.906   5.408  0.00  0.00    +0.023 C 
ATOM     11  C   UNL     1       9.379   5.782   6.917  0.00  0.00    -0.073 C 
ATOM     12  C   UNL     1       9.103   6.817   7.731  0.00  0.00    -0.022 C 
ATOM     17  C   UNL     1       9.725   4.428   7.470  0.00  0.00    +0.039 C 
ENDROOT
BRANCH   6  10
ATOM     10  C   UNL     1       8.169   9.625   5.222  0.00  0.00    -0.013 C 
ATOM     15  C   UNL     1       7.241   9.214   4.083  0.00  0.00    +0.007 C 
ATOM     16  C   UNL     1       9.132  10.717   4.768  0.00  0.00    +0.007 C 
ENDBRANCH   6  10
BRANCH   7  13
ATOM     13  C   UNL     1       9.518   9.243   8.077  0.00  0.00    +0.112 C 
BRANCH  13   3
ATOM      2  O   UNL     1      11.173  11.531   7.562  0.00  0.00    -0.269 OA
ATOM      3  N   UNL     1      10.900   9.231   7.714  0.00  0.00    -0.310 N 
ATOM     19  C   UNL     1      11.633  10.394   7.481  0.00  0.00    +0.262 C 
ATOM     28  H   UNL     1      11.381   8.337   7.661  0.00  0.00    +0.149 HD
BRANCH  19  21
ATOM      5  N   UNL     1      13.835  11.311   7.188  0.00  0.00    -0.250 NA
ATOM     21  C   UNL     1      13.053  10.212   7.086  0.00  0.00    +0.125 A 
ATOM     22  C   UNL     1      13.505   8.978   6.648  0.00  0.00    +0.033 A 
ATOM     24  C   UNL     1      14.844   8.863   6.292  0.00  0.00    +0.004 A 
ATOM     25  C   UNL     1      15.131  11.162   6.832  0.00  0.00    +0.111 A 
ATOM     26  C   UNL     1      15.679   9.972   6.383  0.00  0.00    +0.020 A 
ENDBRANCH  19  21
ENDBRANCH  13   3
ENDBRANCH   7  13
BRANCH   9  14
ATOM     14  C   UNL     1      10.720   5.902   4.796  0.00  0.00    +0.103 C 
BRANCH  14  18
ATOM      1  O   UNL     1       9.994   5.827   2.489  0.00  0.00    -0.276 OA
ATOM      4  N   UNL     1      11.636   4.354   3.221  0.00  0.00    -0.304 N 
ATOM     18  C   UNL     1      10.720   5.383   3.376  0.00  0.00    +0.214 C 
ATOM     29  H   UNL     1      12.202   4.070   4.016  0.00  0.00    +0.150 HD
BRANCH   4  20
ATOM     20  C   UNL     1      11.849   3.668   1.968  0.00  0.00    +0.193 C 
BRANCH  20  23
ATOM     23  C   UNL     1      13.275   3.560   1.660  0.00  0.00    -0.087 C 
ATOM     27  C   UNL     1      14.445   3.470   1.412  0.00  0.00    +0.005 C 
ENDBRANCH  20  23
ENDBRANCH   4  20
ENDBRANCH  14  18
ENDBRANCH   9  14
TORSDOF 8
ENDMDL
MODEL 4
REMARK VINA RESULT:      -5.7     22.990     25.217
REMARK  Name = 38028655
REMARK  11 active torsions:
REMARK  status: ('A' for Active; 'I' for Inactive)
REMARK    1  A    between atoms: N_3  and  C_13
REMARK    2  A    between atoms: N_4  and  C_20
REMARK    3  A    between atoms: C_6  and  C_10
REMARK    4  A    between atoms: C_7  and  C_13
REMARK    5  A    between atoms: C_9  and  C_14
REMARK    6  A    between atoms: C_10  and  C_15
REMARK    7  A    between atoms: C_10  and  C_16
REMARK    8  A    between atoms: C_11  and  C_17
REMARK    9  A    between atoms: C_14  and  C_18
REMARK   10  A    between atoms: C_19  and  C_21
REMARK   11  A    between atoms: C_20  and  C_23
REMARK                            x       y       z     vdW  Elec       q    Type
REMARK                         _______ _______ _______ _____ _____    ______ ____
ROOT
ATOM      6  C   UNL     1       8.969   8.626   5.184  0.00  0.00    +0.000 C 
ATOM      7  C   UNL     1       8.768   9.152   6.626  0.00  0.00    +0.032 C 
ATOM      8  C   UNL     1       8.417   7.198   5.051  0.00  0.00    +0.012 C 
ATOM      9  C   UNL     1       9.095   6.218   6.026  0.00  0.00    +0.023 C 
ATOM     11  C   UNL     1       9.177   6.785   7.430  0.00  0.00    -0.073 C 
ATOM     12  C   UNL     1       9.015   8.097   7.680  0.00  0.00    -0.022 C 
ATOM     17  C   UNL     1       9.403   5.803   8.545  0.00  0.00    +0.039 C 
ENDROOT
BRANCH   6  10
ATOM     10  C   UNL     1       8.303   9.537   4.148  0.00  0.00    -0.013 C 
ATOM     15  C   UNL     1       6.904   9.933   4.609  0.00  0.00    +0.007 C 
ATOM     16  C   UNL     1       8.249   8.848   2.788  0.00  0.00    +0.007 C 
ENDBRANCH   6  10
BRANCH   7  13
ATOM     13  C   UNL     1       9.663  10.366   6.901  0.00  0.00    +0.112 C 
BRANCH  13   3
ATOM      2  O   UNL     1      11.645  10.951   8.894  0.00  0.00    -0.269 OA
ATOM      3  N   UNL     1       9.427  10.884   8.213  0.00  0.00    -0.310 N 
ATOM     19  C   UNL     1      10.453  11.140   9.122  0.00  0.00    +0.262 C 
ATOM     28  H   UNL     1       8.474  11.112   8.481  0.00  0.00    +0.149 HD
BRANCH  19  21
ATOM      5  N   UNL     1       8.714  11.842  10.625  0.00  0.00    -0.250 NA
ATOM     21  C   UNL     1      10.041  11.652  10.455  0.00  0.00    +0.125 A 
ATOM     22  C   UNL     1      10.992  11.903  11.431  0.00  0.00    +0.033 A 
ATOM     24  C   UNL     1      10.552  12.379  12.661  0.00  0.00    +0.004 A 
ATOM     25  C   UNL     1       8.323  12.307  11.833  0.00  0.00    +0.111 A 
ATOM     26  C   UNL     1       9.194  12.588  12.873  0.00  0.00    +0.020 A 
ENDBRANCH  19  21
ENDBRANCH  13   3
ENDBRANCH   7  13
BRANCH   9  14
ATOM     14  C   UNL     1      10.483   5.807   5.520  0.00  0.00    +0.103 C 
BRANCH  14  18
ATOM      1  O   UNL     1      10.076   3.475   5.016  0.00  0.00    -0.276 OA
ATOM      4  N   UNL     1      10.812   4.899   3.333  0.00  0.00    -0.304 N 
ATOM     18  C   UNL     1      10.423   4.588   4.627  0.00  0.00    +0.214 C 
ATOM     29  H   UNL     1      11.067   5.857   3.109  0.00  0.00    +0.150 HD
BRANCH   4  20
ATOM     20  C   UNL     1      10.853   3.926   2.266  0.00  0.00    +0.193 C 
BRANCH  20  23
ATOM     23  C   UNL     1      12.232   3.585   1.915  0.00  0.00    -0.087 C 
ATOM     27  C   UNL     1      13.362   3.303   1.625  0.00  0.00    +0.005 C 
ENDBRANCH  20  23
ENDBRANCH   4  20
ENDBRANCH  14  18
ENDBRANCH   9  14
TORSDOF 8
ENDMDL
MODEL 5
REMARK VINA RESULT:      -5.7     20.779     23.008
REMARK  Name = 38028655
REMARK  11 active torsions:
REMARK  status: ('A' for Active; 'I' for Inactive)
REMARK    1  A    between atoms: N_3  and  C_13
REMARK    2  A    between atoms: N_4  and  C_20
REMARK    3  A    between atoms: C_6  and  C_10
REMARK    4  A    between atoms: C_7  and  C_13
REMARK    5  A    between atoms: C_9  and  C_14
REMARK    6  A    between atoms: C_10  and  C_15
REMARK    7  A    between atoms: C_10  and  C_16
REMARK    8  A    between atoms: C_11  and  C_17
REMARK    9  A    between atoms: C_14  and  C_18
REMARK   10  A    between atoms: C_19  and  C_21
REMARK   11  A    between atoms: C_20  and  C_23
REMARK                            x       y       z     vdW  Elec       q    Type
REMARK                         _______ _______ _______ _____ _____    ______ ____
ROOT
ATOM      6  C   UNL     1     -12.301   8.809  19.953  0.00  0.00    +0.000 C 
ATOM      7  C   UNL     1     -11.587  10.087  20.458  0.00  0.00    +0.032 C 
ATOM      8  C   UNL     1     -11.400   8.043  18.972  0.00  0.00    +0.012 C 
ATOM      9  C   UNL     1     -11.009   8.897  17.751  0.00  0.00    +0.023 C 
ATOM     11  C   UNL     1     -10.544  10.281  18.158  0.00  0.00    -0.073 C 
ATOM     12  C   UNL     1     -10.801  10.791  19.376  0.00  0.00    -0.022 C 
ATOM     17  C   UNL     1      -9.739  11.048  17.148  0.00  0.00    +0.039 C 
ENDROOT
BRANCH   6  10
ATOM     10  C   UNL     1     -12.706   7.889  21.110  0.00  0.00    -0.013 C 
ATOM     15  C   UNL     1     -11.938   6.573  21.038  0.00  0.00    +0.007 C 
ATOM     16  C   UNL     1     -14.210   7.639  21.090  0.00  0.00    +0.007 C 
ENDBRANCH   6  10
BRANCH   7  13
ATOM     13  C   UNL     1     -12.586  11.068  21.082  0.00  0.00    +0.112 C 
BRANCH  13   3
ATOM      2  O   UNL     1     -14.017  10.246  23.431  0.00  0.00    -0.269 OA
ATOM      3  N   UNL     1     -12.236  11.354  22.438  0.00  0.00    -0.310 N 
ATOM     19  C   UNL     1     -12.990  10.914  23.525  0.00  0.00    +0.262 C 
ATOM     28  H   UNL     1     -11.379  11.869  22.620  0.00  0.00    +0.149 HD
BRANCH  19  21
ATOM      5  N   UNL     1     -13.005  12.482  25.347  0.00  0.00    -0.250 NA
ATOM     21  C   UNL     1     -12.508  11.318  24.871  0.00  0.00    +0.125 A 
ATOM     22  C   UNL     1     -11.608  10.521  25.559  0.00  0.00    +0.033 A 
ATOM     24  C   UNL     1     -11.190  10.945  26.816  0.00  0.00    +0.004 A 
ATOM     25  C   UNL     1     -12.575  12.863  26.571  0.00  0.00    +0.111 A 
ATOM     26  C   UNL     1     -11.679  12.138  27.338  0.00  0.00    +0.020 A 
ENDBRANCH  19  21
ENDBRANCH  13   3
ENDBRANCH   7  13
BRANCH   9  14
ATOM     14  C   UNL     1     -12.161   8.979  16.743  0.00  0.00    +0.103 C 
BRANCH  14  18
ATOM      1  O   UNL     1     -10.622   8.409  14.965  0.00  0.00    -0.276 OA
ATOM      4  N   UNL     1     -12.885   7.938  14.717  0.00  0.00    -0.304 N 
ATOM     18  C   UNL     1     -11.774   8.421  15.392  0.00  0.00    +0.214 C 
ATOM     29  H   UNL     1     -13.795   7.980  15.165  0.00  0.00    +0.150 HD
BRANCH   4  20
ATOM     20  C   UNL     1     -12.812   7.348  13.400  0.00  0.00    +0.193 C 
BRANCH  20  23
ATOM     23  C   UNL     1     -14.091   6.747  13.020  0.00  0.00    -0.087 C 
ATOM     27  C   UNL     1     -15.140   6.257  12.707  0.00  0.00    +0.005 C 
ENDBRANCH  20  23
ENDBRANCH   4  20
ENDBRANCH  14  18
ENDBRANCH   9  14
TORSDOF 8
ENDMDL
MODEL 6
REMARK VINA RESULT:      -5.7     19.993     22.421
REMARK  Name = 38028655
REMARK  11 active torsions:
REMARK  status: ('A' for Active; 'I' for Inactive)
REMARK    1  A    between atoms: N_3  and  C_13
REMARK    2  A    between atoms: N_4  and  C_20
REMARK    3  A    between atoms: C_6  and  C_10
REMARK    4  A    between atoms: C_7  and  C_13
REMARK    5  A    between atoms: C_9  and  C_14
REMARK    6  A    between atoms: C_10  and  C_15
REMARK    7  A    between atoms: C_10  and  C_16
REMARK    8  A    between atoms: C_11  and  C_17
REMARK    9  A    between atoms: C_14  and  C_18
REMARK   10  A    between atoms: C_19  and  C_21
REMARK   11  A    between atoms: C_20  and  C_23
REMARK                            x       y       z     vdW  Elec       q    Type
REMARK                         _______ _______ _______ _____ _____    ______ ____
ROOT
ATOM      6  C   UNL     1     -12.722   9.288  19.607  0.00  0.00    +0.000 C 
ATOM      7  C   UNL     1     -11.337   8.606  19.721  0.00  0.00    +0.032 C 
ATOM      8  C   UNL     1     -13.535   9.071  20.892  0.00  0.00    +0.012 C 
ATOM      9  C   UNL     1     -13.752   7.578  21.200  0.00  0.00    +0.023 C 
ATOM     11  C   UNL     1     -12.467   6.784  21.070  0.00  0.00    -0.073 C 
ATOM     12  C   UNL     1     -11.394   7.265  20.416  0.00  0.00    -0.022 C 
ATOM     17  C   UNL     1     -12.428   5.442  21.746  0.00  0.00    +0.039 C 
ENDROOT
BRANCH   6  10
ATOM     10  C   UNL     1     -12.596  10.788  19.321  0.00  0.00    -0.013 C 
ATOM     15  C   UNL     1     -12.446  11.568  20.623  0.00  0.00    +0.007 C 
ATOM     16  C   UNL     1     -13.802  11.283  18.530  0.00  0.00    +0.007 C 
ENDBRANCH   6  10
BRANCH   7  13
ATOM     13  C   UNL     1     -10.688   8.438  18.342  0.00  0.00    +0.112 C 
BRANCH  13   3
ATOM      2  O   UNL     1     -11.416   9.812  15.929  0.00  0.00    -0.269 OA
ATOM      3  N   UNL     1     -11.651   8.013  17.376  0.00  0.00    -0.310 N 
ATOM     19  C   UNL     1     -11.945   8.744  16.226  0.00  0.00    +0.262 C 
ATOM     28  H   UNL     1     -12.114   7.118  17.513  0.00  0.00    +0.149 HD
BRANCH  19  21
ATOM      5  N   UNL     1     -12.580   7.846  14.089  0.00  0.00    -0.250 NA
ATOM     21  C   UNL     1     -12.991   8.179  15.333  0.00  0.00    +0.125 A 
ATOM     22  C   UNL     1     -14.289   8.022  15.790  0.00  0.00    +0.033 A 
ATOM     24  C   UNL     1     -15.227   7.487  14.914  0.00  0.00    +0.004 A 
ATOM     25  C   UNL     1     -13.520   7.330  13.265  0.00  0.00    +0.111 A 
ATOM     26  C   UNL     1     -14.842   7.132  13.625  0.00  0.00    +0.020 A 
ENDBRANCH  19  21
ENDBRANCH  13   3
ENDBRANCH   7  13
BRANCH   9  14
ATOM     14  C   UNL     1     -14.855   6.986  20.316  0.00  0.00    +0.103 C 
BRANCH  14  18
ATOM      1  O   UNL     1     -16.319   5.078  20.589  0.00  0.00    -0.276 OA
ATOM      4  N   UNL     1     -15.874   6.450  22.411  0.00  0.00    -0.304 N 
ATOM     18  C   UNL     1     -15.761   6.053  21.087  0.00  0.00    +0.214 C 
ATOM     29  H   UNL     1     -15.357   7.265  22.731  0.00  0.00    +0.150 HD
BRANCH   4  20
ATOM     20  C   UNL     1     -16.679   5.744  23.381  0.00  0.00    +0.193 C 
BRANCH  20  23
ATOM     23  C   UNL     1     -15.911   4.682  24.031  0.00  0.00    -0.087 C 
ATOM     27  C   UNL     1     -15.282   3.808  24.562  0.00  0.00    +0.005 C 
ENDBRANCH  20  23
ENDBRANCH   4  20
ENDBRANCH  14  18
ENDBRANCH   9  14
TORSDOF 8
ENDMDL
MODEL 7
REMARK VINA RESULT:      -5.7     21.070     24.036
REMARK  Name = 38028655
REMARK  11 active torsions:
REMARK  status: ('A' for Active; 'I' for Inactive)
REMARK    1  A    between atoms: N_3  and  C_13
REMARK    2  A    between atoms: N_4  and  C_20
REMARK    3  A    between atoms: C_6  and  C_10
REMARK    4  A    between atoms: C_7  and  C_13
REMARK    5  A    between atoms: C_9  and  C_14
REMARK    6  A    between atoms: C_10  and  C_15
REMARK    7  A    between atoms: C_10  and  C_16
REMARK    8  A    between atoms: C_11  and  C_17
REMARK    9  A    between atoms: C_14  and  C_18
REMARK   10  A    between atoms: C_19  and  C_21
REMARK   11  A    between atoms: C_20  and  C_23
REMARK                            x       y       z     vdW  Elec       q    Type
REMARK                         _______ _______ _______ _____ _____    ______ ____
ROOT
ATOM      6  C   UNL     1     -13.418   7.964  21.133  0.00  0.00    +0.000 C 
ATOM      7  C   UNL     1     -14.035   9.305  21.601  0.00  0.00    +0.032 C 
ATOM      8  C   UNL     1     -14.514   6.903  20.952  0.00  0.00    +0.012 C 
ATOM      9  C   UNL     1     -15.301   6.650  22.252  0.00  0.00    +0.023 C 
ATOM     11  C   UNL     1     -15.716   7.946  22.920  0.00  0.00    -0.073 C 
ATOM     12  C   UNL     1     -15.147   9.125  22.607  0.00  0.00    -0.022 C 
ATOM     17  C   UNL     1     -16.830   7.863  23.925  0.00  0.00    +0.039 C 
ENDROOT
BRANCH   6  10
ATOM     10  C   UNL     1     -12.632   8.124  19.828  0.00  0.00    -0.013 C 
ATOM     15  C   UNL     1     -13.564   8.005  18.627  0.00  0.00    +0.007 C 
ATOM     16  C   UNL     1     -11.513   7.091  19.749  0.00  0.00    +0.007 C 
ENDBRANCH   6  10
BRANCH   7  13
ATOM     13  C   UNL     1     -12.963  10.232  22.187  0.00  0.00    +0.112 C 
BRANCH  13   3
ATOM      2  O   UNL     1     -11.356  11.798  23.978  0.00  0.00    -0.269 OA
ATOM      3  N   UNL     1     -12.927  10.130  23.613  0.00  0.00    -0.310 N 
ATOM     19  C   UNL     1     -12.114  10.933  24.411  0.00  0.00    +0.262 C 
ATOM     28  H   UNL     1     -13.552   9.469  24.068  0.00  0.00    +0.149 HD
BRANCH  19  21
ATOM      5  N   UNL     1     -13.387  10.849  26.448  0.00  0.00    -0.250 NA
ATOM     21  C   UNL     1     -12.173  10.686  25.875  0.00  0.00    +0.125 A 
ATOM     22  C   UNL     1     -11.032  10.313  26.567  0.00  0.00    +0.033 A 
ATOM     24  C   UNL     1     -11.144  10.092  27.935  0.00  0.00    +0.004 A 
ATOM     25  C   UNL     1     -13.457  10.627  27.780  0.00  0.00    +0.111 A 
ATOM     26  C   UNL     1     -12.376  10.251  28.560  0.00  0.00    +0.020 A 
ENDBRANCH  19  21
ENDBRANCH  13   3
ENDBRANCH   7  13
BRANCH   9  14
ATOM     14  C   UNL     1     -14.503   5.767  23.218  0.00  0.00    +0.103 C 
BRANCH  14  18
ATOM      1  O   UNL     1     -15.657   3.701  22.711  0.00  0.00    -0.276 OA
ATOM      4  N   UNL     1     -15.365   4.336  24.928  0.00  0.00    -0.304 N 
ATOM     18  C   UNL     1     -15.236   4.488  23.555  0.00  0.00    +0.214 C 
ATOM     29  H   UNL     1     -14.967   5.038  25.544  0.00  0.00    +0.150 HD
BRANCH   4  20
ATOM     20  C   UNL     1     -16.026   3.205  25.538  0.00  0.00    +0.193 C 
BRANCH  20  23
ATOM     23  C   UNL     1     -16.025   3.317  26.996  0.00  0.00    -0.087 C 
ATOM     27  C   UNL     1     -16.029   3.408  28.193  0.00  0.00    +0.005 C 
ENDBRANCH  20  23
ENDBRANCH   4  20
ENDBRANCH  14  18
ENDBRANCH   9  14
TORSDOF 8
ENDMDL
MODEL 8
REMARK VINA RESULT:      -5.7      3.991      7.452
REMARK  Name = 38028655
REMARK  11 active torsions:
REMARK  status: ('A' for Active; 'I' for Inactive)
REMARK    1  A    between atoms: N_3  and  C_13
REMARK    2  A    between atoms: N_4  and  C_20
REMARK    3  A    between atoms: C_6  and  C_10
REMARK    4  A    between atoms: C_7  and  C_13
REMARK    5  A    between atoms: C_9  and  C_14
REMARK    6  A    between atoms: C_10  and  C_15
REMARK    7  A    between atoms: C_10  and  C_16
REMARK    8  A    between atoms: C_11  and  C_17
REMARK    9  A    between atoms: C_14  and  C_18
REMARK   10  A    between atoms: C_19  and  C_21
REMARK   11  A    between atoms: C_20  and  C_23
REMARK                            x       y       z     vdW  Elec       q    Type
REMARK                         _______ _______ _______ _____ _____    ______ ____
ROOT
ATOM      6  C   UNL     1      -6.580 -10.783  16.646  0.00  0.00    +0.000 C 
ATOM      7  C   UNL     1      -6.929 -11.164  18.106  0.00  0.00    +0.032 C 
ATOM      8  C   UNL     1      -5.494 -11.719  16.092  0.00  0.00    +0.012 C 
ATOM      9  C   UNL     1      -4.202 -11.673  16.930  0.00  0.00    +0.023 C 
ATOM     11  C   UNL     1      -4.490 -11.774  18.414  0.00  0.00    -0.073 C 
ATOM     12  C   UNL     1      -5.718 -11.555  18.920  0.00  0.00    -0.022 C 
ATOM     17  C   UNL     1      -3.344 -12.175  19.300  0.00  0.00    +0.039 C 
ENDROOT
BRANCH   6  10
ATOM     10  C   UNL     1      -7.812 -10.825  15.737  0.00  0.00    -0.013 C 
ATOM     15  C   UNL     1      -8.541 -12.156  15.888  0.00  0.00    +0.007 C 
ATOM     16  C   UNL     1      -7.412 -10.589  14.284  0.00  0.00    +0.007 C 
ENDBRANCH   6  10
BRANCH   7  13
ATOM     13  C   UNL     1      -7.671 -10.023  18.812  0.00  0.00    +0.112 C 
BRANCH  13   3
ATOM      2  O   UNL     1     -10.388  -9.451  18.084  0.00  0.00    -0.269 OA
ATOM      3  N   UNL     1      -8.849 -10.509  19.461  0.00  0.00    -0.310 N 
ATOM     19  C   UNL     1     -10.137 -10.180  19.040  0.00  0.00    +0.262 C 
ATOM     28  H   UNL     1      -8.743 -11.154  20.240  0.00  0.00    +0.149 HD
BRANCH  19  21
ATOM      5  N   UNL     1     -11.120 -12.040  20.203  0.00  0.00    -0.250 NA
ATOM     21  C   UNL     1     -11.257 -10.746  19.836  0.00  0.00    +0.125 A 
ATOM     22  C   UNL     1     -12.350  -9.959  20.160  0.00  0.00    +0.033 A 
ATOM     24  C   UNL     1     -13.369 -10.537  20.908  0.00  0.00    +0.004 A 
ATOM     25  C   UNL     1     -12.131 -12.568  20.929  0.00  0.00    +0.111 A 
ATOM     26  C   UNL     1     -13.265 -11.867  21.304  0.00  0.00    +0.020 A 
ENDBRANCH  19  21
ENDBRANCH  13   3
ENDBRANCH   7  13
BRANCH   9  14
ATOM     14  C   UNL     1      -3.384 -10.416  16.614  0.00  0.00    +0.103 C 
BRANCH  14  18
ATOM      1  O   UNL     1      -1.174 -11.068  15.873  0.00  0.00    -0.276 OA
ATOM      4  N   UNL     1      -2.767 -10.435  14.304  0.00  0.00    -0.304 N 
ATOM     18  C   UNL     1      -2.306 -10.684  15.588  0.00  0.00    +0.214 C 
ATOM     29  H   UNL     1      -3.729 -10.133  14.173  0.00  0.00    +0.150 HD
BRANCH   4  20
ATOM     20  C   UNL     1      -1.950 -10.604  13.125  0.00  0.00    +0.193 C 
BRANCH  20  23
ATOM     23  C   UNL     1      -2.684 -10.230  11.916  0.00  0.00    -0.087 C 
ATOM     27  C   UNL     1      -3.290  -9.925  10.926  0.00  0.00    +0.005 C 
ENDBRANCH  20  23
ENDBRANCH   4  20
ENDBRANCH  14  18
ENDBRANCH   9  14
TORSDOF 8
ENDMDL
MODEL 9
REMARK VINA RESULT:      -5.6     20.368     23.098
REMARK  Name = 38028655
REMARK  11 active torsions:
REMARK  status: ('A' for Active; 'I' for Inactive)
REMARK    1  A    between atoms: N_3  and  C_13
REMARK    2  A    between atoms: N_4  and  C_20
REMARK    3  A    between atoms: C_6  and  C_10
REMARK    4  A    between atoms: C_7  and  C_13
REMARK    5  A    between atoms: C_9  and  C_14
REMARK    6  A    between atoms: C_10  and  C_15
REMARK    7  A    between atoms: C_10  and  C_16
REMARK    8  A    between atoms: C_11  and  C_17
REMARK    9  A    between atoms: C_14  and  C_18
REMARK   10  A    between atoms: C_19  and  C_21
REMARK   11  A    between atoms: C_20  and  C_23
REMARK                            x       y       z     vdW  Elec       q    Type
REMARK                         _______ _______ _______ _____ _____    ______ ____
ROOT
ATOM      6  C   UNL     1     -10.726  10.417  17.257  0.00  0.00    +0.000 C 
ATOM      7  C   UNL     1     -10.213   8.981  16.987  0.00  0.00    +0.032 C 
ATOM      8  C   UNL     1     -10.624  10.751  18.753  0.00  0.00    +0.012 C 
ATOM      9  C   UNL     1     -11.434   9.773  19.625  0.00  0.00    +0.023 C 
ATOM     11  C   UNL     1     -11.183   8.330  19.235  0.00  0.00    -0.073 C 
ATOM     12  C   UNL     1     -10.624   7.996  18.057  0.00  0.00    -0.022 C 
ATOM     17  C   UNL     1     -11.547   7.281  20.248  0.00  0.00    +0.039 C 
ENDROOT
BRANCH   6  10
ATOM     10  C   UNL     1      -9.954  11.459  16.441  0.00  0.00    -0.013 C 
ATOM     15  C   UNL     1      -9.369  12.528  17.358  0.00  0.00    +0.007 C 
ATOM     16  C   UNL     1     -10.860  12.088  15.387  0.00  0.00    +0.007 C 
ENDBRANCH   6  10
BRANCH   7  13
ATOM     13  C   UNL     1     -10.685   8.474  15.619  0.00  0.00    +0.112 C 
BRANCH  13   3
ATOM      2  O   UNL     1     -12.619   8.538  13.499  0.00  0.00    -0.269 OA
ATOM      3  N   UNL     1     -12.038   8.019  15.685  0.00  0.00    -0.310 N 
ATOM     19  C   UNL     1     -12.915   8.087  14.603  0.00  0.00    +0.262 C 
ATOM     28  H   UNL     1     -12.365   7.591  16.547  0.00  0.00    +0.149 HD
BRANCH  19  21
ATOM      5  N   UNL     1     -14.792   6.763  13.898  0.00  0.00    -0.250 NA
ATOM     21  C   UNL     1     -14.297   7.597  14.840  0.00  0.00    +0.125 A 
ATOM     22  C   UNL     1     -14.996   7.995  15.968  0.00  0.00    +0.033 A 
ATOM     24  C   UNL     1     -16.285   7.505  16.142  0.00  0.00    +0.004 A 
ATOM     25  C   UNL     1     -16.049   6.308  14.100  0.00  0.00    +0.111 A 
ATOM     26  C   UNL     1     -16.829   6.645  15.194  0.00  0.00    +0.020 A 
ENDBRANCH  19  21
ENDBRANCH  13   3
ENDBRANCH   7  13
BRANCH   9  14
ATOM     14  C   UNL     1     -12.930  10.101  19.579  0.00  0.00    +0.103 C 
BRANCH  14  18
ATOM      1  O   UNL     1     -14.353   9.723  21.500  0.00  0.00    -0.276 OA
ATOM      4  N   UNL     1     -12.898  11.535  21.491  0.00  0.00    -0.304 N 
ATOM     18  C   UNL     1     -13.488  10.402  20.951  0.00  0.00    +0.214 C 
ATOM     29  H   UNL     1     -12.178  12.019  20.962  0.00  0.00    +0.150 HD
BRANCH   4  20
ATOM     20  C   UNL     1     -13.240  12.059  22.794  0.00  0.00    +0.193 C 
BRANCH  20  23
ATOM     23  C   UNL     1     -12.341  11.540  23.824  0.00  0.00    -0.087 C 
ATOM     27  C   UNL     1     -11.606  11.114  24.672  0.00  0.00    +0.005 C 
ENDBRANCH  20  23
ENDBRANCH   4  20
ENDBRANCH  14  18
ENDBRANCH   9  14
TORSDOF 8
ENDMDL
MODEL 10
REMARK VINA RESULT:      -5.5     19.652     22.411
REMARK  Name = 38028655
REMARK  11 active torsions:
REMARK  status: ('A' for Active; 'I' for Inactive)
REMARK    1  A    between atoms: N_3  and  C_13
REMARK    2  A    between atoms: N_4  and  C_20
REMARK    3  A    between atoms: C_6  and  C_10
REMARK    4  A    between atoms: C_7  and  C_13
REMARK    5  A    between atoms: C_9  and  C_14
REMARK    6  A    between atoms: C_10  and  C_15
REMARK    7  A    between atoms: C_10  and  C_16
REMARK    8  A    between atoms: C_11  and  C_17
REMARK    9  A    between atoms: C_14  and  C_18
REMARK   10  A    between atoms: C_19  and  C_21
REMARK   11  A    between atoms: C_20  and  C_23
REMARK                            x       y       z     vdW  Elec       q    Type
REMARK                         _______ _______ _______ _____ _____    ______ ____
ROOT
ATOM      6  C   UNL     1     -12.157  10.220  19.392  0.00  0.00    +0.000 C 
ATOM      7  C   UNL     1     -10.786   9.575  19.711  0.00  0.00    +0.032 C 
ATOM      8  C   UNL     1     -13.190   9.844  20.465  0.00  0.00    +0.012 C 
ATOM      9  C   UNL     1     -13.383   8.320  20.580  0.00  0.00    +0.023 C 
ATOM     11  C   UNL     1     -12.057   7.587  20.630  0.00  0.00    -0.073 C 
ATOM     12  C   UNL     1     -10.905   8.169  20.250  0.00  0.00    -0.022 C 
ATOM     17  C   UNL     1     -12.079   6.184  21.169  0.00  0.00    +0.039 C 
ENDROOT
BRANCH   6  10
ATOM     10  C   UNL     1     -12.057  11.745  19.281  0.00  0.00    -0.013 C 
ATOM     15  C   UNL     1     -12.904  12.414  20.358  0.00  0.00    +0.007 C 
ATOM     16  C   UNL     1     -12.484  12.207  17.892  0.00  0.00    +0.007 C 
ENDBRANCH   6  10
BRANCH   7  13
ATOM     13  C   UNL     1      -9.875   9.574  18.478  0.00  0.00    +0.112 C 
BRANCH  13   3
ATOM      2  O   UNL     1     -10.282  10.564  15.814  0.00  0.00    -0.269 OA
ATOM      3  N   UNL     1     -10.490   8.876  17.393  0.00  0.00    -0.310 N 
ATOM     19  C   UNL     1     -10.649   9.433  16.125  0.00  0.00    +0.262 C 
ATOM     28  H   UNL     1     -10.791   7.916  17.541  0.00  0.00    +0.149 HD
BRANCH  19  21
ATOM      5  N   UNL     1     -12.684   8.624  15.135  0.00  0.00    -0.250 NA
ATOM     21  C   UNL     1     -11.332   8.588  15.112  0.00  0.00    +0.125 A 
ATOM     22  C   UNL     1     -10.592   7.830  14.220  0.00  0.00    +0.033 A 
ATOM     24  C   UNL     1     -11.282   7.058  13.292  0.00  0.00    +0.004 A 
ATOM     25  C   UNL     1     -13.320   7.860  14.219  0.00  0.00    +0.111 A 
ATOM     26  C   UNL     1     -12.673   7.068  13.285  0.00  0.00    +0.020 A 
ENDBRANCH  19  21
ENDBRANCH  13   3
ENDBRANCH   7  13
BRANCH   9  14
ATOM     14  C   UNL     1     -14.262   7.787  19.443  0.00  0.00    +0.103 C 
BRANCH  14  18
ATOM      1  O   UNL     1     -16.632   8.060  19.852  0.00  0.00    -0.276 OA
ATOM      4  N   UNL     1     -15.581   6.085  20.480  0.00  0.00    -0.304 N 
ATOM     18  C   UNL     1     -15.627   7.358  19.933  0.00  0.00    +0.214 C 
ATOM     29  H   UNL     1     -14.700   5.579  20.487  0.00  0.00    +0.150 HD
BRANCH   4  20
ATOM     20  C   UNL     1     -16.741   5.420  21.030  0.00  0.00    +0.193 C 
BRANCH  20  23
ATOM     23  C   UNL     1     -17.521   4.765  19.980  0.00  0.00    -0.087 C 
ATOM     27  C   UNL     1     -18.159   4.225  19.120  0.00  0.00    +0.005 C 
ENDBRANCH  20  23
ENDBRANCH   4  20
ENDBRANCH  14  18
ENDBRANCH   9  14
TORSDOF 8
ENDMDL
