MODEL 1
REMARK VINA RESULT:      -7.6      0.000      0.000
REMARK  Name = 26744592
REMARK  6 active torsions:
REMARK  status: ('A' for Active; 'I' for Inactive)
REMARK    1  A    between atoms: O_3  and  C_11
REMARK    2  A    between atoms: N_5  and  C_13
REMARK    3  A    between atoms: C_9  and  C_14
REMARK    4  A    between atoms: C_13  and  C_15
REMARK    5  A    between atoms: C_16  and  C_19
REMARK    6  A    between atoms: C_19  and  C_21
REMARK                            x       y       z     vdW  Elec       q    Type
REMARK                         _______ _______ _______ _____ _____    ______ ____
ROOT
ATOM      5  N   UNL     1      12.599   8.681  18.691  0.00  0.00    -0.285 NA
ATOM      9  C   UNL     1      13.496   7.520  18.530  0.00  0.00    +0.149 C 
ATOM     10  C   UNL     1      14.072   7.660  17.108  0.00  0.00    +0.061 C 
ATOM     11  C   UNL     1      13.403   8.902  16.533  0.00  0.00    +0.130 C 
ATOM     12  C   UNL     1      12.132   9.032  17.351  0.00  0.00    +0.116 C 
ENDROOT
BRANCH   9  14
ATOM      4  O   UNL     1      14.312   6.692  20.680  0.00  0.00    -0.336 OA
ATOM      6  N   UNL     1      15.738   8.059  19.626  0.00  0.00    -0.194 NA
ATOM      7  N   UNL     1      15.435   6.799  21.511  0.00  0.00    -0.061 NA
ATOM     14  C   UNL     1      14.574   7.464  19.594  0.00  0.00    +0.245 A 
ATOM     16  C   UNL     1      16.230   7.621  20.822  0.00  0.00    +0.176 A 
BRANCH  16  19
ATOM     19  C   UNL     1      17.549   8.027  21.320  0.00  0.00    +0.116 C 
BRANCH  19  21
ATOM      1 CL   UNL     1      19.939   8.081  23.291  0.00  0.00    -0.083 Cl
ATOM      2  F   UNL     1      21.545   4.084  20.644  0.00  0.00    -0.205 F 
ATOM     21  C   UNL     1      18.643   6.976  21.164  0.00  0.00    -0.021 A 
ATOM     23  C   UNL     1      19.750   6.938  22.012  0.00  0.00    +0.047 A 
ATOM     24  C   UNL     1      18.517   6.037  20.140  0.00  0.00    +0.008 A 
ATOM     25  C   UNL     1      20.730   5.961  21.837  0.00  0.00    +0.058 A 
ATOM     26  C   UNL     1      19.497   5.060  19.965  0.00  0.00    +0.039 A 
ATOM     27  C   UNL     1      20.604   5.022  20.813  0.00  0.00    +0.125 A 
ENDBRANCH  19  21
ENDBRANCH  16  19
ENDBRANCH   9  14
BRANCH  11   3
ATOM      3  O   UNL     1      13.127   8.733  15.157  0.00  0.00    -0.390 OA
ATOM     28  H   UNL     1      12.165   8.627  15.063  0.00  0.00    +0.210 HD
ENDBRANCH  11   3
BRANCH   5  13
ATOM     13  C   UNL     1      11.495   8.431  19.608  0.00  0.00    +0.122 C 
BRANCH  13  15
ATOM      8  N   UNL     1      10.752   9.937  23.001  0.00  0.00    -0.263 NA
ATOM     15  C   UNL     1      11.503   9.390  20.768  0.00  0.00    -0.015 A 
ATOM     17  C   UNL     1      12.226  10.577  20.713  0.00  0.00    +0.008 A 
ATOM     18  C   UNL     1      10.789   9.119  21.924  0.00  0.00    +0.115 A 
ATOM     20  C   UNL     1      12.212  11.443  21.801  0.00  0.00    +0.020 A 
ATOM     22  C   UNL     1      11.467  11.081  22.911  0.00  0.00    +0.111 A 
ENDBRANCH  13  15
ENDBRANCH   5  13
TORSDOF 6
ENDMDL
MODEL 2
REMARK VINA RESULT:      -7.1      2.025      2.504
REMARK  Name = 26744592
REMARK  6 active torsions:
REMARK  status: ('A' for Active; 'I' for Inactive)
REMARK    1  A    between atoms: O_3  and  C_11
REMARK    2  A    between atoms: N_5  and  C_13
REMARK    3  A    between atoms: C_9  and  C_14
REMARK    4  A    between atoms: C_13  and  C_15
REMARK    5  A    between atoms: C_16  and  C_19
REMARK    6  A    between atoms: C_19  and  C_21
REMARK                            x       y       z     vdW  Elec       q    Type
REMARK                         _______ _______ _______ _____ _____    ______ ____
ROOT
ATOM      5  N   UNL     1      12.784   8.655  18.068  0.00  0.00    -0.285 NA
ATOM      9  C   UNL     1      13.715   7.705  17.427  0.00  0.00    +0.149 C 
ATOM     10  C   UNL     1      14.303   8.474  16.230  0.00  0.00    +0.061 C 
ATOM     11  C   UNL     1      13.608   9.829  16.252  0.00  0.00    +0.130 C 
ATOM     12  C   UNL     1      12.324   9.556  17.014  0.00  0.00    +0.116 C 
ENDROOT
BRANCH   9  14
ATOM      4  O   UNL     1      15.594   6.218  17.913  0.00  0.00    -0.336 OA
ATOM      6  N   UNL     1      15.041   7.575  19.606  0.00  0.00    -0.194 NA
ATOM      7  N   UNL     1      16.482   5.921  18.956  0.00  0.00    -0.061 NA
ATOM     14  C   UNL     1      14.781   7.201  18.379  0.00  0.00    +0.245 A 
ATOM     16  C   UNL     1      16.091   6.762  19.918  0.00  0.00    +0.176 A 
BRANCH  16  19
ATOM     19  C   UNL     1      16.752   6.806  21.227  0.00  0.00    +0.116 C 
BRANCH  19  21
ATOM      1 CL   UNL     1      19.597   5.721  20.655  0.00  0.00    -0.083 Cl
ATOM      2  F   UNL     1      21.038  10.476  21.592  0.00  0.00    -0.205 F 
ATOM     21  C   UNL     1      17.929   7.772  21.318  0.00  0.00    -0.021 A 
ATOM     23  C   UNL     1      19.238   7.356  21.075  0.00  0.00    +0.047 A 
ATOM     24  C   UNL     1      17.670   9.101  21.653  0.00  0.00    +0.008 A 
ATOM     25  C   UNL     1      20.288   8.270  21.167  0.00  0.00    +0.058 A 
ATOM     26  C   UNL     1      18.719  10.014  21.745  0.00  0.00    +0.039 A 
ATOM     27  C   UNL     1      20.029   9.598  21.503  0.00  0.00    +0.125 A 
ENDBRANCH  19  21
ENDBRANCH  16  19
ENDBRANCH   9  14
BRANCH  11   3
ATOM      3  O   UNL     1      13.352  10.285  14.939  0.00  0.00    -0.390 OA
ATOM     28  H   UNL     1      13.466  11.251  14.937  0.00  0.00    +0.210 HD
ENDBRANCH  11   3
BRANCH   5  13
ATOM     13  C   UNL     1      11.677   8.001  18.753  0.00  0.00    +0.122 C 
BRANCH  13  15
ATOM      8  N   UNL     1      10.587   8.253  22.369  0.00  0.00    -0.263 NA
ATOM     15  C   UNL     1      11.473   8.551  20.140  0.00  0.00    -0.015 A 
ATOM     17  C   UNL     1      11.949   9.810  20.488  0.00  0.00    +0.008 A 
ATOM     18  C   UNL     1      10.805   7.819  21.108  0.00  0.00    +0.115 A 
ATOM     20  C   UNL     1      11.744  10.291  21.777  0.00  0.00    +0.020 A 
ATOM     22  C   UNL     1      11.064   9.482  22.672  0.00  0.00    +0.111 A 
ENDBRANCH  13  15
ENDBRANCH   5  13
TORSDOF 6
ENDMDL
MODEL 3
REMARK VINA RESULT:      -6.9      2.388      4.220
REMARK  Name = 26744592
REMARK  6 active torsions:
REMARK  status: ('A' for Active; 'I' for Inactive)
REMARK    1  A    between atoms: O_3  and  C_11
REMARK    2  A    between atoms: N_5  and  C_13
REMARK    3  A    between atoms: C_9  and  C_14
REMARK    4  A    between atoms: C_13  and  C_15
REMARK    5  A    between atoms: C_16  and  C_19
REMARK    6  A    between atoms: C_19  and  C_21
REMARK                            x       y       z     vdW  Elec       q    Type
REMARK                         _______ _______ _______ _____ _____    ______ ____
ROOT
ATOM      5  N   UNL     1      12.392   8.664  19.900  0.00  0.00    -0.285 NA
ATOM      9  C   UNL     1      13.140   8.317  21.124  0.00  0.00    +0.149 C 
ATOM     10  C   UNL     1      12.201   7.384  21.910  0.00  0.00    +0.061 C 
ATOM     11  C   UNL     1      10.931   7.305  21.071  0.00  0.00    +0.130 C 
ATOM     12  C   UNL     1      10.974   8.575  20.243  0.00  0.00    +0.116 C 
ENDROOT
BRANCH   9  14
ATOM      4  O   UNL     1      14.724   7.355  19.530  0.00  0.00    -0.336 OA
ATOM      6  N   UNL     1      15.460   7.386  21.644  0.00  0.00    -0.194 NA
ATOM      7  N   UNL     1      16.005   6.787  19.504  0.00  0.00    -0.061 NA
ATOM     14  C   UNL     1      14.482   7.679  20.826  0.00  0.00    +0.245 A 
ATOM     16  C   UNL     1      16.372   6.841  20.787  0.00  0.00    +0.176 A 
BRANCH  16  19
ATOM     19  C   UNL     1      17.675   6.343  21.244  0.00  0.00    +0.116 C 
BRANCH  19  21
ATOM      1 CL   UNL     1      20.542   5.355  20.613  0.00  0.00    -0.083 Cl
ATOM      2  F   UNL     1      21.776  10.233  21.108  0.00  0.00    -0.205 F 
ATOM     21  C   UNL     1      18.803   7.368  21.200  0.00  0.00    -0.021 A 
ATOM     23  C   UNL     1      20.119   6.999  20.924  0.00  0.00    +0.047 A 
ATOM     24  C   UNL     1      18.491   8.706  21.445  0.00  0.00    +0.008 A 
ATOM     25  C   UNL     1      21.123   7.966  20.892  0.00  0.00    +0.058 A 
ATOM     26  C   UNL     1      19.494   9.673  21.414  0.00  0.00    +0.039 A 
ATOM     27  C   UNL     1      20.811   9.303  21.137  0.00  0.00    +0.125 A 
ENDBRANCH  19  21
ENDBRANCH  16  19
ENDBRANCH   9  14
BRANCH  11   3
ATOM      3  O   UNL     1       9.785   7.255  21.897  0.00  0.00    -0.390 OA
ATOM     28  H   UNL     1       9.006   7.354  21.323  0.00  0.00    +0.210 HD
ENDBRANCH  11   3
BRANCH   5  13
ATOM     13  C   UNL     1      12.745   9.971  19.362  0.00  0.00    +0.122 C 
BRANCH  13  15
ATOM      8  N   UNL     1      13.127   8.847  15.767  0.00  0.00    -0.263 NA
ATOM     15  C   UNL     1      13.263   9.875  17.951  0.00  0.00    -0.015 A 
ATOM     17  C   UNL     1      14.312  10.677  17.517  0.00  0.00    +0.008 A 
ATOM     18  C   UNL     1      12.709   8.984  17.046  0.00  0.00    +0.115 A 
ATOM     20  C   UNL     1      14.769  10.564  16.208  0.00  0.00    +0.020 A 
ATOM     22  C   UNL     1      14.149   9.643  15.380  0.00  0.00    +0.111 A 
ENDBRANCH  13  15
ENDBRANCH   5  13
TORSDOF 6
ENDMDL
MODEL 4
REMARK VINA RESULT:      -6.8     26.951     29.222
REMARK  Name = 26744592
REMARK  6 active torsions:
REMARK  status: ('A' for Active; 'I' for Inactive)
REMARK    1  A    between atoms: O_3  and  C_11
REMARK    2  A    between atoms: N_5  and  C_13
REMARK    3  A    between atoms: C_9  and  C_14
REMARK    4  A    between atoms: C_13  and  C_15
REMARK    5  A    between atoms: C_16  and  C_19
REMARK    6  A    between atoms: C_19  and  C_21
REMARK                            x       y       z     vdW  Elec       q    Type
REMARK                         _______ _______ _______ _____ _____    ______ ____
ROOT
ATOM      5  N   UNL     1      -3.044 -10.494  13.870  0.00  0.00    -0.285 NA
ATOM      9  C   UNL     1      -3.539 -11.193  15.072  0.00  0.00    +0.149 C 
ATOM     10  C   UNL     1      -2.517 -10.857  16.174  0.00  0.00    +0.061 C 
ATOM     11  C   UNL     1      -1.460 -10.004  15.484  0.00  0.00    +0.130 C 
ATOM     12  C   UNL     1      -1.594 -10.387  14.022  0.00  0.00    +0.116 C 
ENDROOT
BRANCH   9  14
ATOM      4  O   UNL     1      -5.957 -11.458  14.821  0.00  0.00    -0.336 OA
ATOM      6  N   UNL     1      -5.358  -9.871  16.283  0.00  0.00    -0.194 NA
ATOM      7  N   UNL     1      -7.150 -10.914  15.316  0.00  0.00    -0.061 NA
ATOM     14  C   UNL     1      -4.952 -10.788  15.442  0.00  0.00    +0.245 A 
ATOM     16  C   UNL     1      -6.713  -9.986  16.171  0.00  0.00    +0.176 A 
BRANCH  16  19
ATOM     19  C   UNL     1      -7.635  -9.142  16.941  0.00  0.00    +0.116 C 
BRANCH  19  21
ATOM      1 CL   UNL     1     -10.601  -8.302  17.245  0.00  0.00    -0.083 Cl
ATOM      2  F   UNL     1     -10.758 -12.000  20.689  0.00  0.00    -0.205 F 
ATOM     21  C   UNL     1      -8.504  -9.895  17.944  0.00  0.00    -0.021 A 
ATOM     23  C   UNL     1      -9.847  -9.572  18.137  0.00  0.00    +0.047 A 
ATOM     24  C   UNL     1      -7.922 -10.928  18.678  0.00  0.00    +0.008 A 
ATOM     25  C   UNL     1     -10.608 -10.284  19.064  0.00  0.00    +0.058 A 
ATOM     26  C   UNL     1      -8.683 -11.639  19.605  0.00  0.00    +0.039 A 
ATOM     27  C   UNL     1     -10.027 -11.317  19.798  0.00  0.00    +0.125 A 
ENDBRANCH  19  21
ENDBRANCH  16  19
ENDBRANCH   9  14
BRANCH  11   3
ATOM      3  O   UNL     1      -0.171 -10.296  15.986  0.00  0.00    -0.390 OA
ATOM     28  H   UNL     1       0.410 -10.459  15.224  0.00  0.00    +0.210 HD
ENDBRANCH  11   3
BRANCH   5  13
ATOM     13  C   UNL     1      -3.418 -11.154  12.627  0.00  0.00    +0.122 C 
BRANCH  13  15
ATOM      8  N   UNL     1      -5.790  -8.734  10.938  0.00  0.00    -0.263 NA
ATOM     15  C   UNL     1      -3.979 -10.182  11.623  0.00  0.00    -0.015 A 
ATOM     17  C   UNL     1      -3.258  -9.830  10.487  0.00  0.00    +0.008 A 
ATOM     18  C   UNL     1      -5.228  -9.611  11.801  0.00  0.00    +0.115 A 
ATOM     20  C   UNL     1      -3.803  -8.930   9.577  0.00  0.00    +0.020 A 
ATOM     22  C   UNL     1      -5.060  -8.415   9.846  0.00  0.00    +0.111 A 
ENDBRANCH  13  15
ENDBRANCH   5  13
TORSDOF 6
ENDMDL
MODEL 5
REMARK VINA RESULT:      -6.8     26.942     28.604
REMARK  Name = 26744592
REMARK  6 active torsions:
REMARK  status: ('A' for Active; 'I' for Inactive)
REMARK    1  A    between atoms: O_3  and  C_11
REMARK    2  A    between atoms: N_5  and  C_13
REMARK    3  A    between atoms: C_9  and  C_14
REMARK    4  A    between atoms: C_13  and  C_15
REMARK    5  A    between atoms: C_16  and  C_19
REMARK    6  A    between atoms: C_19  and  C_21
REMARK                            x       y       z     vdW  Elec       q    Type
REMARK                         _______ _______ _______ _____ _____    ______ ____
ROOT
ATOM      5  N   UNL     1      -5.738 -10.897  16.535  0.00  0.00    -0.285 NA
ATOM      9  C   UNL     1      -4.394 -10.875  17.147  0.00  0.00    +0.149 C 
ATOM     10  C   UNL     1      -4.458 -11.917  18.278  0.00  0.00    +0.061 C 
ATOM     11  C   UNL     1      -5.890 -12.437  18.255  0.00  0.00    +0.130 C 
ATOM     12  C   UNL     1      -6.663 -11.317  17.586  0.00  0.00    +0.116 C 
ENDROOT
BRANCH   9  14
ATOM      4  O   UNL     1      -2.031 -10.837  16.524  0.00  0.00    -0.336 OA
ATOM      6  N   UNL     1      -3.377 -11.688  14.951  0.00  0.00    -0.194 NA
ATOM      7  N   UNL     1      -1.201 -11.190  15.452  0.00  0.00    -0.061 NA
ATOM     14  C   UNL     1      -3.294 -11.164  16.146  0.00  0.00    +0.245 A 
ATOM     16  C   UNL     1      -2.068 -11.684  14.564  0.00  0.00    +0.176 A 
BRANCH  16  19
ATOM     19  C   UNL     1      -1.638 -12.189  13.255  0.00  0.00    +0.116 C 
BRANCH  19  21
ATOM      1 CL   UNL     1      -3.545 -13.924  11.539  0.00  0.00    -0.083 Cl
ATOM      2  F   UNL     1      -4.153  -9.684   8.853  0.00  0.00    -0.205 F 
ATOM     21  C   UNL     1      -2.331 -11.541  12.060  0.00  0.00    -0.021 A 
ATOM     23  C   UNL     1      -3.203 -12.259  11.241  0.00  0.00    +0.047 A 
ATOM     24  C   UNL     1      -2.076 -10.196  11.796  0.00  0.00    +0.008 A 
ATOM     25  C   UNL     1      -3.818 -11.632  10.158  0.00  0.00    +0.058 A 
ATOM     26  C   UNL     1      -2.691  -9.568  10.714  0.00  0.00    +0.039 A 
ATOM     27  C   UNL     1      -3.562 -10.286   9.894  0.00  0.00    +0.125 A 
ENDBRANCH  19  21
ENDBRANCH  16  19
ENDBRANCH   9  14
BRANCH  11   3
ATOM      3  O   UNL     1      -6.356 -12.686  19.566  0.00  0.00    -0.390 OA
ATOM     28  H   UNL     1      -5.969 -12.010  20.147  0.00  0.00    +0.210 HD
ENDBRANCH  11   3
BRANCH   5  13
ATOM     13  C   UNL     1      -6.121  -9.622  15.943  0.00  0.00    +0.122 C 
BRANCH  13  15
ATOM      8  N   UNL     1      -8.664 -10.066  13.174  0.00  0.00    -0.263 NA
ATOM     15  C   UNL     1      -6.706  -9.796  14.567  0.00  0.00    -0.015 A 
ATOM     17  C   UNL     1      -5.889  -9.853  13.443  0.00  0.00    +0.008 A 
ATOM     18  C   UNL     1      -8.075  -9.907  14.381  0.00  0.00    +0.115 A 
ATOM     20  C   UNL     1      -6.459 -10.016  12.185  0.00  0.00    +0.020 A 
ATOM     22  C   UNL     1      -7.838 -10.116  12.104  0.00  0.00    +0.111 A 
ENDBRANCH  13  15
ENDBRANCH   5  13
TORSDOF 6
ENDMDL
MODEL 6
REMARK VINA RESULT:      -6.8      4.066      6.962
REMARK  Name = 26744592
REMARK  6 active torsions:
REMARK  status: ('A' for Active; 'I' for Inactive)
REMARK    1  A    between atoms: O_3  and  C_11
REMARK    2  A    between atoms: N_5  and  C_13
REMARK    3  A    between atoms: C_9  and  C_14
REMARK    4  A    between atoms: C_13  and  C_15
REMARK    5  A    between atoms: C_16  and  C_19
REMARK    6  A    between atoms: C_19  and  C_21
REMARK                            x       y       z     vdW  Elec       q    Type
REMARK                         _______ _______ _______ _____ _____    ______ ____
ROOT
ATOM      5  N   UNL     1      15.940   7.035  19.701  0.00  0.00    -0.285 NA
ATOM      9  C   UNL     1      16.450   7.348  21.051  0.00  0.00    +0.149 C 
ATOM     10  C   UNL     1      17.923   6.900  21.029  0.00  0.00    +0.061 C 
ATOM     11  C   UNL     1      18.135   6.307  19.642  0.00  0.00    +0.130 C 
ATOM     12  C   UNL     1      16.736   5.913  19.208  0.00  0.00    +0.116 C 
ENDROOT
BRANCH   9  14
ATOM      4  O   UNL     1      17.396   9.446  21.876  0.00  0.00    -0.336 OA
ATOM      6  N   UNL     1      15.224   9.568  21.344  0.00  0.00    -0.194 NA
ATOM      7  N   UNL     1      17.004  10.765  22.139  0.00  0.00    -0.061 NA
ATOM     14  C   UNL     1      16.289   8.811  21.411  0.00  0.00    +0.245 A 
ATOM     16  C   UNL     1      15.712  10.758  21.801  0.00  0.00    +0.176 A 
BRANCH  16  19
ATOM     19  C   UNL     1      14.872  11.956  21.915  0.00  0.00    +0.116 C 
BRANCH  19  21
ATOM      1 CL   UNL     1      12.083  11.072  20.895  0.00  0.00    -0.083 Cl
ATOM      2  F   UNL     1      10.724  11.574  25.739  0.00  0.00    -0.205 F 
ATOM     21  C   UNL     1      13.732  11.843  22.923  0.00  0.00    -0.021 A 
ATOM     23  C   UNL     1      12.449  11.453  22.538  0.00  0.00    +0.047 A 
ATOM     24  C   UNL     1      13.999  12.143  24.259  0.00  0.00    +0.008 A 
ATOM     25  C   UNL     1      11.434  11.362  23.489  0.00  0.00    +0.058 A 
ATOM     26  C   UNL     1      12.983  12.051  25.210  0.00  0.00    +0.039 A 
ATOM     27  C   UNL     1      11.700  11.661  24.825  0.00  0.00    +0.125 A 
ENDBRANCH  19  21
ENDBRANCH  16  19
ENDBRANCH   9  14
BRANCH  11   3
ATOM      3  O   UNL     1      19.000   5.190  19.699  0.00  0.00    -0.390 OA
ATOM     28  H   UNL     1      18.446   4.390  19.692  0.00  0.00    +0.210 HD
ENDBRANCH  11   3
BRANCH   5  13
ATOM     13  C   UNL     1      14.512   6.747  19.679  0.00  0.00    +0.122 C 
BRANCH  13  15
ATOM      8  N   UNL     1      11.778   7.960  17.359  0.00  0.00    -0.263 NA
ATOM     15  C   UNL     1      13.793   7.556  18.633  0.00  0.00    -0.015 A 
ATOM     17  C   UNL     1      14.426   8.608  17.980  0.00  0.00    +0.008 A 
ATOM     18  C   UNL     1      12.480   7.275  18.289  0.00  0.00    +0.115 A 
ATOM     20  C   UNL     1      13.735   9.336  17.016  0.00  0.00    +0.020 A 
ATOM     22  C   UNL     1      12.426   8.976  16.745  0.00  0.00    +0.111 A 
ENDBRANCH  13  15
ENDBRANCH   5  13
TORSDOF 6
ENDMDL
MODEL 7
REMARK VINA RESULT:      -6.8      4.372      7.869
REMARK  Name = 26744592
REMARK  6 active torsions:
REMARK  status: ('A' for Active; 'I' for Inactive)
REMARK    1  A    between atoms: O_3  and  C_11
REMARK    2  A    between atoms: N_5  and  C_13
REMARK    3  A    between atoms: C_9  and  C_14
REMARK    4  A    between atoms: C_13  and  C_15
REMARK    5  A    between atoms: C_16  and  C_19
REMARK    6  A    between atoms: C_19  and  C_21
REMARK                            x       y       z     vdW  Elec       q    Type
REMARK                         _______ _______ _______ _____ _____    ______ ____
ROOT
ATOM      5  N   UNL     1      12.882   8.003  21.055  0.00  0.00    -0.285 NA
ATOM      9  C   UNL     1      11.545   8.621  20.965  0.00  0.00    +0.149 C 
ATOM     10  C   UNL     1      10.564   7.497  21.347  0.00  0.00    +0.061 C 
ATOM     11  C   UNL     1      11.440   6.274  21.589  0.00  0.00    +0.130 C 
ATOM     12  C   UNL     1      12.697   6.577  20.795  0.00  0.00    +0.116 C 
ENDROOT
BRANCH   9  14
ATOM      4  O   UNL     1      11.568  11.049  21.246  0.00  0.00    -0.336 OA
ATOM      6  N   UNL     1      11.153   9.915  23.132  0.00  0.00    -0.194 NA
ATOM      7  N   UNL     1      11.400  12.012  22.250  0.00  0.00    -0.061 NA
ATOM     14  C   UNL     1      11.407   9.844  21.850  0.00  0.00    +0.245 A 
ATOM     16  C   UNL     1      11.159  11.265  23.331  0.00  0.00    +0.176 A 
BRANCH  16  19
ATOM     19  C   UNL     1      10.917  11.861  24.650  0.00  0.00    +0.116 C 
BRANCH  19  21
ATOM      1 CL   UNL     1      10.590  14.715  25.810  0.00  0.00    -0.083 Cl
ATOM      2  F   UNL     1      15.491  14.249  26.964  0.00  0.00    -0.205 F 
ATOM     21  C   UNL     1      12.133  12.532  25.281  0.00  0.00    -0.021 A 
ATOM     23  C   UNL     1      12.063  13.816  25.823  0.00  0.00    +0.047 A 
ATOM     24  C   UNL     1      13.337  11.829  25.308  0.00  0.00    +0.008 A 
ATOM     25  C   UNL     1      13.197  14.396  26.391  0.00  0.00    +0.058 A 
ATOM     26  C   UNL     1      14.471  12.408  25.877  0.00  0.00    +0.039 A 
ATOM     27  C   UNL     1      14.401  13.692  26.418  0.00  0.00    +0.125 A 
ENDBRANCH  19  21
ENDBRANCH  16  19
ENDBRANCH   9  14
BRANCH  11   3
ATOM      3  O   UNL     1      10.801   5.099  21.132  0.00  0.00    -0.390 OA
ATOM     28  H   UNL     1      10.500   4.606  21.914  0.00  0.00    +0.210 HD
ENDBRANCH  11   3
BRANCH   5  13
ATOM     13  C   UNL     1      13.855   8.604  20.152  0.00  0.00    +0.122 C 
BRANCH  13  15
ATOM      8  N   UNL     1      17.317   7.509  21.222  0.00  0.00    -0.263 NA
ATOM     15  C   UNL     1      15.169   7.868  20.173  0.00  0.00    -0.015 A 
ATOM     17  C   UNL     1      15.466   6.905  19.216  0.00  0.00    +0.008 A 
ATOM     18  C   UNL     1      16.119   8.131  21.146  0.00  0.00    +0.115 A 
ATOM     20  C   UNL     1      16.689   6.243  19.261  0.00  0.00    +0.020 A 
ATOM     22  C   UNL     1      17.572   6.578  20.274  0.00  0.00    +0.111 A 
ENDBRANCH  13  15
ENDBRANCH   5  13
TORSDOF 6
ENDMDL
MODEL 8
REMARK VINA RESULT:      -6.8     26.751     29.147
REMARK  Name = 26744592
REMARK  6 active torsions:
REMARK  status: ('A' for Active; 'I' for Inactive)
REMARK    1  A    between atoms: O_3  and  C_11
REMARK    2  A    between atoms: N_5  and  C_13
REMARK    3  A    between atoms: C_9  and  C_14
REMARK    4  A    between atoms: C_13  and  C_15
REMARK    5  A    between atoms: C_16  and  C_19
REMARK    6  A    between atoms: C_19  and  C_21
REMARK                            x       y       z     vdW  Elec       q    Type
REMARK                         _______ _______ _______ _____ _____    ______ ____
ROOT
ATOM      5  N   UNL     1      -3.128 -10.530  14.032  0.00  0.00    -0.285 NA
ATOM      9  C   UNL     1      -3.501 -11.250  15.266  0.00  0.00    +0.149 C 
ATOM     10  C   UNL     1      -2.408 -10.880  16.285  0.00  0.00    +0.061 C 
ATOM     11  C   UNL     1      -1.441  -9.986  15.519  0.00  0.00    +0.130 C 
ATOM     12  C   UNL     1      -1.676 -10.371  14.070  0.00  0.00    +0.116 C 
ENDROOT
BRANCH   9  14
ATOM      4  O   UNL     1      -4.987  -9.870  16.631  0.00  0.00    -0.336 OA
ATOM      6  N   UNL     1      -6.041 -11.446  15.439  0.00  0.00    -0.194 NA
ATOM      7  N   UNL     1      -6.350  -9.736  16.928  0.00  0.00    -0.061 NA
ATOM     14  C   UNL     1      -4.894 -10.898  15.748  0.00  0.00    +0.245 A 
ATOM     16  C   UNL     1      -6.905 -10.700  16.187  0.00  0.00    +0.176 A 
BRANCH  16  19
ATOM     19  C   UNL     1      -8.353 -10.939  16.180  0.00  0.00    +0.116 C 
BRANCH  19  21
ATOM      1 CL   UNL     1      -9.648 -10.399  18.942  0.00  0.00    -0.083 Cl
ATOM      2  F   UNL     1     -11.504  -6.272  16.688  0.00  0.00    -0.205 F 
ATOM     21  C   UNL     1      -9.208  -9.688  16.349  0.00  0.00    -0.021 A 
ATOM     23  C   UNL     1      -9.825  -9.379  17.562  0.00  0.00    +0.047 A 
ATOM     24  C   UNL     1      -9.368  -8.843  15.250  0.00  0.00    +0.008 A 
ATOM     25  C   UNL     1     -10.599  -8.225  17.676  0.00  0.00    +0.058 A 
ATOM     26  C   UNL     1     -10.142  -7.689  15.365  0.00  0.00    +0.039 A 
ATOM     27  C   UNL     1     -10.759  -7.380  16.578  0.00  0.00    +0.125 A 
ENDBRANCH  19  21
ENDBRANCH  16  19
ENDBRANCH   9  14
BRANCH  11   3
ATOM      3  O   UNL     1      -0.106 -10.232  15.917  0.00  0.00    -0.390 OA
ATOM     28  H   UNL     1       0.142 -11.110  15.581  0.00  0.00    +0.210 HD
ENDBRANCH  11   3
BRANCH   5  13
ATOM     13  C   UNL     1      -3.575 -11.201  12.819  0.00  0.00    +0.122 C 
BRANCH  13  15
ATOM      8  N   UNL     1      -5.673  -8.660  10.955  0.00  0.00    -0.263 NA
ATOM     15  C   UNL     1      -4.011 -10.219  11.764  0.00  0.00    -0.015 A 
ATOM     17  C   UNL     1      -3.213  -9.954  10.657  0.00  0.00    +0.008 A 
ATOM     18  C   UNL     1      -5.221  -9.552  11.866  0.00  0.00    +0.115 A 
ATOM     20  C   UNL     1      -3.644  -9.042   9.699  0.00  0.00    +0.020 A 
ATOM     22  C   UNL     1      -4.870  -8.428   9.892  0.00  0.00    +0.111 A 
ENDBRANCH  13  15
ENDBRANCH   5  13
TORSDOF 6
ENDMDL
MODEL 9
REMARK VINA RESULT:      -6.7      1.920      2.389
REMARK  Name = 26744592
REMARK  6 active torsions:
REMARK  status: ('A' for Active; 'I' for Inactive)
REMARK    1  A    between atoms: O_3  and  C_11
REMARK    2  A    between atoms: N_5  and  C_13
REMARK    3  A    between atoms: C_9  and  C_14
REMARK    4  A    between atoms: C_13  and  C_15
REMARK    5  A    between atoms: C_16  and  C_19
REMARK    6  A    between atoms: C_19  and  C_21
REMARK                            x       y       z     vdW  Elec       q    Type
REMARK                         _______ _______ _______ _____ _____    ______ ____
ROOT
ATOM      5  N   UNL     1      12.435   8.249  20.182  0.00  0.00    -0.285 NA
ATOM      9  C   UNL     1      12.959   6.963  19.679  0.00  0.00    +0.149 C 
ATOM     10  C   UNL     1      12.702   6.999  18.161  0.00  0.00    +0.061 C 
ATOM     11  C   UNL     1      11.988   8.322  17.913  0.00  0.00    +0.130 C 
ATOM     12  C   UNL     1      11.374   8.651  19.260  0.00  0.00    +0.116 C 
ENDROOT
BRANCH   9  14
ATOM      4  O   UNL     1      14.704   6.457  21.314  0.00  0.00    -0.336 OA
ATOM      6  N   UNL     1      15.471   6.825  19.243  0.00  0.00    -0.194 NA
ATOM      7  N   UNL     1      16.096   6.316  21.384  0.00  0.00    -0.061 NA
ATOM     14  C   UNL     1      14.420   6.756  20.020  0.00  0.00    +0.245 A 
ATOM     16  C   UNL     1      16.475   6.548  20.125  0.00  0.00    +0.176 A 
BRANCH  16  19
ATOM     19  C   UNL     1      17.885   6.508  19.717  0.00  0.00    +0.116 C 
BRANCH  19  21
ATOM      1 CL   UNL     1      20.273   4.625  20.304  0.00  0.00    -0.083 Cl
ATOM      2  F   UNL     1      21.496   8.101  23.765  0.00  0.00    -0.205 F 
ATOM     21  C   UNL     1      18.876   6.911  20.804  0.00  0.00    -0.021 A 
ATOM     23  C   UNL     1      19.975   6.113  21.125  0.00  0.00    +0.047 A 
ATOM     24  C   UNL     1      18.662   8.110  21.483  0.00  0.00    +0.008 A 
ATOM     25  C   UNL     1      20.860   6.516  22.124  0.00  0.00    +0.058 A 
ATOM     26  C   UNL     1      19.547   8.512  22.483  0.00  0.00    +0.039 A 
ATOM     27  C   UNL     1      20.646   7.715  22.804  0.00  0.00    +0.125 A 
ENDBRANCH  19  21
ENDBRANCH  16  19
ENDBRANCH   9  14
BRANCH  11   3
ATOM      3  O   UNL     1      11.004   8.181  16.908  0.00  0.00    -0.390 OA
ATOM     28  H   UNL     1      11.447   8.285  16.048  0.00  0.00    +0.210 HD
ENDBRANCH  11   3
BRANCH   5  13
ATOM     13  C   UNL     1      11.967   8.179  21.559  0.00  0.00    +0.122 C 
BRANCH  13  15
ATOM      8  N   UNL     1      13.203  11.532  22.810  0.00  0.00    -0.263 NA
ATOM     15  C   UNL     1      11.980   9.529  22.225  0.00  0.00    -0.015 A 
ATOM     17  C   UNL     1      10.845  10.029  22.854  0.00  0.00    +0.008 A 
ATOM     18  C   UNL     1      13.123  10.312  22.231  0.00  0.00    +0.115 A 
ATOM     20  C   UNL     1      10.889  11.280  23.462  0.00  0.00    +0.020 A 
ATOM     22  C   UNL     1      12.080  11.985  23.412  0.00  0.00    +0.111 A 
ENDBRANCH  13  15
ENDBRANCH   5  13
TORSDOF 6
ENDMDL
MODEL 10
REMARK VINA RESULT:      -6.6     26.715     28.929
REMARK  Name = 26744592
REMARK  6 active torsions:
REMARK  status: ('A' for Active; 'I' for Inactive)
REMARK    1  A    between atoms: O_3  and  C_11
REMARK    2  A    between atoms: N_5  and  C_13
REMARK    3  A    between atoms: C_9  and  C_14
REMARK    4  A    between atoms: C_13  and  C_15
REMARK    5  A    between atoms: C_16  and  C_19
REMARK    6  A    between atoms: C_19  and  C_21
REMARK                            x       y       z     vdW  Elec       q    Type
REMARK                         _______ _______ _______ _____ _____    ______ ____
ROOT
ATOM      5  N   UNL     1      -5.335 -10.990  16.965  0.00  0.00    -0.285 NA
ATOM      9  C   UNL     1      -6.721 -11.398  16.662  0.00  0.00    +0.149 C 
ATOM     10  C   UNL     1      -7.564 -10.814  17.811  0.00  0.00    +0.061 C 
ATOM     11  C   UNL     1      -6.557 -10.137  18.734  0.00  0.00    +0.130 C 
ATOM     12  C   UNL     1      -5.254 -10.846  18.417  0.00  0.00    +0.116 C 
ENDROOT
BRANCH   9  14
ATOM      4  O   UNL     1      -8.145  -9.965  15.285  0.00  0.00    -0.336 OA
ATOM      6  N   UNL     1      -6.792 -11.308  14.111  0.00  0.00    -0.194 NA
ATOM      7  N   UNL     1      -8.406  -9.697  13.935  0.00  0.00    -0.061 NA
ATOM     14  C   UNL     1      -7.184 -10.924  15.299  0.00  0.00    +0.245 A 
ATOM     16  C   UNL     1      -7.569 -10.527  13.307  0.00  0.00    +0.176 A 
BRANCH  16  19
ATOM     19  C   UNL     1      -7.495 -10.595  11.843  0.00  0.00    +0.116 C 
BRANCH  19  21
ATOM      1 CL   UNL     1      -5.459 -12.766  10.984  0.00  0.00    -0.083 Cl
ATOM      2  F   UNL     1      -2.592  -8.819   9.656  0.00  0.00    -0.205 F 
ATOM     21  C   UNL     1      -6.163 -10.147  11.249  0.00  0.00    -0.021 A 
ATOM     23  C   UNL     1      -5.196 -11.067  10.841  0.00  0.00    +0.047 A 
ATOM     24  C   UNL     1      -5.923  -8.779  11.119  0.00  0.00    +0.008 A 
ATOM     25  C   UNL     1      -3.991 -10.618  10.302  0.00  0.00    +0.058 A 
ATOM     26  C   UNL     1      -4.718  -8.331  10.580  0.00  0.00    +0.039 A 
ATOM     27  C   UNL     1      -3.751  -9.250  10.172  0.00  0.00    +0.125 A 
ENDBRANCH  19  21
ENDBRANCH  16  19
ENDBRANCH   9  14
BRANCH  11   3
ATOM      3  O   UNL     1      -6.928 -10.301  20.088  0.00  0.00    -0.390 OA
ATOM     28  H   UNL     1      -7.332 -11.181  20.177  0.00  0.00    +0.210 HD
ENDBRANCH  11   3
BRANCH   5  13
ATOM     13  C   UNL     1      -4.338 -11.919  16.450  0.00  0.00    +0.122 C 
BRANCH  13  15
ATOM      8  N   UNL     1      -1.149 -10.062  15.606  0.00  0.00    -0.263 NA
ATOM     15  C   UNL     1      -3.274 -11.214  15.651  0.00  0.00    -0.015 A 
ATOM     17  C   UNL     1      -3.400 -11.051  14.276  0.00  0.00    +0.008 A 
ATOM     18  C   UNL     1      -2.139 -10.706  16.263  0.00  0.00    +0.115 A 
ATOM     20  C   UNL     1      -2.401 -10.393  13.566  0.00  0.00    +0.020 A 
ATOM     22  C   UNL     1      -1.306  -9.922  14.270  0.00  0.00    +0.111 A 
ENDBRANCH  13  15
ENDBRANCH   5  13
TORSDOF 6
ENDMDL
