MODEL 1
REMARK VINA RESULT:      -6.6      0.000      0.000
REMARK  Name = 26742488
REMARK  9 active torsions:
REMARK  status: ('A' for Active; 'I' for Inactive)
REMARK    1  A    between atoms: N_3  and  C_14
REMARK    2  A    between atoms: N_6  and  C_29
REMARK    3  A    between atoms: N_6  and  C_33
REMARK    4  A    between atoms: N_6  and  C_34
REMARK    5  A    between atoms: C_8  and  C_15
REMARK    6  A    between atoms: C_9  and  C_14
REMARK    7  A    between atoms: C_17  and  C_20
REMARK    8  A    between atoms: C_18  and  C_21
REMARK    9  A    between atoms: C_19  and  C_22
REMARK                            x       y       z     vdW  Elec       q    Type
REMARK                         _______ _______ _______ _____ _____    ______ ____
ROOT
ATOM      2  N   UNL     1      -7.481 -11.647  17.854  0.00  0.00    -0.297 NA
ATOM      7  C   UNL     1      -5.028 -11.162  18.579  0.00  0.00    +0.002 C 
ATOM      8  C   UNL     1      -5.361 -10.416  17.258  0.00  0.00    +0.055 C 
ATOM      9  C   UNL     1      -6.781 -12.922  18.159  0.00  0.00    +0.074 C 
ATOM     10  C   UNL     1      -5.274 -12.673  18.389  0.00  0.00    +0.024 C 
ATOM     11  C   UNL     1      -6.038 -10.668  19.636  0.00  0.00    +0.019 C 
ATOM     12  C   UNL     1      -6.758 -10.911  16.786  0.00  0.00    +0.094 C 
ATOM     13  C   UNL     1      -7.465 -10.815  19.081  0.00  0.00    +0.085 C 
ENDROOT
BRANCH   8  15
ATOM      4  N   UNL     1      -3.033 -10.434  16.507  0.00  0.00    -0.237 NA
ATOM      5  N   UNL     1      -2.437 -10.488  14.173  0.00  0.00    -0.232 NA
ATOM     15  C   UNL     1      -4.331 -10.443  16.137  0.00  0.00    +0.050 A 
ATOM     16  C   UNL     1      -4.754 -10.473  14.825  0.00  0.00    +0.052 A 
ATOM     17  C   UNL     1      -3.754 -10.495  13.875  0.00  0.00    +0.075 A 
ATOM     18  C   UNL     1      -2.152 -10.457  15.489  0.00  0.00    +0.127 A 
ATOM     21  C   UNL     1      -0.708 -10.446  15.857  0.00  0.00    +0.088 C 
BRANCH  17  20
ATOM     20  C   UNL     1      -4.063 -10.526  12.465  0.00  0.00    +0.001 A 
ATOM     23  C   UNL     1      -5.392 -10.531  12.044  0.00  0.00    +0.012 A 
ATOM     24  C   UNL     1      -3.034 -10.550  11.525  0.00  0.00    +0.012 A 
ATOM     27  C   UNL     1      -5.693 -10.561  10.682  0.00  0.00    +0.024 A 
ATOM     28  C   UNL     1      -3.333 -10.579  10.163  0.00  0.00    +0.024 A 
ATOM     29  C   UNL     1      -4.662 -10.585   9.742  0.00  0.00    +0.029 A 
BRANCH  29   6
ATOM      6  N   UNL     1      -4.964 -10.615   8.365  0.00  0.00    -0.336 N 
ATOM     33  C   UNL     1      -4.515 -11.718   7.538  0.00  0.00    +0.129 C 
ATOM     34  C   UNL     1      -5.735  -9.547   7.759  0.00  0.00    +0.129 C 
ENDBRANCH  29   6
ENDBRANCH  17  20
ENDBRANCH   8  15
BRANCH   9  14
ATOM     14  C   UNL     1      -7.025 -13.991  17.092  0.00  0.00    +0.123 C 
BRANCH  14   3
ATOM      1  O   UNL     1      -7.185 -13.704  14.239  0.00  0.00    -0.270 OA
ATOM      3  N   UNL     1      -5.936 -14.044  16.165  0.00  0.00    -0.310 N 
ATOM     19  C   UNL     1      -6.104 -13.894  14.789  0.00  0.00    +0.244 C 
ATOM     35  H   UNL     1      -5.022 -14.260  16.549  0.00  0.00    +0.149 HD
BRANCH  19  22
ATOM     22  C   UNL     1      -4.876 -14.000  13.960  0.00  0.00    +0.037 A 
ATOM     25  C   UNL     1      -4.977 -14.116  12.574  0.00  0.00    +0.013 A 
ATOM     26  C   UNL     1      -3.621 -13.985  14.570  0.00  0.00    +0.013 A 
ATOM     30  C   UNL     1      -3.823 -14.216  11.796  0.00  0.00    +0.001 A 
ATOM     31  C   UNL     1      -2.467 -14.085  13.791  0.00  0.00    +0.001 A 
ATOM     32  C   UNL     1      -2.569 -14.201  12.405  0.00  0.00    +0.000 A 
ENDBRANCH  19  22
ENDBRANCH  14   3
ENDBRANCH   9  14
TORSDOF 6
ENDMDL
MODEL 2
REMARK VINA RESULT:      -6.3     26.665     30.563
REMARK  Name = 26742488
REMARK  9 active torsions:
REMARK  status: ('A' for Active; 'I' for Inactive)
REMARK    1  A    between atoms: N_3  and  C_14
REMARK    2  A    between atoms: N_6  and  C_29
REMARK    3  A    between atoms: N_6  and  C_33
REMARK    4  A    between atoms: N_6  and  C_34
REMARK    5  A    between atoms: C_8  and  C_15
REMARK    6  A    between atoms: C_9  and  C_14
REMARK    7  A    between atoms: C_17  and  C_20
REMARK    8  A    between atoms: C_18  and  C_21
REMARK    9  A    between atoms: C_19  and  C_22
REMARK                            x       y       z     vdW  Elec       q    Type
REMARK                         _______ _______ _______ _____ _____    ______ ____
ROOT
ATOM      2  N   UNL     1      13.263   6.952  19.819  0.00  0.00    -0.297 NA
ATOM      7  C   UNL     1      14.827   8.856  18.974  0.00  0.00    +0.002 C 
ATOM      8  C   UNL     1      15.662   7.623  19.417  0.00  0.00    +0.055 C 
ATOM      9  C   UNL     1      12.905   8.235  20.480  0.00  0.00    +0.074 C 
ATOM     10  C   UNL     1      13.947   9.327  20.150  0.00  0.00    +0.024 C 
ATOM     11  C   UNL     1      13.874   8.370  17.860  0.00  0.00    +0.019 C 
ATOM     12  C   UNL     1      14.685   6.619  20.092  0.00  0.00    +0.094 C 
ATOM     13  C   UNL     1      13.104   7.134  18.357  0.00  0.00    +0.085 C 
ENDROOT
BRANCH   8  15
ATOM      4  N   UNL     1      17.044   9.090  20.804  0.00  0.00    -0.237 NA
ATOM      5  N   UNL     1      19.129   8.358  21.765  0.00  0.00    -0.232 NA
ATOM     15  C   UNL     1      16.910   7.864  20.255  0.00  0.00    +0.050 A 
ATOM     16  C   UNL     1      17.830   6.849  20.413  0.00  0.00    +0.052 A 
ATOM     17  C   UNL     1      18.931   7.155  21.186  0.00  0.00    +0.075 A 
ATOM     18  C   UNL     1      18.160   9.266  21.536  0.00  0.00    +0.127 A 
ATOM     21  C   UNL     1      18.345  10.608  22.157  0.00  0.00    +0.088 C 
BRANCH  17  20
ATOM     20  C   UNL     1      19.968   6.180  21.428  0.00  0.00    +0.001 A 
ATOM     23  C   UNL     1      20.803   6.312  22.536  0.00  0.00    +0.012 A 
ATOM     24  C   UNL     1      20.132   5.105  20.555  0.00  0.00    +0.012 A 
ATOM     27  C   UNL     1      21.805   5.369  22.771  0.00  0.00    +0.024 A 
ATOM     28  C   UNL     1      21.133   4.162  20.789  0.00  0.00    +0.024 A 
ATOM     29  C   UNL     1      21.969   4.295  21.896  0.00  0.00    +0.029 A 
BRANCH  29   6
ATOM      6  N   UNL     1      22.981   3.342  22.133  0.00  0.00    -0.336 N 
ATOM     33  C   UNL     1      22.972   2.546  23.345  0.00  0.00    +0.129 C 
ATOM     34  C   UNL     1      24.040   3.140  21.164  0.00  0.00    +0.129 C 
ENDBRANCH  29   6
ENDBRANCH  17  20
ENDBRANCH   8  15
BRANCH   9  14
ATOM     14  C   UNL     1      12.703   8.077  21.988  0.00  0.00    +0.123 C 
BRANCH  14   3
ATOM      1  O   UNL     1      10.134   9.291  22.400  0.00  0.00    -0.270 OA
ATOM      3  N   UNL     1      12.444   9.343  22.603  0.00  0.00    -0.310 N 
ATOM     19  C   UNL     1      11.160   9.859  22.764  0.00  0.00    +0.244 C 
ATOM     35  H   UNL     1      13.254   9.892  22.871  0.00  0.00    +0.149 HD
BRANCH  19  22
ATOM     22  C   UNL     1      11.062  11.199  23.399  0.00  0.00    +0.037 A 
ATOM     25  C   UNL     1      11.002  12.345  22.606  0.00  0.00    +0.013 A 
ATOM     26  C   UNL     1      11.030  11.309  24.789  0.00  0.00    +0.013 A 
ATOM     30  C   UNL     1      10.911  13.603  23.203  0.00  0.00    +0.001 A 
ATOM     31  C   UNL     1      10.939  12.567  25.386  0.00  0.00    +0.001 A 
ATOM     32  C   UNL     1      10.880  13.713  24.593  0.00  0.00    +0.000 A 
ENDBRANCH  19  22
ENDBRANCH  14   3
ENDBRANCH   9  14
TORSDOF 6
ENDMDL
MODEL 3
REMARK VINA RESULT:      -6.2     20.727     24.302
REMARK  Name = 26742488
REMARK  9 active torsions:
REMARK  status: ('A' for Active; 'I' for Inactive)
REMARK    1  A    between atoms: N_3  and  C_14
REMARK    2  A    between atoms: N_6  and  C_29
REMARK    3  A    between atoms: N_6  and  C_33
REMARK    4  A    between atoms: N_6  and  C_34
REMARK    5  A    between atoms: C_8  and  C_15
REMARK    6  A    between atoms: C_9  and  C_14
REMARK    7  A    between atoms: C_17  and  C_20
REMARK    8  A    between atoms: C_18  and  C_21
REMARK    9  A    between atoms: C_19  and  C_22
REMARK                            x       y       z     vdW  Elec       q    Type
REMARK                         _______ _______ _______ _____ _____    ______ ____
ROOT
ATOM      2  N   UNL     1     -18.506   2.895  26.040  0.00  0.00    -0.297 NA
ATOM      7  C   UNL     1     -16.772   0.953  26.054  0.00  0.00    +0.002 C 
ATOM      8  C   UNL     1     -17.216   1.295  27.503  0.00  0.00    +0.055 C 
ATOM      9  C   UNL     1     -17.323   3.265  25.220  0.00  0.00    +0.074 C 
ATOM     10  C   UNL     1     -16.199   2.219  25.383  0.00  0.00    +0.024 C 
ATOM     11  C   UNL     1     -18.048   0.566  25.278  0.00  0.00    +0.019 C 
ATOM     12  C   UNL     1     -18.085   2.583  27.430  0.00  0.00    +0.094 C 
ATOM     13  C   UNL     1     -19.103   1.672  25.452  0.00  0.00    +0.085 C 
ENDROOT
BRANCH   8  15
ATOM      4  N   UNL     1     -15.320   0.322  28.705  0.00  0.00    -0.237 NA
ATOM      5  N   UNL     1     -14.207   1.481  30.501  0.00  0.00    -0.232 NA
ATOM     15  C   UNL     1     -16.145   1.384  28.582  0.00  0.00    +0.050 A 
ATOM     16  C   UNL     1     -16.064   2.513  29.370  0.00  0.00    +0.052 A 
ATOM     17  C   UNL     1     -15.066   2.507  30.322  0.00  0.00    +0.075 A 
ATOM     18  C   UNL     1     -14.388   0.437  29.670  0.00  0.00    +0.127 A 
ATOM     21  C   UNL     1     -13.458  -0.717  29.838  0.00  0.00    +0.088 C 
BRANCH  17  20
ATOM     20  C   UNL     1     -14.876   3.628  31.211  0.00  0.00    +0.001 A 
ATOM     23  C   UNL     1     -15.498   4.846  30.940  0.00  0.00    +0.012 A 
ATOM     24  C   UNL     1     -14.072   3.492  32.342  0.00  0.00    +0.012 A 
ATOM     27  C   UNL     1     -15.315   5.930  31.799  0.00  0.00    +0.024 A 
ATOM     28  C   UNL     1     -13.889   4.575  33.202  0.00  0.00    +0.024 A 
ATOM     29  C   UNL     1     -14.510   5.793  32.930  0.00  0.00    +0.029 A 
BRANCH  29   6
ATOM      6  N   UNL     1     -14.325   6.889  33.800  0.00  0.00    -0.336 N 
ATOM     33  C   UNL     1     -15.004   8.146  33.552  0.00  0.00    +0.129 C 
ATOM     34  C   UNL     1     -13.459   6.770  34.956  0.00  0.00    +0.129 C 
ENDBRANCH  29   6
ENDBRANCH  17  20
ENDBRANCH   8  15
BRANCH   9  14
ATOM     14  C   UNL     1     -16.829   4.683  25.516  0.00  0.00    +0.123 C 
BRANCH  14   3
ATOM      1  O   UNL     1     -16.973   6.151  23.052  0.00  0.00    -0.270 OA
ATOM      3  N   UNL     1     -15.734   5.029  24.662  0.00  0.00    -0.310 N 
ATOM     19  C   UNL     1     -15.894   5.748  23.478  0.00  0.00    +0.244 C 
ATOM     35  H   UNL     1     -14.821   4.673  24.925  0.00  0.00    +0.149 HD
BRANCH  19  22
ATOM     22  C   UNL     1     -14.661   6.005  22.692  0.00  0.00    +0.037 A 
ATOM     25  C   UNL     1     -14.541   7.177  21.944  0.00  0.00    +0.013 A 
ATOM     26  C   UNL     1     -13.622   5.074  22.701  0.00  0.00    +0.013 A 
ATOM     30  C   UNL     1     -13.382   7.418  21.205  0.00  0.00    +0.001 A 
ATOM     31  C   UNL     1     -12.463   5.315  21.961  0.00  0.00    +0.001 A 
ATOM     32  C   UNL     1     -12.344   6.487  21.214  0.00  0.00    +0.000 A 
ENDBRANCH  19  22
ENDBRANCH  14   3
ENDBRANCH   9  14
TORSDOF 6
ENDMDL
MODEL 4
REMARK VINA RESULT:      -6.0     23.909     26.790
REMARK  Name = 26742488
REMARK  9 active torsions:
REMARK  status: ('A' for Active; 'I' for Inactive)
REMARK    1  A    between atoms: N_3  and  C_14
REMARK    2  A    between atoms: N_6  and  C_29
REMARK    3  A    between atoms: N_6  and  C_33
REMARK    4  A    between atoms: N_6  and  C_34
REMARK    5  A    between atoms: C_8  and  C_15
REMARK    6  A    between atoms: C_9  and  C_14
REMARK    7  A    between atoms: C_17  and  C_20
REMARK    8  A    between atoms: C_18  and  C_21
REMARK    9  A    between atoms: C_19  and  C_22
REMARK                            x       y       z     vdW  Elec       q    Type
REMARK                         _______ _______ _______ _____ _____    ______ ____
ROOT
ATOM      2  N   UNL     1      10.632   5.158   7.981  0.00  0.00    -0.297 NA
ATOM      7  C   UNL     1       9.226   7.258   7.352  0.00  0.00    +0.002 C 
ATOM      8  C   UNL     1       9.068   6.155   6.270  0.00  0.00    +0.055 C 
ATOM      9  C   UNL     1      11.473   6.380   8.079  0.00  0.00    +0.074 C 
ATOM     10  C   UNL     1      10.720   7.605   7.514  0.00  0.00    +0.024 C 
ATOM     11  C   UNL     1       8.757   6.641   8.687  0.00  0.00    +0.019 C 
ATOM     12  C   UNL     1      10.085   5.026   6.606  0.00  0.00    +0.094 C 
ATOM     13  C   UNL     1       9.495   5.311   8.919  0.00  0.00    +0.085 C 
ENDROOT
BRANCH   8  15
ATOM      4  N   UNL     1       8.358   7.613   4.438  0.00  0.00    -0.237 NA
ATOM      5  N   UNL     1       9.198   7.358   2.194  0.00  0.00    -0.232 NA
ATOM     15  C   UNL     1       9.131   6.570   4.806  0.00  0.00    +0.050 A 
ATOM     16  C   UNL     1       9.952   5.880   3.938  0.00  0.00    +0.052 A 
ATOM     17  C   UNL     1       9.945   6.322   2.631  0.00  0.00    +0.075 A 
ATOM     18  C   UNL     1       8.439   7.949   3.137  0.00  0.00    +0.127 A 
ATOM     21  C   UNL     1       7.598   9.096   2.691  0.00  0.00    +0.088 C 
BRANCH  17  20
ATOM     20  C   UNL     1      10.759   5.685   1.624  0.00  0.00    +0.001 A 
ATOM     23  C   UNL     1      11.713   4.739   1.995  0.00  0.00    +0.012 A 
ATOM     24  C   UNL     1      10.589   6.014   0.279  0.00  0.00    +0.012 A 
ATOM     27  C   UNL     1      12.500   4.122   1.022  0.00  0.00    +0.024 A 
ATOM     28  C   UNL     1      11.375   5.397  -0.694  0.00  0.00    +0.024 A 
ATOM     29  C   UNL     1      12.330   4.452  -0.323  0.00  0.00    +0.029 A 
BRANCH  29   6
ATOM      6  N   UNL     1      13.125   3.829  -1.308  0.00  0.00    -0.336 N 
ATOM     33  C   UNL     1      12.533   2.897  -2.248  0.00  0.00    +0.129 C 
ATOM     34  C   UNL     1      14.543   4.118  -1.398  0.00  0.00    +0.129 C 
ENDBRANCH  29   6
ENDBRANCH  17  20
ENDBRANCH   8  15
BRANCH   9  14
ATOM     14  C   UNL     1      12.843   6.201   7.422  0.00  0.00    +0.123 C 
BRANCH  14   3
ATOM      1  O   UNL     1      14.956   7.484   5.962  0.00  0.00    -0.270 OA
ATOM      3  N   UNL     1      12.808   6.610   6.051  0.00  0.00    -0.310 N 
ATOM     19  C   UNL     1      13.885   7.230   5.418  0.00  0.00    +0.244 C 
ATOM     35  H   UNL     1      11.929   6.484   5.561  0.00  0.00    +0.149 HD
BRANCH  19  22
ATOM     22  C   UNL     1      13.681   7.616   3.999  0.00  0.00    +0.037 A 
ATOM     25  C   UNL     1      14.467   7.044   2.999  0.00  0.00    +0.013 A 
ATOM     26  C   UNL     1      12.701   8.552   3.666  0.00  0.00    +0.013 A 
ATOM     30  C   UNL     1      14.275   7.409   1.666  0.00  0.00    +0.001 A 
ATOM     31  C   UNL     1      12.509   8.917   2.332  0.00  0.00    +0.001 A 
ATOM     32  C   UNL     1      13.297   8.344   1.333  0.00  0.00    +0.000 A 
ENDBRANCH  19  22
ENDBRANCH  14   3
ENDBRANCH   9  14
TORSDOF 6
ENDMDL
MODEL 5
REMARK VINA RESULT:      -5.9     21.957     24.954
REMARK  Name = 26742488
REMARK  9 active torsions:
REMARK  status: ('A' for Active; 'I' for Inactive)
REMARK    1  A    between atoms: N_3  and  C_14
REMARK    2  A    between atoms: N_6  and  C_29
REMARK    3  A    between atoms: N_6  and  C_33
REMARK    4  A    between atoms: N_6  and  C_34
REMARK    5  A    between atoms: C_8  and  C_15
REMARK    6  A    between atoms: C_9  and  C_14
REMARK    7  A    between atoms: C_17  and  C_20
REMARK    8  A    between atoms: C_18  and  C_21
REMARK    9  A    between atoms: C_19  and  C_22
REMARK                            x       y       z     vdW  Elec       q    Type
REMARK                         _______ _______ _______ _____ _____    ______ ____
ROOT
ATOM      2  N   UNL     1      -9.803  10.420  17.157  0.00  0.00    -0.297 NA
ATOM      7  C   UNL     1     -12.168  11.377  16.637  0.00  0.00    +0.002 C 
ATOM      8  C   UNL     1     -11.784  11.653  18.117  0.00  0.00    +0.055 C 
ATOM      9  C   UNL     1     -10.636   9.383  16.493  0.00  0.00    +0.074 C 
ATOM     10  C   UNL     1     -12.100   9.860  16.365  0.00  0.00    +0.024 C 
ATOM     11  C   UNL     1     -11.084  12.045  15.765  0.00  0.00    +0.019 C 
ATOM     12  C   UNL     1     -10.463  10.882  18.404  0.00  0.00    +0.094 C 
ATOM     13  C   UNL     1      -9.696  11.576  16.235  0.00  0.00    +0.085 C 
ENDROOT
BRANCH   8  15
ATOM      4  N   UNL     1     -14.123  11.379  18.781  0.00  0.00    -0.237 NA
ATOM      5  N   UNL     1     -14.770  10.986  21.069  0.00  0.00    -0.232 NA
ATOM     15  C   UNL     1     -12.837  11.411  19.190  0.00  0.00    +0.050 A 
ATOM     16  C   UNL     1     -12.445  11.242  20.502  0.00  0.00    +0.052 A 
ATOM     17  C   UNL     1     -13.465  11.030  21.407  0.00  0.00    +0.075 A 
ATOM     18  C   UNL     1     -15.024  11.165  19.758  0.00  0.00    +0.127 A 
ATOM     21  C   UNL     1     -16.456  11.125  19.346  0.00  0.00    +0.088 C 
BRANCH  17  20
ATOM     20  C   UNL     1     -13.188  10.840  22.811  0.00  0.00    +0.001 A 
ATOM     23  C   UNL     1     -14.069  10.102  23.601  0.00  0.00    +0.012 A 
ATOM     24  C   UNL     1     -12.039  11.392  23.377  0.00  0.00    +0.012 A 
ATOM     27  C   UNL     1     -13.802   9.918  24.958  0.00  0.00    +0.024 A 
ATOM     28  C   UNL     1     -11.772  11.208  24.733  0.00  0.00    +0.024 A 
ATOM     29  C   UNL     1     -12.653  10.471  25.523  0.00  0.00    +0.029 A 
BRANCH  29   6
ATOM      6  N   UNL     1     -12.382  10.285  26.895  0.00  0.00    -0.336 N 
ATOM     33  C   UNL     1     -11.079   9.822  27.330  0.00  0.00    +0.129 C 
ATOM     34  C   UNL     1     -13.401  10.561  27.889  0.00  0.00    +0.129 C 
ENDBRANCH  29   6
ENDBRANCH  17  20
ENDBRANCH   8  15
BRANCH   9  14
ATOM     14  C   UNL     1     -10.540   8.024  17.190  0.00  0.00    +0.123 C 
BRANCH  14   3
ATOM      1  O   UNL     1     -10.765   8.035  20.052  0.00  0.00    -0.270 OA
ATOM      3  N   UNL     1     -11.719   7.759  17.955  0.00  0.00    -0.310 N 
ATOM     19  C   UNL     1     -11.740   7.786  19.349  0.00  0.00    +0.244 C 
ATOM     35  H   UNL     1     -12.546   7.485  17.436  0.00  0.00    +0.149 HD
BRANCH  19  22
ATOM     22  C   UNL     1     -13.038   7.463  19.995  0.00  0.00    +0.037 A 
ATOM     25  C   UNL     1     -14.234   7.712  19.322  0.00  0.00    +0.013 A 
ATOM     26  C   UNL     1     -13.060   6.910  21.275  0.00  0.00    +0.013 A 
ATOM     30  C   UNL     1     -15.453   7.409  19.930  0.00  0.00    +0.001 A 
ATOM     31  C   UNL     1     -14.279   6.606  21.883  0.00  0.00    +0.001 A 
ATOM     32  C   UNL     1     -15.475   6.856  21.210  0.00  0.00    +0.000 A 
ENDBRANCH  19  22
ENDBRANCH  14   3
ENDBRANCH   9  14
TORSDOF 6
ENDMDL
MODEL 6
REMARK VINA RESULT:      -5.7     24.769     27.855
REMARK  Name = 26742488
REMARK  9 active torsions:
REMARK  status: ('A' for Active; 'I' for Inactive)
REMARK    1  A    between atoms: N_3  and  C_14
REMARK    2  A    between atoms: N_6  and  C_29
REMARK    3  A    between atoms: N_6  and  C_33
REMARK    4  A    between atoms: N_6  and  C_34
REMARK    5  A    between atoms: C_8  and  C_15
REMARK    6  A    between atoms: C_9  and  C_14
REMARK    7  A    between atoms: C_17  and  C_20
REMARK    8  A    between atoms: C_18  and  C_21
REMARK    9  A    between atoms: C_19  and  C_22
REMARK                            x       y       z     vdW  Elec       q    Type
REMARK                         _______ _______ _______ _____ _____    ______ ____
ROOT
ATOM      2  N   UNL     1      15.248   9.802   4.262  0.00  0.00    -0.297 NA
ATOM      7  C   UNL     1      15.205   7.251   3.742  0.00  0.00    +0.002 C 
ATOM      8  C   UNL     1      14.068   7.981   2.975  0.00  0.00    +0.055 C 
ATOM      9  C   UNL     1      15.292   9.024   5.529  0.00  0.00    +0.074 C 
ATOM     10  C   UNL     1      15.059   7.522   5.253  0.00  0.00    +0.024 C 
ATOM     11  C   UNL     1      16.532   7.898   3.291  0.00  0.00    +0.019 C 
ATOM     12  C   UNL     1      14.030   9.449   3.490  0.00  0.00    +0.094 C 
ATOM     13  C   UNL     1      16.433   9.424   3.456  0.00  0.00    +0.085 C 
ENDROOT
BRANCH   8  15
ATOM      4  N   UNL     1      12.643   5.996   2.856  0.00  0.00    -0.237 NA
ATOM      5  N   UNL     1      10.238   6.136   2.918  0.00  0.00    -0.232 NA
ATOM     15  C   UNL     1      12.686   7.341   2.958  0.00  0.00    +0.050 A 
ATOM     16  C   UNL     1      11.565   8.140   3.043  0.00  0.00    +0.052 A 
ATOM     17  C   UNL     1      10.355   7.477   3.018  0.00  0.00    +0.075 A 
ATOM     18  C   UNL     1      11.405   5.467   2.842  0.00  0.00    +0.127 A 
ATOM     21  C   UNL     1      11.315   3.983   2.728  0.00  0.00    +0.088 C 
BRANCH  17  20
ATOM     20  C   UNL     1       9.108   8.198   3.099  0.00  0.00    +0.001 A 
ATOM     23  C   UNL     1       8.506   8.412   4.338  0.00  0.00    +0.012 A 
ATOM     24  C   UNL     1       8.505   8.680   1.938  0.00  0.00    +0.012 A 
ATOM     27  C   UNL     1       7.299   9.109   4.416  0.00  0.00    +0.024 A 
ATOM     28  C   UNL     1       7.299   9.378   2.015  0.00  0.00    +0.024 A 
ATOM     29  C   UNL     1       6.697   9.592   3.254  0.00  0.00    +0.029 A 
BRANCH  29   6
ATOM      6  N   UNL     1       5.478  10.297   3.333  0.00  0.00    -0.336 N 
ATOM     33  C   UNL     1       5.208  11.175   4.454  0.00  0.00    +0.129 C 
ATOM     34  C   UNL     1       4.481  10.158   2.289  0.00  0.00    +0.129 C 
ENDBRANCH  29   6
ENDBRANCH  17  20
ENDBRANCH   8  15
BRANCH   9  14
ATOM     14  C   UNL     1      14.322   9.568   6.580  0.00  0.00    +0.123 C 
BRANCH  14   3
ATOM      1  O   UNL     1      11.521   9.939   6.068  0.00  0.00    -0.270 OA
ATOM      3  N   UNL     1      13.274   8.629   6.840  0.00  0.00    -0.310 N 
ATOM     19  C   UNL     1      11.934   8.893   6.559  0.00  0.00    +0.244 C 
ATOM     35  H   UNL     1      13.540   7.767   7.303  0.00  0.00    +0.149 HD
BRANCH  19  22
ATOM     22  C   UNL     1      10.964   7.824   6.911  0.00  0.00    +0.037 A 
ATOM     25  C   UNL     1       9.872   8.114   7.728  0.00  0.00    +0.013 A 
ATOM     26  C   UNL     1      11.147   6.530   6.424  0.00  0.00    +0.013 A 
ATOM     30  C   UNL     1       8.961   7.110   8.059  0.00  0.00    +0.001 A 
ATOM     31  C   UNL     1      10.236   5.525   6.755  0.00  0.00    +0.001 A 
ATOM     32  C   UNL     1       9.144   5.816   7.573  0.00  0.00    +0.000 A 
ENDBRANCH  19  22
ENDBRANCH  14   3
ENDBRANCH   9  14
TORSDOF 6
ENDMDL
MODEL 7
REMARK VINA RESULT:      -5.7     24.037     26.881
REMARK  Name = 26742488
REMARK  9 active torsions:
REMARK  status: ('A' for Active; 'I' for Inactive)
REMARK    1  A    between atoms: N_3  and  C_14
REMARK    2  A    between atoms: N_6  and  C_29
REMARK    3  A    between atoms: N_6  and  C_33
REMARK    4  A    between atoms: N_6  and  C_34
REMARK    5  A    between atoms: C_8  and  C_15
REMARK    6  A    between atoms: C_9  and  C_14
REMARK    7  A    between atoms: C_17  and  C_20
REMARK    8  A    between atoms: C_18  and  C_21
REMARK    9  A    between atoms: C_19  and  C_22
REMARK                            x       y       z     vdW  Elec       q    Type
REMARK                         _______ _______ _______ _____ _____    ______ ____
ROOT
ATOM      2  N   UNL     1       9.268   7.713   7.710  0.00  0.00    -0.297 NA
ATOM      7  C   UNL     1       9.849   5.494   6.478  0.00  0.00    +0.002 C 
ATOM      8  C   UNL     1      11.093   6.424   6.537  0.00  0.00    +0.055 C 
ATOM      9  C   UNL     1       8.251   7.432   6.663  0.00  0.00    +0.074 C 
ATOM     10  C   UNL     1       8.688   6.237   5.787  0.00  0.00    +0.024 C 
ATOM     11  C   UNL     1       9.418   5.235   7.937  0.00  0.00    +0.019 C 
ATOM     12  C   UNL     1      10.619   7.796   7.099  0.00  0.00    +0.094 C 
ATOM     13  C   UNL     1       9.261   6.581   8.666  0.00  0.00    +0.085 C 
ENDROOT
BRANCH   8  15
ATOM      4  N   UNL     1      13.063   7.313   5.392  0.00  0.00    -0.237 NA
ATOM      5  N   UNL     1      13.491   6.891   3.058  0.00  0.00    -0.232 NA
ATOM     15  C   UNL     1      11.937   6.577   5.279  0.00  0.00    +0.050 A 
ATOM     16  C   UNL     1      11.527   5.977   4.107  0.00  0.00    +0.052 A 
ATOM     17  C   UNL     1      12.352   6.169   3.018  0.00  0.00    +0.075 A 
ATOM     18  C   UNL     1      13.782   7.427   4.259  0.00  0.00    +0.127 A 
ATOM     21  C   UNL     1      15.033   8.234   4.342  0.00  0.00    +0.088 C 
BRANCH  17  20
ATOM     20  C   UNL     1      12.035   5.594   1.732  0.00  0.00    +0.001 A 
ATOM     23  C   UNL     1      12.918   5.746   0.664  0.00  0.00    +0.012 A 
ATOM     24  C   UNL     1      10.847   4.884   1.559  0.00  0.00    +0.012 A 
ATOM     27  C   UNL     1      12.613   5.191  -0.579  0.00  0.00    +0.024 A 
ATOM     28  C   UNL     1      10.541   4.328   0.317  0.00  0.00    +0.024 A 
ATOM     29  C   UNL     1      11.424   4.482  -0.751  0.00  0.00    +0.029 A 
BRANCH  29   6
ATOM      6  N   UNL     1      11.115   3.919  -2.008  0.00  0.00    -0.336 N 
ATOM     33  C   UNL     1      11.683   2.645  -2.401  0.00  0.00    +0.129 C 
ATOM     34  C   UNL     1      10.219   4.605  -2.918  0.00  0.00    +0.129 C 
ENDBRANCH  29   6
ENDBRANCH  17  20
ENDBRANCH   8  15
BRANCH   9  14
ATOM     14  C   UNL     1       7.925   8.667   5.820  0.00  0.00    +0.123 C 
BRANCH  14   3
ATOM      1  O   UNL     1      10.183  10.011   4.661  0.00  0.00    -0.270 OA
ATOM      3  N   UNL     1       8.416   8.517   4.485  0.00  0.00    -0.310 N 
ATOM     19  C   UNL     1       9.524   9.211   4.002  0.00  0.00    +0.244 C 
ATOM     35  H   UNL     1       7.879   7.917   3.868  0.00  0.00    +0.149 HD
BRANCH  19  22
ATOM     22  C   UNL     1       9.891   8.963   2.584  0.00  0.00    +0.037 A 
ATOM     25  C   UNL     1      11.082   9.477   2.071  0.00  0.00    +0.013 A 
ATOM     26  C   UNL     1       9.044   8.214   1.767  0.00  0.00    +0.013 A 
ATOM     30  C   UNL     1      11.426   9.243   0.738  0.00  0.00    +0.001 A 
ATOM     31  C   UNL     1       9.388   7.980   0.434  0.00  0.00    +0.001 A 
ATOM     32  C   UNL     1      10.579   8.495  -0.079  0.00  0.00    +0.000 A 
ENDBRANCH  19  22
ENDBRANCH  14   3
ENDBRANCH   9  14
TORSDOF 6
ENDMDL
MODEL 8
REMARK VINA RESULT:      -5.7     24.285     27.287
REMARK  Name = 26742488
REMARK  9 active torsions:
REMARK  status: ('A' for Active; 'I' for Inactive)
REMARK    1  A    between atoms: N_3  and  C_14
REMARK    2  A    between atoms: N_6  and  C_29
REMARK    3  A    between atoms: N_6  and  C_33
REMARK    4  A    between atoms: N_6  and  C_34
REMARK    5  A    between atoms: C_8  and  C_15
REMARK    6  A    between atoms: C_9  and  C_14
REMARK    7  A    between atoms: C_17  and  C_20
REMARK    8  A    between atoms: C_18  and  C_21
REMARK    9  A    between atoms: C_19  and  C_22
REMARK                            x       y       z     vdW  Elec       q    Type
REMARK                         _______ _______ _______ _____ _____    ______ ____
ROOT
ATOM      2  N   UNL     1       8.260  10.695   5.042  0.00  0.00    -0.297 NA
ATOM      7  C   UNL     1       7.605   8.936   3.236  0.00  0.00    +0.002 C 
ATOM      8  C   UNL     1       7.941   8.234   4.580  0.00  0.00    +0.055 C 
ATOM      9  C   UNL     1       9.031  10.937   3.794  0.00  0.00    +0.074 C 
ATOM     10  C   UNL     1       8.811   9.786   2.787  0.00  0.00    +0.024 C 
ATOM     11  C   UNL     1       6.444   9.912   3.522  0.00  0.00    +0.019 C 
ATOM     12  C   UNL     1       8.514   9.319   5.538  0.00  0.00    +0.094 C 
ATOM     13  C   UNL     1       6.818  10.810   4.715  0.00  0.00    +0.085 C 
ENDROOT
BRANCH   8  15
ATOM      4  N   UNL     1       8.948   6.307   5.701  0.00  0.00    -0.237 NA
ATOM      5  N   UNL     1      10.355   4.735   4.536  0.00  0.00    -0.232 NA
ATOM     15  C   UNL     1       8.809   6.984   4.541  0.00  0.00    +0.050 A 
ATOM     16  C   UNL     1       9.403   6.604   3.356  0.00  0.00    +0.052 A 
ATOM     17  C   UNL     1      10.172   5.460   3.412  0.00  0.00    +0.075 A 
ATOM     18  C   UNL     1       9.723   5.209   5.627  0.00  0.00    +0.127 A 
ATOM     21  C   UNL     1       9.904   4.435   6.889  0.00  0.00    +0.088 C 
BRANCH  17  20
ATOM     20  C   UNL     1      10.848   4.957   2.241  0.00  0.00    +0.001 A 
ATOM     23  C   UNL     1      11.859   4.006   2.374  0.00  0.00    +0.012 A 
ATOM     24  C   UNL     1      10.489   5.421   0.975  0.00  0.00    +0.012 A 
ATOM     27  C   UNL     1      12.513   3.519   1.242  0.00  0.00    +0.024 A 
ATOM     28  C   UNL     1      11.142   4.934  -0.157  0.00  0.00    +0.024 A 
ATOM     29  C   UNL     1      12.153   3.984  -0.024  0.00  0.00    +0.029 A 
BRANCH  29   6
ATOM      6  N   UNL     1      12.814   3.492  -1.169  0.00  0.00    -0.336 N 
ATOM     33  C   UNL     1      12.195   2.469  -1.991  0.00  0.00    +0.129 C 
ATOM     34  C   UNL     1      14.116   4.007  -1.544  0.00  0.00    +0.129 C 
ENDBRANCH  29   6
ENDBRANCH  17  20
ENDBRANCH   8  15
BRANCH   9  14
ATOM     14  C   UNL     1      10.517  11.180   4.065  0.00  0.00    +0.123 C 
BRANCH  14   3
ATOM      1  O   UNL     1      11.835   8.846   5.092  0.00  0.00    -0.270 OA
ATOM      3  N   UNL     1      11.327  10.262   3.326  0.00  0.00    -0.310 N 
ATOM     19  C   UNL     1      11.933   9.148   3.906  0.00  0.00    +0.244 C 
ATOM     35  H   UNL     1      11.499  10.488   2.352  0.00  0.00    +0.149 HD
BRANCH  19  22
ATOM     22  C   UNL     1      12.763   8.306   3.008  0.00  0.00    +0.037 A 
ATOM     25  C   UNL     1      12.657   8.446   1.624  0.00  0.00    +0.013 A 
ATOM     26  C   UNL     1      13.651   7.376   3.549  0.00  0.00    +0.013 A 
ATOM     30  C   UNL     1      13.437   7.654   0.780  0.00  0.00    +0.001 A 
ATOM     31  C   UNL     1      14.432   6.584   2.705  0.00  0.00    +0.001 A 
ATOM     32  C   UNL     1      14.324   6.724   1.321  0.00  0.00    +0.000 A 
ENDBRANCH  19  22
ENDBRANCH  14   3
ENDBRANCH   9  14
TORSDOF 6
ENDMDL
MODEL 9
REMARK VINA RESULT:      -5.6     23.789     27.183
REMARK  Name = 26742488
REMARK  9 active torsions:
REMARK  status: ('A' for Active; 'I' for Inactive)
REMARK    1  A    between atoms: N_3  and  C_14
REMARK    2  A    between atoms: N_6  and  C_29
REMARK    3  A    between atoms: N_6  and  C_33
REMARK    4  A    between atoms: N_6  and  C_34
REMARK    5  A    between atoms: C_8  and  C_15
REMARK    6  A    between atoms: C_9  and  C_14
REMARK    7  A    between atoms: C_17  and  C_20
REMARK    8  A    between atoms: C_18  and  C_21
REMARK    9  A    between atoms: C_19  and  C_22
REMARK                            x       y       z     vdW  Elec       q    Type
REMARK                         _______ _______ _______ _____ _____    ______ ____
ROOT
ATOM      2  N   UNL     1      18.629  -2.916  31.053  0.00  0.00    -0.297 NA
ATOM      7  C   UNL     1      16.181  -2.038  31.190  0.00  0.00    +0.002 C 
ATOM      8  C   UNL     1      16.274  -3.480  31.760  0.00  0.00    +0.055 C 
ATOM      9  C   UNL     1      18.214  -2.362  29.737  0.00  0.00    +0.074 C 
ATOM     10  C   UNL     1      16.706  -2.028  29.739  0.00  0.00    +0.024 C 
ATOM     11  C   UNL     1      17.142  -1.166  32.026  0.00  0.00    +0.019 C 
ATOM     12  C   UNL     1      17.707  -4.006  31.460  0.00  0.00    +0.094 C 
ATOM     13  C   UNL     1      18.531  -1.829  32.055  0.00  0.00    +0.085 C 
ENDROOT
BRANCH   8  15
ATOM      4  N   UNL     1      15.441  -5.229  30.266  0.00  0.00    -0.237 NA
ATOM      5  N   UNL     1      13.304  -6.292  30.599  0.00  0.00    -0.232 NA
ATOM     15  C   UNL     1      15.198  -4.481  31.363  0.00  0.00    +0.050 A 
ATOM     16  C   UNL     1      14.048  -4.580  32.119  0.00  0.00    +0.052 A 
ATOM     17  C   UNL     1      13.127  -5.512  31.686  0.00  0.00    +0.075 A 
ATOM     18  C   UNL     1      14.466  -6.100  29.945  0.00  0.00    +0.127 A 
ATOM     21  C   UNL     1      14.697  -6.943  28.737  0.00  0.00    +0.088 C 
BRANCH  17  20
ATOM     20  C   UNL     1      11.882  -5.712  32.389  0.00  0.00    +0.001 A 
ATOM     23  C   UNL     1      11.337  -6.992  32.489  0.00  0.00    +0.012 A 
ATOM     24  C   UNL     1      11.226  -4.627  32.969  0.00  0.00    +0.012 A 
ATOM     27  C   UNL     1      10.134  -7.186  33.168  0.00  0.00    +0.024 A 
ATOM     28  C   UNL     1      10.023  -4.821  33.648  0.00  0.00    +0.024 A 
ATOM     29  C   UNL     1       9.478  -6.100  33.748  0.00  0.00    +0.029 A 
BRANCH  29   6
ATOM      6  N   UNL     1       8.261  -6.296  34.435  0.00  0.00    -0.336 N 
ATOM     33  C   UNL     1       7.924  -5.472  35.579  0.00  0.00    +0.129 C 
ATOM     34  C   UNL     1       7.330  -7.318  34.001  0.00  0.00    +0.129 C 
ENDBRANCH  29   6
ENDBRANCH  17  20
ENDBRANCH   8  15
BRANCH   9  14
ATOM     14  C   UNL     1      18.593  -3.280  28.573  0.00  0.00    +0.123 C 
BRANCH  14   3
ATOM      1  O   UNL     1      17.521  -4.714  26.328  0.00  0.00    -0.270 OA
ATOM      3  N   UNL     1      18.169  -2.722  27.325  0.00  0.00    -0.310 N 
ATOM     19  C   UNL     1      17.657  -3.495  26.284  0.00  0.00    +0.244 C 
ATOM     35  H   UNL     1      18.312  -1.726  27.201  0.00  0.00    +0.149 HD
BRANCH  19  22
ATOM     22  C   UNL     1      17.286  -2.767  25.044  0.00  0.00    +0.037 A 
ATOM     25  C   UNL     1      16.228  -3.223  24.257  0.00  0.00    +0.013 A 
ATOM     26  C   UNL     1      17.995  -1.627  24.667  0.00  0.00    +0.013 A 
ATOM     30  C   UNL     1      15.879  -2.538  23.092  0.00  0.00    +0.001 A 
ATOM     31  C   UNL     1      17.647  -0.942  23.501  0.00  0.00    +0.001 A 
ATOM     32  C   UNL     1      16.589  -1.399  22.715  0.00  0.00    +0.000 A 
ENDBRANCH  19  22
ENDBRANCH  14   3
ENDBRANCH   9  14
TORSDOF 6
ENDMDL
MODEL 10
REMARK VINA RESULT:      -5.6     24.985     27.323
REMARK  Name = 26742488
REMARK  9 active torsions:
REMARK  status: ('A' for Active; 'I' for Inactive)
REMARK    1  A    between atoms: N_3  and  C_14
REMARK    2  A    between atoms: N_6  and  C_29
REMARK    3  A    between atoms: N_6  and  C_33
REMARK    4  A    between atoms: N_6  and  C_34
REMARK    5  A    between atoms: C_8  and  C_15
REMARK    6  A    between atoms: C_9  and  C_14
REMARK    7  A    between atoms: C_17  and  C_20
REMARK    8  A    between atoms: C_18  and  C_21
REMARK    9  A    between atoms: C_19  and  C_22
REMARK                            x       y       z     vdW  Elec       q    Type
REMARK                         _______ _______ _______ _____ _____    ______ ____
ROOT
ATOM      2  N   UNL     1      18.561  -2.636  31.300  0.00  0.00    -0.297 NA
ATOM      7  C   UNL     1      16.060  -3.015  30.682  0.00  0.00    +0.002 C 
ATOM      8  C   UNL     1      16.793  -4.376  30.837  0.00  0.00    +0.055 C 
ATOM      9  C   UNL     1      18.196  -1.801  30.126  0.00  0.00    +0.074 C 
ATOM     10  C   UNL     1      16.783  -2.163  29.618  0.00  0.00    +0.024 C 
ATOM     11  C   UNL     1      16.204  -2.275  32.029  0.00  0.00    +0.019 C 
ATOM     12  C   UNL     1      18.309  -4.069  31.003  0.00  0.00    +0.094 C 
ATOM     13  C   UNL     1      17.689  -2.238  32.430  0.00  0.00    +0.085 C 
ENDROOT
BRANCH   8  15
ATOM      4  N   UNL     1      15.586  -6.370  30.094  0.00  0.00    -0.237 NA
ATOM      5  N   UNL     1      16.025  -7.418  27.969  0.00  0.00    -0.232 NA
ATOM     15  C   UNL     1      16.533  -5.455  29.796  0.00  0.00    +0.050 A 
ATOM     16  C   UNL     1      17.258  -5.457  28.622  0.00  0.00    +0.052 A 
ATOM     17  C   UNL     1      16.959  -6.471  27.736  0.00  0.00    +0.075 A 
ATOM     18  C   UNL     1      15.386  -7.308  29.150  0.00  0.00    +0.127 A 
ATOM     21  C   UNL     1      14.349  -8.338  29.443  0.00  0.00    +0.088 C 
BRANCH  17  20
ATOM     20  C   UNL     1      17.647  -6.586  26.472  0.00  0.00    +0.001 A 
ATOM     23  C   UNL     1      19.040  -6.555  26.432  0.00  0.00    +0.012 A 
ATOM     24  C   UNL     1      16.918  -6.728  25.292  0.00  0.00    +0.012 A 
ATOM     27  C   UNL     1      19.706  -6.666  25.211  0.00  0.00    +0.024 A 
ATOM     28  C   UNL     1      17.582  -6.840  24.071  0.00  0.00    +0.024 A 
ATOM     29  C   UNL     1      18.976  -6.808  24.031  0.00  0.00    +0.029 A 
BRANCH  29   6
ATOM      6  N   UNL     1      19.648  -6.921  22.795  0.00  0.00    -0.336 N 
ATOM     33  C   UNL     1      19.011  -6.477  21.570  0.00  0.00    +0.129 C 
ATOM     34  C   UNL     1      20.986  -7.474  22.736  0.00  0.00    +0.129 C 
ENDBRANCH  29   6
ENDBRANCH  17  20
ENDBRANCH   8  15
BRANCH   9  14
ATOM     14  C   UNL     1      19.240  -1.876  29.010  0.00  0.00    +0.123 C 
BRANCH  14   3
ATOM      1  O   UNL     1      20.382  -3.284  26.783  0.00  0.00    -0.270 OA
ATOM      3  N   UNL     1      18.617  -2.125  27.746  0.00  0.00    -0.310 N 
ATOM     19  C   UNL     1      19.246  -2.821  26.715  0.00  0.00    +0.244 C 
ATOM     35  H   UNL     1      17.700  -1.716  27.602  0.00  0.00    +0.149 HD
BRANCH  19  22
ATOM     22  C   UNL     1      18.474  -2.974  25.456  0.00  0.00    +0.037 A 
ATOM     25  C   UNL     1      17.081  -3.025  25.493  0.00  0.00    +0.013 A 
ATOM     26  C   UNL     1      19.144  -3.067  24.235  0.00  0.00    +0.013 A 
ATOM     30  C   UNL     1      16.356  -3.169  24.309  0.00  0.00    +0.001 A 
ATOM     31  C   UNL     1      18.419  -3.211  23.051  0.00  0.00    +0.001 A 
ATOM     32  C   UNL     1      17.025  -3.263  23.089  0.00  0.00    +0.000 A 
ENDBRANCH  19  22
ENDBRANCH  14   3
ENDBRANCH   9  14
TORSDOF 6
ENDMDL
