MODEL 1
REMARK VINA RESULT:      -7.2      0.000      0.000
REMARK  Name = 11912136
REMARK  7 active torsions:
REMARK  status: ('A' for Active; 'I' for Inactive)
REMARK    1  A    between atoms: S_1  and  N_6
REMARK    2  A    between atoms: S_1  and  C_24
REMARK    3  A    between atoms: N_7  and  C_17
REMARK    4  A    between atoms: C_10  and  C_13
REMARK    5  A    between atoms: C_13  and  C_17
REMARK    6  A    between atoms: C_17  and  C_23
REMARK    7  A    between atoms: C_18  and  C_21
REMARK                            x       y       z     vdW  Elec       q    Type
REMARK                         _______ _______ _______ _____ _____    ______ ____
ROOT
ATOM      2  O   UNL     1      15.347   9.154  20.094  0.00  0.00    -0.274 OA
ATOM      7  N   UNL     1      15.637   6.851  20.261  0.00  0.00    -0.303 N 
ATOM     21  C   UNL     1      14.907   8.026  20.301  0.00  0.00    +0.234 C 
ATOM     30  H   UNL     1      15.167   5.964  20.414  0.00  0.00    +0.149 HD
ENDROOT
BRANCH  21  18
ATOM      6  N   UNL     1      12.636   8.422  19.540  0.00  0.00    -0.162 NA
ATOM      8  N   UNL     1      11.726   8.333  22.278  0.00  0.00    -0.313 NA
ATOM     18  C   UNL     1      13.467   7.788  20.607  0.00  0.00    +0.179 C 
ATOM     19  C   UNL     1      13.152   8.422  21.964  0.00  0.00    +0.111 C 
ATOM     20  C   UNL     1      11.179   8.362  19.880  0.00  0.00    +0.125 C 
ATOM     22  C   UNL     1      10.935   8.999  21.243  0.00  0.00    +0.098 C 
ATOM     31  H   UNL     1      11.550   8.781  23.177  0.00  0.00    +0.122 HD
BRANCH   6   1
ATOM      1  S   UNL     1      12.985   7.980  17.911  0.00  0.00    +0.062 S 
ATOM      3  O   UNL     1      11.742   7.702  17.232  0.00  0.00    -0.153 OA
ATOM      4  O   UNL     1      14.070   7.026  17.917  0.00  0.00    -0.153 OA
BRANCH   1  24
ATOM     24  C   UNL     1      13.605   9.517  17.311  0.00  0.00    +0.106 A 
ATOM     25  C   UNL     1      14.276   9.569  16.089  0.00  0.00    +0.028 A 
ATOM     26  C   UNL     1      13.426  10.681  18.058  0.00  0.00    +0.028 A 
ATOM     27  C   UNL     1      14.768  10.786  15.614  0.00  0.00    +0.002 A 
ATOM     28  C   UNL     1      13.918  11.897  17.583  0.00  0.00    +0.002 A 
ATOM     29  C   UNL     1      14.589  11.950  16.362  0.00  0.00    +0.000 A 
ENDBRANCH   1  24
ENDBRANCH   6   1
ENDBRANCH  21  18
BRANCH   7  17
ATOM     17  C   UNL     1      17.051   6.807  19.962  0.00  0.00    +0.159 C 
BRANCH  17  23
ATOM      5  O   UNL     1      16.495   5.497  17.992  0.00  0.00    -0.274 OA
ATOM      9  N   UNL     1      18.481   5.072  19.066  0.00  0.00    -0.328 N 
ATOM     23  C   UNL     1      17.290   5.747  18.895  0.00  0.00    +0.231 C 
ATOM     32  H   UNL     1      18.757   4.335  18.426  0.00  0.00    +0.145 HD
ATOM     33  H   UNL     1      19.121   5.276  19.828  0.00  0.00    +0.145 HD
ENDBRANCH  17  23
BRANCH  17  13
ATOM     13  C   UNL     1      17.901   6.589  21.217  0.00  0.00    +0.035 C 
BRANCH  13  10
ATOM     10  C   UNL     1      19.012   7.621  21.408  0.00  0.00    -0.009 C 
ATOM     11  C   UNL     1      19.911   7.236  22.590  0.00  0.00    +0.003 C 
ATOM     12  C   UNL     1      18.420   9.024  21.606  0.00  0.00    +0.003 C 
ATOM     14  C   UNL     1      20.998   8.281  22.834  0.00  0.00    +0.000 C 
ATOM     15  C   UNL     1      19.509  10.065  21.852  0.00  0.00    +0.000 C 
ATOM     16  C   UNL     1      20.407   9.674  23.022  0.00  0.00    +0.000 C 
ENDBRANCH  13  10
ENDBRANCH  17  13
ENDBRANCH   7  17
TORSDOF 7
ENDMDL
MODEL 2
REMARK VINA RESULT:      -6.8      2.025      2.746
REMARK  Name = 11912136
REMARK  7 active torsions:
REMARK  status: ('A' for Active; 'I' for Inactive)
REMARK    1  A    between atoms: S_1  and  N_6
REMARK    2  A    between atoms: S_1  and  C_24
REMARK    3  A    between atoms: N_7  and  C_17
REMARK    4  A    between atoms: C_10  and  C_13
REMARK    5  A    between atoms: C_13  and  C_17
REMARK    6  A    between atoms: C_17  and  C_23
REMARK    7  A    between atoms: C_18  and  C_21
REMARK                            x       y       z     vdW  Elec       q    Type
REMARK                         _______ _______ _______ _____ _____    ______ ____
ROOT
ATOM      2  O   UNL     1      14.902   9.852  20.081  0.00  0.00    -0.274 OA
ATOM      7  N   UNL     1      15.949   8.318  21.483  0.00  0.00    -0.303 N 
ATOM     21  C   UNL     1      14.884   9.079  21.035  0.00  0.00    +0.234 C 
ATOM     30  H   UNL     1      15.819   7.681  22.263  0.00  0.00    +0.149 HD
ENDROOT
BRANCH  21  18
ATOM      6  N   UNL     1      12.552   8.413  20.917  0.00  0.00    -0.162 NA
ATOM      8  N   UNL     1      11.992  10.041  23.234  0.00  0.00    -0.313 NA
ATOM     18  C   UNL     1      13.647   8.847  21.837  0.00  0.00    +0.179 C 
ATOM     19  C   UNL     1      13.265  10.159  22.524  0.00  0.00    +0.111 C 
ATOM     20  C   UNL     1      11.242   8.327  21.637  0.00  0.00    +0.125 C 
ATOM     22  C   UNL     1      10.926   9.659  22.307  0.00  0.00    +0.098 C 
ATOM     31  H   UNL     1      11.760  10.936  23.663  0.00  0.00    +0.122 HD
BRANCH   6   1
ATOM      1  S   UNL     1      12.875   7.058  19.902  0.00  0.00    +0.062 S 
ATOM      3  O   UNL     1      11.717   6.195  19.903  0.00  0.00    -0.153 OA
ATOM      4  O   UNL     1      14.191   6.553  20.216  0.00  0.00    -0.153 OA
BRANCH   1  24
ATOM     24  C   UNL     1      12.953   7.867  18.338  0.00  0.00    +0.106 A 
ATOM     25  C   UNL     1      14.095   7.746  17.546  0.00  0.00    +0.028 A 
ATOM     26  C   UNL     1      11.873   8.630  17.893  0.00  0.00    +0.028 A 
ATOM     27  C   UNL     1      14.157   8.388  16.309  0.00  0.00    +0.002 A 
ATOM     28  C   UNL     1      11.935   9.271  16.656  0.00  0.00    +0.002 A 
ATOM     29  C   UNL     1      13.077   9.150  15.863  0.00  0.00    +0.000 A 
ENDBRANCH   1  24
ENDBRANCH   6   1
ENDBRANCH  21  18
BRANCH   7  17
ATOM     17  C   UNL     1      17.255   8.342  20.863  0.00  0.00    +0.159 C 
BRANCH  17  23
ATOM      5  O   UNL     1      18.542   6.291  21.064  0.00  0.00    -0.274 OA
ATOM      9  N   UNL     1      16.920   6.412  19.442  0.00  0.00    -0.328 N 
ATOM     23  C   UNL     1      17.649   6.917  20.498  0.00  0.00    +0.231 C 
ATOM     32  H   UNL     1      17.089   5.474  19.095  0.00  0.00    +0.145 HD
ATOM     33  H   UNL     1      16.197   6.948  18.971  0.00  0.00    +0.145 HD
ENDBRANCH  17  23
BRANCH  17  13
ATOM     13  C   UNL     1      18.299   9.041  21.739  0.00  0.00    +0.035 C 
BRANCH  13  10
ATOM     10  C   UNL     1      18.087  10.547  21.887  0.00  0.00    -0.009 C 
ATOM     11  C   UNL     1      18.162  11.242  20.521  0.00  0.00    +0.003 C 
ATOM     12  C   UNL     1      19.110  11.146  22.862  0.00  0.00    +0.003 C 
ATOM     14  C   UNL     1      18.006  12.755  20.649  0.00  0.00    +0.000 C 
ATOM     15  C   UNL     1      18.952  12.659  22.986  0.00  0.00    +0.000 C 
ATOM     16  C   UNL     1      19.018  13.345  21.625  0.00  0.00    +0.000 C 
ENDBRANCH  13  10
ENDBRANCH  17  13
ENDBRANCH   7  17
TORSDOF 7
ENDMDL
MODEL 3
REMARK VINA RESULT:      -6.8      2.088      2.696
REMARK  Name = 11912136
REMARK  7 active torsions:
REMARK  status: ('A' for Active; 'I' for Inactive)
REMARK    1  A    between atoms: S_1  and  N_6
REMARK    2  A    between atoms: S_1  and  C_24
REMARK    3  A    between atoms: N_7  and  C_17
REMARK    4  A    between atoms: C_10  and  C_13
REMARK    5  A    between atoms: C_13  and  C_17
REMARK    6  A    between atoms: C_17  and  C_23
REMARK    7  A    between atoms: C_18  and  C_21
REMARK                            x       y       z     vdW  Elec       q    Type
REMARK                         _______ _______ _______ _____ _____    ______ ____
ROOT
ATOM      2  O   UNL     1      14.990  10.312  20.013  0.00  0.00    -0.274 OA
ATOM      7  N   UNL     1      15.631   8.783  21.646  0.00  0.00    -0.303 N 
ATOM     21  C   UNL     1      14.819   9.759  21.096  0.00  0.00    +0.234 C 
ATOM     30  H   UNL     1      15.380   8.364  22.536  0.00  0.00    +0.149 HD
ENDROOT
BRANCH  21  18
ATOM      6  N   UNL     1      12.396   9.689  21.247  0.00  0.00    -0.162 NA
ATOM      8  N   UNL     1      12.461  11.988  22.991  0.00  0.00    -0.313 NA
ATOM     18  C   UNL     1      13.649  10.077  21.965  0.00  0.00    +0.179 C 
ATOM     19  C   UNL     1      13.649  11.582  22.242  0.00  0.00    +0.111 C 
ATOM     20  C   UNL     1      11.181  10.137  21.998  0.00  0.00    +0.125 C 
ATOM     22  C   UNL     1      11.248  11.639  22.251  0.00  0.00    +0.098 C 
ATOM     31  H   UNL     1      12.485  12.996  23.141  0.00  0.00    +0.122 HD
BRANCH   6   1
ATOM      1  S   UNL     1      12.296   8.067  20.673  0.00  0.00    +0.062 S 
ATOM      3  O   UNL     1      10.907   7.674  20.641  0.00  0.00    -0.153 OA
ATOM      4  O   UNL     1      13.288   7.274  21.361  0.00  0.00    -0.153 OA
BRANCH   1  24
ATOM     24  C   UNL     1      12.836   8.305  19.012  0.00  0.00    +0.106 A 
ATOM     25  C   UNL     1      13.791   7.451  18.459  0.00  0.00    +0.028 A 
ATOM     26  C   UNL     1      12.310   9.348  18.250  0.00  0.00    +0.028 A 
ATOM     27  C   UNL     1      14.219   7.640  17.145  0.00  0.00    +0.002 A 
ATOM     28  C   UNL     1      12.738   9.537  16.936  0.00  0.00    +0.002 A 
ATOM     29  C   UNL     1      13.692   8.683  16.383  0.00  0.00    +0.000 A 
ENDBRANCH   1  24
ENDBRANCH   6   1
ENDBRANCH  21  18
BRANCH   7  17
ATOM     17  C   UNL     1      16.818   8.280  20.992  0.00  0.00    +0.159 C 
BRANCH  17  23
ATOM      5  O   UNL     1      16.896   6.265  19.635  0.00  0.00    -0.274 OA
ATOM      9  N   UNL     1      16.091   6.111  21.780  0.00  0.00    -0.328 N 
ATOM     23  C   UNL     1      16.628   6.795  20.711  0.00  0.00    +0.231 C 
ATOM     32  H   UNL     1      15.906   5.115  21.721  0.00  0.00    +0.145 HD
ATOM     33  H   UNL     1      15.855   6.565  22.658  0.00  0.00    +0.145 HD
ENDBRANCH  17  23
BRANCH  17  13
ATOM     13  C   UNL     1      18.090   8.575  21.792  0.00  0.00    +0.035 C 
BRANCH  13  10
ATOM     10  C   UNL     1      19.291   7.716  21.400  0.00  0.00    -0.009 C 
ATOM     11  C   UNL     1      19.668   6.760  22.540  0.00  0.00    +0.003 C 
ATOM     12  C   UNL     1      20.484   8.599  21.010  0.00  0.00    +0.003 C 
ATOM     14  C   UNL     1      20.900   5.928  22.192  0.00  0.00    +0.000 C 
ATOM     15  C   UNL     1      21.715   7.763  20.665  0.00  0.00    +0.000 C 
ATOM     16  C   UNL     1      22.081   6.808  21.796  0.00  0.00    +0.000 C 
ENDBRANCH  13  10
ENDBRANCH  17  13
ENDBRANCH   7  17
TORSDOF 7
ENDMDL
MODEL 4
REMARK VINA RESULT:      -6.5      2.763      4.489
REMARK  Name = 11912136
REMARK  7 active torsions:
REMARK  status: ('A' for Active; 'I' for Inactive)
REMARK    1  A    between atoms: S_1  and  N_6
REMARK    2  A    between atoms: S_1  and  C_24
REMARK    3  A    between atoms: N_7  and  C_17
REMARK    4  A    between atoms: C_10  and  C_13
REMARK    5  A    between atoms: C_13  and  C_17
REMARK    6  A    between atoms: C_17  and  C_23
REMARK    7  A    between atoms: C_18  and  C_21
REMARK                            x       y       z     vdW  Elec       q    Type
REMARK                         _______ _______ _______ _____ _____    ______ ____
ROOT
ATOM      2  O   UNL     1      14.053   9.788  18.973  0.00  0.00    -0.274 OA
ATOM      7  N   UNL     1      14.340   7.911  20.319  0.00  0.00    -0.303 N 
ATOM     21  C   UNL     1      13.627   8.969  19.783  0.00  0.00    +0.234 C 
ATOM     30  H   UNL     1      13.882   7.269  20.957  0.00  0.00    +0.149 HD
ENDROOT
BRANCH  21  18
ATOM      6  N   UNL     1      12.199   9.718  21.599  0.00  0.00    -0.162 NA
ATOM      8  N   UNL     1      10.392   7.535  21.049  0.00  0.00    -0.313 NA
ATOM     18  C   UNL     1      12.222   9.013  20.282  0.00  0.00    +0.179 C 
ATOM     19  C   UNL     1      11.725   7.575  20.449  0.00  0.00    +0.111 C 
ATOM     20  C   UNL     1      10.844   9.646  22.229  0.00  0.00    +0.125 C 
ATOM     22  C   UNL     1      10.404   8.192  22.356  0.00  0.00    +0.098 C 
ATOM     31  H   UNL     1      10.102   6.565  21.162  0.00  0.00    +0.122 HD
BRANCH   6   1
ATOM      1  S   UNL     1      12.907  11.289  21.656  0.00  0.00    +0.062 S 
ATOM      3  O   UNL     1      12.537  12.005  20.458  0.00  0.00    -0.153 OA
ATOM      4  O   UNL     1      14.288  11.156  22.059  0.00  0.00    -0.153 OA
BRANCH   1  24
ATOM     24  C   UNL     1      12.003  11.975  23.005  0.00  0.00    +0.106 A 
ATOM     25  C   UNL     1      12.360  11.660  24.316  0.00  0.00    +0.028 A 
ATOM     26  C   UNL     1      10.929  12.831  22.761  0.00  0.00    +0.028 A 
ATOM     27  C   UNL     1      11.644  12.202  25.384  0.00  0.00    +0.002 A 
ATOM     28  C   UNL     1      10.213  13.373  23.829  0.00  0.00    +0.002 A 
ATOM     29  C   UNL     1      10.570  13.059  25.140  0.00  0.00    +0.000 A 
ENDBRANCH   1  24
ENDBRANCH   6   1
ENDBRANCH  21  18
BRANCH   7  17
ATOM     17  C   UNL     1      15.718   7.633  19.979  0.00  0.00    +0.159 C 
BRANCH  17  23
ATOM      5  O   UNL     1      14.967   6.804  17.822  0.00  0.00    -0.274 OA
ATOM      9  N   UNL     1      16.715   5.733  18.860  0.00  0.00    -0.328 N 
ATOM     23  C   UNL     1      15.745   6.710  18.769  0.00  0.00    +0.231 C 
ATOM     32  H   UNL     1      16.833   5.047  18.122  0.00  0.00    +0.145 HD
ATOM     33  H   UNL     1      17.339   5.655  19.657  0.00  0.00    +0.145 HD
ENDBRANCH  17  23
BRANCH  17  13
ATOM     13  C   UNL     1      16.507   7.078  21.168  0.00  0.00    +0.035 C 
BRANCH  13  10
ATOM     10  C   UNL     1      17.667   7.963  21.621  0.00  0.00    -0.009 C 
ATOM     11  C   UNL     1      17.488   9.396  21.101  0.00  0.00    +0.003 C 
ATOM     12  C   UNL     1      19.008   7.377  21.159  0.00  0.00    +0.003 C 
ATOM     14  C   UNL     1      18.663  10.288  21.495  0.00  0.00    +0.000 C 
ATOM     15  C   UNL     1      20.180   8.274  21.553  0.00  0.00    +0.000 C 
ATOM     16  C   UNL     1      19.994   9.699  21.043  0.00  0.00    +0.000 C 
ENDBRANCH  13  10
ENDBRANCH  17  13
ENDBRANCH   7  17
TORSDOF 7
ENDMDL
MODEL 5
REMARK VINA RESULT:      -6.5     27.245     30.094
REMARK  Name = 11912136
REMARK  7 active torsions:
REMARK  status: ('A' for Active; 'I' for Inactive)
REMARK    1  A    between atoms: S_1  and  N_6
REMARK    2  A    between atoms: S_1  and  C_24
REMARK    3  A    between atoms: N_7  and  C_17
REMARK    4  A    between atoms: C_10  and  C_13
REMARK    5  A    between atoms: C_13  and  C_17
REMARK    6  A    between atoms: C_17  and  C_23
REMARK    7  A    between atoms: C_18  and  C_21
REMARK                            x       y       z     vdW  Elec       q    Type
REMARK                         _______ _______ _______ _____ _____    ______ ____
ROOT
ATOM      2  O   UNL     1      -7.515 -13.349  16.836  0.00  0.00    -0.274 OA
ATOM      7  N   UNL     1      -6.640 -11.540  18.010  0.00  0.00    -0.303 N 
ATOM     21  C   UNL     1      -7.646 -12.398  17.602  0.00  0.00    +0.234 C 
ATOM     30  H   UNL     1      -6.848 -10.803  18.676  0.00  0.00    +0.149 HD
ENDROOT
BRANCH  21  18
ATOM      6  N   UNL     1      -9.356 -10.685  17.804  0.00  0.00    -0.162 NA
ATOM      8  N   UNL     1     -10.021 -11.690  20.427  0.00  0.00    -0.313 NA
ATOM     18  C   UNL     1      -8.961 -12.064  18.224  0.00  0.00    +0.179 C 
ATOM     19  C   UNL     1      -8.802 -12.123  19.745  0.00  0.00    +0.111 C 
ATOM     20  C   UNL     1     -10.583 -10.229  18.530  0.00  0.00    +0.125 C 
ATOM     22  C   UNL     1     -10.364 -10.323  20.035  0.00  0.00    +0.098 C 
ATOM     31  H   UNL     1      -9.873 -11.724  21.435  0.00  0.00    +0.122 HD
BRANCH   6   1
ATOM      1  S   UNL     1      -9.394 -10.365  16.111  0.00  0.00    +0.062 S 
ATOM      3  O   UNL     1     -10.053 -11.465  15.448  0.00  0.00    -0.153 OA
ATOM      4  O   UNL     1      -8.085  -9.912  15.700  0.00  0.00    -0.153 OA
BRANCH   1  24
ATOM     24  C   UNL     1     -10.486  -8.982  16.093  0.00  0.00    +0.106 A 
ATOM     25  C   UNL     1     -10.012  -7.713  16.425  0.00  0.00    +0.028 A 
ATOM     26  C   UNL     1     -11.827  -9.156  15.747  0.00  0.00    +0.028 A 
ATOM     27  C   UNL     1     -10.876  -6.618  16.411  0.00  0.00    +0.002 A 
ATOM     28  C   UNL     1     -12.691  -8.061  15.734  0.00  0.00    +0.002 A 
ATOM     29  C   UNL     1     -12.217  -6.793  16.066  0.00  0.00    +0.000 A 
ENDBRANCH   1  24
ENDBRANCH   6   1
ENDBRANCH  21  18
BRANCH   7  17
ATOM     17  C   UNL     1      -5.268 -11.662  17.569  0.00  0.00    +0.159 C 
BRANCH  17  23
ATOM      5  O   UNL     1      -3.976 -12.188  19.559  0.00  0.00    -0.274 OA
ATOM      9  N   UNL     1      -4.508 -13.894  18.116  0.00  0.00    -0.328 N 
ATOM     23  C   UNL     1      -4.527 -12.580  18.533  0.00  0.00    +0.231 C 
ATOM     32  H   UNL     1      -4.039 -14.607  18.664  0.00  0.00    +0.145 HD
ATOM     33  H   UNL     1      -4.951 -14.201  17.255  0.00  0.00    +0.145 HD
ENDBRANCH  17  23
BRANCH  17  13
ATOM     13  C   UNL     1      -4.589 -10.300  17.405  0.00  0.00    +0.035 C 
BRANCH  13  10
ATOM     10  C   UNL     1      -3.817 -10.139  16.096  0.00  0.00    -0.009 C 
ATOM     11  C   UNL     1      -4.540 -10.856  14.949  0.00  0.00    +0.003 C 
ATOM     12  C   UNL     1      -2.380 -10.659  16.247  0.00  0.00    +0.003 C 
ATOM     14  C   UNL     1      -3.759 -10.754  13.640  0.00  0.00    +0.000 C 
ATOM     15  C   UNL     1      -1.604 -10.557  14.936  0.00  0.00    +0.000 C 
ATOM     16  C   UNL     1      -2.330 -11.263  13.796  0.00  0.00    +0.000 C 
ENDBRANCH  13  10
ENDBRANCH  17  13
ENDBRANCH   7  17
TORSDOF 7
ENDMDL
MODEL 6
REMARK VINA RESULT:      -6.5     27.548     30.770
REMARK  Name = 11912136
REMARK  7 active torsions:
REMARK  status: ('A' for Active; 'I' for Inactive)
REMARK    1  A    between atoms: S_1  and  N_6
REMARK    2  A    between atoms: S_1  and  C_24
REMARK    3  A    between atoms: N_7  and  C_17
REMARK    4  A    between atoms: C_10  and  C_13
REMARK    5  A    between atoms: C_13  and  C_17
REMARK    6  A    between atoms: C_17  and  C_23
REMARK    7  A    between atoms: C_18  and  C_21
REMARK                            x       y       z     vdW  Elec       q    Type
REMARK                         _______ _______ _______ _____ _____    ______ ____
ROOT
ATOM      2  O   UNL     1      -7.682 -10.573  19.788  0.00  0.00    -0.274 OA
ATOM      7  N   UNL     1      -9.032 -11.056  17.955  0.00  0.00    -0.303 N 
ATOM     21  C   UNL     1      -7.923 -11.213  18.768  0.00  0.00    +0.234 C 
ATOM     30  H   UNL     1      -9.154 -11.663  17.150  0.00  0.00    +0.149 HD
ENDROOT
BRANCH  21  18
ATOM      6  N   UNL     1      -6.365 -11.849  17.017  0.00  0.00    -0.162 NA
ATOM      8  N   UNL     1      -7.056 -14.620  17.439  0.00  0.00    -0.313 NA
ATOM     18  C   UNL     1      -7.017 -12.295  18.285  0.00  0.00    +0.179 C 
ATOM     19  C   UNL     1      -7.858 -13.548  18.029  0.00  0.00    +0.111 C 
ATOM     20  C   UNL     1      -5.574 -12.957  16.395  0.00  0.00    +0.125 C 
ATOM     22  C   UNL     1      -6.464 -14.175  16.177  0.00  0.00    +0.098 C 
ATOM     31  H   UNL     1      -7.650 -15.429  17.266  0.00  0.00    +0.122 HD
BRANCH   6   1
ATOM      1  S   UNL     1      -5.532 -10.341  17.056  0.00  0.00    +0.062 S 
ATOM      3  O   UNL     1      -4.705 -10.301  18.238  0.00  0.00    -0.153 OA
ATOM      4  O   UNL     1      -6.475  -9.287  16.761  0.00  0.00    -0.153 OA
BRANCH   1  24
ATOM     24  C   UNL     1      -4.479 -10.545  15.657  0.00  0.00    +0.106 A 
ATOM     25  C   UNL     1      -3.107 -10.728  15.837  0.00  0.00    +0.028 A 
ATOM     26  C   UNL     1      -5.016 -10.524  14.370  0.00  0.00    +0.028 A 
ATOM     27  C   UNL     1      -2.273 -10.889  14.730  0.00  0.00    +0.002 A 
ATOM     28  C   UNL     1      -4.182 -10.685  13.263  0.00  0.00    +0.002 A 
ATOM     29  C   UNL     1      -2.811 -10.867  13.443  0.00  0.00    +0.000 A 
ENDBRANCH   1  24
ENDBRANCH   6   1
ENDBRANCH  21  18
BRANCH   7  17
ATOM     17  C   UNL     1     -10.074 -10.089  18.216  0.00  0.00    +0.159 C 
BRANCH  17  23
ATOM      5  O   UNL     1     -11.855 -11.387  19.240  0.00  0.00    -0.274 OA
ATOM      9  N   UNL     1     -10.572 -10.036  20.584  0.00  0.00    -0.328 N 
ATOM     23  C   UNL     1     -10.927 -10.592  19.373  0.00  0.00    +0.231 C 
ATOM     32  H   UNL     1     -11.068 -10.281  21.434  0.00  0.00    +0.145 HD
ATOM     33  H   UNL     1      -9.815  -9.365  20.677  0.00  0.00    +0.145 HD
ENDBRANCH  17  23
BRANCH  17  13
ATOM     13  C   UNL     1     -10.898  -9.773  16.964  0.00  0.00    +0.035 C 
BRANCH  13  10
ATOM     10  C   UNL     1     -11.192  -8.287  16.767  0.00  0.00    -0.009 C 
ATOM     11  C   UNL     1     -12.610  -8.084  16.216  0.00  0.00    +0.003 C 
ATOM     12  C   UNL     1     -10.149  -7.646  15.840  0.00  0.00    +0.003 C 
ATOM     14  C   UNL     1     -12.909  -6.609  15.959  0.00  0.00    +0.000 C 
ATOM     15  C   UNL     1     -10.453  -6.171  15.585  0.00  0.00    +0.000 C 
ATOM     16  C   UNL     1     -11.867  -5.973  15.046  0.00  0.00    +0.000 C 
ENDBRANCH  13  10
ENDBRANCH  17  13
ENDBRANCH   7  17
TORSDOF 7
ENDMDL
MODEL 7
REMARK VINA RESULT:      -6.4      2.884      6.349
REMARK  Name = 11912136
REMARK  7 active torsions:
REMARK  status: ('A' for Active; 'I' for Inactive)
REMARK    1  A    between atoms: S_1  and  N_6
REMARK    2  A    between atoms: S_1  and  C_24
REMARK    3  A    between atoms: N_7  and  C_17
REMARK    4  A    between atoms: C_10  and  C_13
REMARK    5  A    between atoms: C_13  and  C_17
REMARK    6  A    between atoms: C_17  and  C_23
REMARK    7  A    between atoms: C_18  and  C_21
REMARK                            x       y       z     vdW  Elec       q    Type
REMARK                         _______ _______ _______ _____ _____    ______ ____
ROOT
ATOM      2  O   UNL     1      14.192  10.202  21.009  0.00  0.00    -0.274 OA
ATOM      7  N   UNL     1      11.897   9.842  20.876  0.00  0.00    -0.303 N 
ATOM     21  C   UNL     1      13.135  10.213  20.383  0.00  0.00    +0.234 C 
ATOM     30  H   UNL     1      11.088   9.855  20.262  0.00  0.00    +0.149 HD
ENDROOT
BRANCH  21  18
ATOM      6  N   UNL     1      13.921   9.691  18.146  0.00  0.00    -0.162 NA
ATOM      8  N   UNL     1      13.695  12.481  17.439  0.00  0.00    -0.313 NA
ATOM     18  C   UNL     1      13.074  10.623  18.950  0.00  0.00    +0.179 C 
ATOM     19  C   UNL     1      13.612  12.051  18.835  0.00  0.00    +0.111 C 
ATOM     20  C   UNL     1      14.034  10.151  16.726  0.00  0.00    +0.125 C 
ATOM     22  C   UNL     1      14.563  11.580  16.681  0.00  0.00    +0.098 C 
ATOM     31  H   UNL     1      14.074  13.426  17.399  0.00  0.00    +0.122 HD
BRANCH   6   1
ATOM      1  S   UNL     1      13.594   8.006  18.304  0.00  0.00    +0.062 S 
ATOM      3  O   UNL     1      13.890   7.359  17.048  0.00  0.00    -0.153 OA
ATOM      4  O   UNL     1      12.312   7.846  18.950  0.00  0.00    -0.153 OA
BRANCH   1  24
ATOM     24  C   UNL     1      14.851   7.565  19.457  0.00  0.00    +0.106 A 
ATOM     25  C   UNL     1      16.098   8.189  19.404  0.00  0.00    +0.028 A 
ATOM     26  C   UNL     1      14.601   6.590  20.423  0.00  0.00    +0.028 A 
ATOM     27  C   UNL     1      17.093   7.839  20.316  0.00  0.00    +0.002 A 
ATOM     28  C   UNL     1      15.596   6.240  21.336  0.00  0.00    +0.002 A 
ATOM     29  C   UNL     1      16.843   6.864  21.283  0.00  0.00    +0.000 A 
ENDBRANCH   1  24
ENDBRANCH   6   1
ENDBRANCH  21  18
BRANCH   7  17
ATOM     17  C   UNL     1      11.689   9.382  22.231  0.00  0.00    +0.159 C 
BRANCH  17  23
ATOM      5  O   UNL     1      11.835   6.971  21.967  0.00  0.00    -0.274 OA
ATOM      9  N   UNL     1       9.778   7.906  22.381  0.00  0.00    -0.328 N 
ATOM     23  C   UNL     1      11.141   7.962  22.185  0.00  0.00    +0.231 C 
ATOM     32  H   UNL     1       9.287   7.018  22.366  0.00  0.00    +0.145 HD
ATOM     33  H   UNL     1       9.213   8.735  22.541  0.00  0.00    +0.145 HD
ENDBRANCH  17  23
BRANCH  17  13
ATOM     13  C   UNL     1      10.802  10.335  23.037  0.00  0.00    +0.035 C 
BRANCH  13  10
ATOM     10  C   UNL     1      11.407  11.721  23.256  0.00  0.00    -0.009 C 
ATOM     11  C   UNL     1      12.781  11.610  23.931  0.00  0.00    +0.003 C 
ATOM     12  C   UNL     1      10.461  12.601  24.084  0.00  0.00    +0.003 C 
ATOM     14  C   UNL     1      13.384  12.986  24.209  0.00  0.00    +0.000 C 
ATOM     15  C   UNL     1      11.068  13.974  24.362  0.00  0.00    +0.000 C 
ATOM     16  C   UNL     1      12.437  13.860  25.024  0.00  0.00    +0.000 C 
ENDBRANCH  13  10
ENDBRANCH  17  13
ENDBRANCH   7  17
TORSDOF 7
ENDMDL
MODEL 8
REMARK VINA RESULT:      -6.4     26.438     29.467
REMARK  Name = 11912136
REMARK  7 active torsions:
REMARK  status: ('A' for Active; 'I' for Inactive)
REMARK    1  A    between atoms: S_1  and  N_6
REMARK    2  A    between atoms: S_1  and  C_24
REMARK    3  A    between atoms: N_7  and  C_17
REMARK    4  A    between atoms: C_10  and  C_13
REMARK    5  A    between atoms: C_13  and  C_17
REMARK    6  A    between atoms: C_17  and  C_23
REMARK    7  A    between atoms: C_18  and  C_21
REMARK                            x       y       z     vdW  Elec       q    Type
REMARK                         _______ _______ _______ _____ _____    ______ ____
ROOT
ATOM      2  O   UNL     1      -4.995 -13.369  15.402  0.00  0.00    -0.274 OA
ATOM      7  N   UNL     1      -4.059 -11.303  15.921  0.00  0.00    -0.303 N 
ATOM     21  C   UNL     1      -4.874 -12.399  16.144  0.00  0.00    +0.234 C 
ATOM     30  H   UNL     1      -4.004 -10.567  16.618  0.00  0.00    +0.149 HD
ENDROOT
BRANCH  21  18
ATOM      6  N   UNL     1      -6.629 -11.217  17.336  0.00  0.00    -0.162 NA
ATOM      8  N   UNL     1      -5.261 -11.740  19.824  0.00  0.00    -0.313 NA
ATOM     18  C   UNL     1      -5.607 -12.303  17.440  0.00  0.00    +0.179 C 
ATOM     19  C   UNL     1      -4.598 -11.968  18.541  0.00  0.00    +0.111 C 
ATOM     20  C   UNL     1      -7.281 -10.959  18.659  0.00  0.00    +0.125 C 
ATOM     22  C   UNL     1      -6.224 -10.645  19.710  0.00  0.00    +0.098 C 
ATOM     31  H   UNL     1      -4.562 -11.502  20.527  0.00  0.00    +0.122 HD
BRANCH   6   1
ATOM      1  S   UNL     1      -7.740 -11.314  16.023  0.00  0.00    +0.062 S 
ATOM      3  O   UNL     1      -8.287 -12.650  15.978  0.00  0.00    -0.153 OA
ATOM      4  O   UNL     1      -7.132 -10.710  14.860  0.00  0.00    -0.153 OA
BRANCH   1  24
ATOM     24  C   UNL     1      -8.997 -10.228  16.614  0.00  0.00    +0.106 A 
ATOM     25  C   UNL     1     -10.247 -10.735  16.969  0.00  0.00    +0.028 A 
ATOM     26  C   UNL     1      -8.741  -8.861  16.726  0.00  0.00    +0.028 A 
ATOM     27  C   UNL     1     -11.242  -9.876  17.436  0.00  0.00    +0.002 A 
ATOM     28  C   UNL     1      -9.736  -8.002  17.194  0.00  0.00    +0.002 A 
ATOM     29  C   UNL     1     -10.986  -8.509  17.549  0.00  0.00    +0.000 A 
ENDBRANCH   1  24
ENDBRANCH   6   1
ENDBRANCH  21  18
BRANCH   7  17
ATOM     17  C   UNL     1      -3.225 -11.164  14.748  0.00  0.00    +0.159 C 
BRANCH  17  23
ATOM      5  O   UNL     1      -1.265  -9.751  14.487  0.00  0.00    -0.274 OA
ATOM      9  N   UNL     1      -1.438 -11.047  16.376  0.00  0.00    -0.328 N 
ATOM     23  C   UNL     1      -1.890 -10.562  15.167  0.00  0.00    +0.231 C 
ATOM     32  H   UNL     1      -0.556 -10.732  16.766  0.00  0.00    +0.145 HD
ATOM     33  H   UNL     1      -1.956 -11.731  16.919  0.00  0.00    +0.145 HD
ENDBRANCH  17  23
BRANCH  17  13
ATOM     13  C   UNL     1      -3.915 -10.365  13.639  0.00  0.00    +0.035 C 
BRANCH  13  10
ATOM     10  C   UNL     1      -3.520 -10.786  12.224  0.00  0.00    -0.009 C 
ATOM     11  C   UNL     1      -4.049  -9.781  11.192  0.00  0.00    +0.003 C 
ATOM     12  C   UNL     1      -4.027 -12.202  11.919  0.00  0.00    +0.003 C 
ATOM     14  C   UNL     1      -3.712 -10.210   9.766  0.00  0.00    +0.000 C 
ATOM     15  C   UNL     1      -3.691 -12.625  10.491  0.00  0.00    +0.000 C 
ATOM     16  C   UNL     1      -4.210 -11.619   9.469  0.00  0.00    +0.000 C 
ENDBRANCH  13  10
ENDBRANCH  17  13
ENDBRANCH   7  17
TORSDOF 7
ENDMDL
MODEL 9
REMARK VINA RESULT:      -6.3     26.462     29.521
REMARK  Name = 11912136
REMARK  7 active torsions:
REMARK  status: ('A' for Active; 'I' for Inactive)
REMARK    1  A    between atoms: S_1  and  N_6
REMARK    2  A    between atoms: S_1  and  C_24
REMARK    3  A    between atoms: N_7  and  C_17
REMARK    4  A    between atoms: C_10  and  C_13
REMARK    5  A    between atoms: C_13  and  C_17
REMARK    6  A    between atoms: C_17  and  C_23
REMARK    7  A    between atoms: C_18  and  C_21
REMARK                            x       y       z     vdW  Elec       q    Type
REMARK                         _______ _______ _______ _____ _____    ______ ____
ROOT
ATOM      2  O   UNL     1      -5.130 -12.209  14.257  0.00  0.00    -0.274 OA
ATOM      7  N   UNL     1      -3.801 -10.373  14.786  0.00  0.00    -0.303 N 
ATOM     21  C   UNL     1      -4.999 -11.050  14.642  0.00  0.00    +0.234 C 
ATOM     30  H   UNL     1      -3.801  -9.424  15.147  0.00  0.00    +0.149 HD
ENDROOT
BRANCH  21  18
ATOM      6  N   UNL     1      -6.929 -10.931  16.111  0.00  0.00    -0.162 NA
ATOM      8  N   UNL     1      -8.293  -9.309  14.150  0.00  0.00    -0.313 NA
ATOM     18  C   UNL     1      -6.171 -10.216  15.040  0.00  0.00    +0.179 C 
ATOM     19  C   UNL     1      -7.060 -10.019  13.810  0.00  0.00    +0.111 C 
ATOM     20  C   UNL     1      -8.209 -10.223  16.432  0.00  0.00    +0.125 C 
ATOM     22  C   UNL     1      -9.041 -10.048  15.168  0.00  0.00    +0.098 C 
ATOM     31  H   UNL     1      -8.868  -9.212  13.314  0.00  0.00    +0.122 HD
BRANCH   6   1
ATOM      1  S   UNL     1      -6.040 -11.421  17.503  0.00  0.00    +0.062 S 
ATOM      3  O   UNL     1      -5.901 -10.286  18.385  0.00  0.00    -0.153 OA
ATOM      4  O   UNL     1      -4.892 -12.184  17.070  0.00  0.00    -0.153 OA
BRANCH   1  24
ATOM     24  C   UNL     1      -7.202 -12.534  18.223  0.00  0.00    +0.106 A 
ATOM     25  C   UNL     1      -7.663 -13.630  17.493  0.00  0.00    +0.028 A 
ATOM     26  C   UNL     1      -7.662 -12.318  19.522  0.00  0.00    +0.028 A 
ATOM     27  C   UNL     1      -8.583 -14.511  18.063  0.00  0.00    +0.002 A 
ATOM     28  C   UNL     1      -8.582 -13.199  20.091  0.00  0.00    +0.002 A 
ATOM     29  C   UNL     1      -9.043 -14.295  19.362  0.00  0.00    +0.000 A 
ENDBRANCH   1  24
ENDBRANCH   6   1
ENDBRANCH  21  18
BRANCH   7  17
ATOM     17  C   UNL     1      -2.516 -10.966  14.490  0.00  0.00    +0.159 C 
BRANCH  17  23
ATOM      5  O   UNL     1      -0.544  -9.967  15.498  0.00  0.00    -0.274 OA
ATOM      9  N   UNL     1      -1.927 -11.237  16.821  0.00  0.00    -0.328 N 
ATOM     23  C   UNL     1      -1.558 -10.649  15.630  0.00  0.00    +0.231 C 
ATOM     32  H   UNL     1      -1.368 -11.111  17.658  0.00  0.00    +0.145 HD
ATOM     33  H   UNL     1      -2.757 -11.815  16.912  0.00  0.00    +0.145 HD
ENDBRANCH  17  23
BRANCH  17  13
ATOM     13  C   UNL     1      -1.979 -10.531  13.123  0.00  0.00    +0.035 C 
BRANCH  13  10
ATOM     10  C   UNL     1      -3.044 -10.433  12.033  0.00  0.00    -0.009 C 
ATOM     11  C   UNL     1      -3.315 -11.812  11.415  0.00  0.00    +0.003 C 
ATOM     12  C   UNL     1      -2.626  -9.424  10.955  0.00  0.00    +0.003 C 
ATOM     14  C   UNL     1      -4.339 -11.731  10.285  0.00  0.00    +0.000 C 
ATOM     15  C   UNL     1      -3.651  -9.347   9.826  0.00  0.00    +0.000 C 
ATOM     16  C   UNL     1      -3.924 -10.721   9.221  0.00  0.00    +0.000 C 
ENDBRANCH  13  10
ENDBRANCH  17  13
ENDBRANCH   7  17
TORSDOF 7
ENDMDL
MODEL 10
REMARK VINA RESULT:      -6.3     27.306     29.403
REMARK  Name = 11912136
REMARK  7 active torsions:
REMARK  status: ('A' for Active; 'I' for Inactive)
REMARK    1  A    between atoms: S_1  and  N_6
REMARK    2  A    between atoms: S_1  and  C_24
REMARK    3  A    between atoms: N_7  and  C_17
REMARK    4  A    between atoms: C_10  and  C_13
REMARK    5  A    between atoms: C_13  and  C_17
REMARK    6  A    between atoms: C_17  and  C_23
REMARK    7  A    between atoms: C_18  and  C_21
REMARK                            x       y       z     vdW  Elec       q    Type
REMARK                         _______ _______ _______ _____ _____    ______ ____
ROOT
ATOM      2  O   UNL     1      -5.915 -11.701  12.392  0.00  0.00    -0.274 OA
ATOM      7  N   UNL     1      -4.175 -10.310  13.065  0.00  0.00    -0.303 N 
ATOM     21  C   UNL     1      -5.488 -10.746  13.036  0.00  0.00    +0.234 C 
ATOM     30  H   UNL     1      -3.919  -9.528  13.660  0.00  0.00    +0.149 HD
ENDROOT
BRANCH  21  18
ATOM      6  N   UNL     1      -6.596 -10.670  15.195  0.00  0.00    -0.162 NA
ATOM      8  N   UNL     1      -8.674  -9.028  14.047  0.00  0.00    -0.313 NA
ATOM     18  C   UNL     1      -6.374  -9.930  13.916  0.00  0.00    +0.179 C 
ATOM     19  C   UNL     1      -7.707  -9.720  13.195  0.00  0.00    +0.111 C 
ATOM     20  C   UNL     1      -7.612  -9.981  16.051  0.00  0.00    +0.125 C 
ATOM     22  C   UNL     1      -8.908  -9.792  15.273  0.00  0.00    +0.098 C 
ATOM     31  H   UNL     1      -9.553  -8.922  13.543  0.00  0.00    +0.122 HD
BRANCH   6   1
ATOM      1  S   UNL     1      -5.192 -11.176  16.058  0.00  0.00    +0.062 S 
ATOM      3  O   UNL     1      -4.338 -10.030  16.263  0.00  0.00    -0.153 OA
ATOM      4  O   UNL     1      -4.693 -12.388  15.452  0.00  0.00    -0.153 OA
BRANCH   1  24
ATOM     24  C   UNL     1      -5.927 -11.595  17.604  0.00  0.00    +0.106 A 
ATOM     25  C   UNL     1      -6.857 -12.632  17.677  0.00  0.00    +0.028 A 
ATOM     26  C   UNL     1      -5.579 -10.888  18.756  0.00  0.00    +0.028 A 
ATOM     27  C   UNL     1      -7.439 -12.964  18.901  0.00  0.00    +0.002 A 
ATOM     28  C   UNL     1      -6.162 -11.219  19.980  0.00  0.00    +0.002 A 
ATOM     29  C   UNL     1      -7.091 -12.257  20.053  0.00  0.00    +0.000 A 
ENDBRANCH   1  24
ENDBRANCH   6   1
ENDBRANCH  21  18
BRANCH   7  17
ATOM     17  C   UNL     1      -3.113 -10.945  12.317  0.00  0.00    +0.159 C 
BRANCH  17  23
ATOM      5  O   UNL     1      -1.508 -12.582  13.122  0.00  0.00    -0.274 OA
ATOM      9  N   UNL     1      -1.945 -10.743  14.427  0.00  0.00    -0.328 N 
ATOM     23  C   UNL     1      -2.102 -11.521  13.299  0.00  0.00    +0.231 C 
ATOM     32  H   UNL     1      -1.306 -11.019  15.164  0.00  0.00    +0.145 HD
ATOM     33  H   UNL     1      -2.457  -9.877  14.569  0.00  0.00    +0.145 HD
ENDBRANCH  17  23
BRANCH  17  13
ATOM     13  C   UNL     1      -2.477  -9.998  11.296  0.00  0.00    +0.035 C 
BRANCH  13  10
ATOM     10  C   UNL     1      -3.334  -9.744  10.056  0.00  0.00    -0.009 C 
ATOM     11  C   UNL     1      -4.390  -8.668  10.339  0.00  0.00    +0.003 C 
ATOM     12  C   UNL     1      -3.994 -11.045   9.579  0.00  0.00    +0.003 C 
ATOM     14  C   UNL     1      -5.294  -8.435   9.131  0.00  0.00    +0.000 C 
ATOM     15  C   UNL     1      -4.899 -10.808   8.372  0.00  0.00    +0.000 C 
ATOM     16  C   UNL     1      -5.941  -9.730   8.654  0.00  0.00    +0.000 C 
ENDBRANCH  13  10
ENDBRANCH  17  13
ENDBRANCH   7  17
TORSDOF 7
ENDMDL
