MODEL 1
REMARK VINA RESULT:      -6.5      0.000      0.000
REMARK  Name = 75536857
REMARK  5 active torsions:
REMARK  status: ('A' for Active; 'I' for Inactive)
REMARK    1  A    between atoms: S_1  and  N_10
REMARK    2  A    between atoms: S_1  and  C_17
REMARK    3  A    between atoms: O_7  and  C_13
REMARK    4  A    between atoms: O_7  and  C_20
REMARK    5  A    between atoms: C_26  and  C_28
REMARK                            x       y       z     vdW  Elec       q    Type
REMARK                         _______ _______ _______ _____ _____    ______ ____
ROOT
ATOM      6  O   UNL     1     -10.410  -8.978  15.267  0.00  0.00    -0.375 OA
ATOM     10  N   UNL     1      -9.156 -10.533  17.590  0.00  0.00    -0.171 NA
ATOM     12  C   UNL     1      -8.754 -11.115  16.275  0.00  0.00    +0.156 C 
ATOM     13  C   UNL     1      -8.142 -10.023  15.400  0.00  0.00    +0.216 C 
ATOM     14  C   UNL     1     -10.424  -9.744  17.547  0.00  0.00    +0.137 C 
ATOM     15  C   UNL     1      -9.172  -9.213  14.610  0.00  0.00    +0.205 C 
ATOM     16  C   UNL     1     -10.301  -8.545  16.618  0.00  0.00    +0.177 C 
ENDROOT
BRANCH  10   1
ATOM      1  S   UNL     1      -9.011 -11.592  18.935  0.00  0.00    +0.061 S 
ATOM      8  O   UNL     1      -9.538 -12.887  18.569  0.00  0.00    -0.153 OA
ATOM      9  O   UNL     1      -9.470 -10.904  20.121  0.00  0.00    -0.153 OA
BRANCH   1  17
ATOM      2  F   UNL     1      -3.143 -12.041  19.240  0.00  0.00    -0.205 F 
ATOM     17  C   UNL     1      -7.254 -11.726  19.027  0.00  0.00    +0.106 A 
ATOM     18  C   UNL     1      -6.519 -10.783  19.747  0.00  0.00    +0.031 A 
ATOM     19  C   UNL     1      -6.601 -12.774  18.380  0.00  0.00    +0.031 A 
ATOM     21  C   UNL     1      -5.130 -10.890  19.818  0.00  0.00    +0.040 A 
ATOM     22  C   UNL     1      -5.211 -12.881  18.452  0.00  0.00    +0.040 A 
ATOM     24  C   UNL     1      -4.476 -11.939  19.171  0.00  0.00    +0.124 A 
ENDBRANCH   1  17
ENDBRANCH  10   1
BRANCH  13   7
ATOM      7  O   UNL     1      -7.231 -10.628  14.481  0.00  0.00    -0.469 OA
BRANCH   7  20
ATOM     11  N   UNL     1      -5.058 -11.296  14.028  0.00  0.00    -0.221 NA
ATOM     20  C   UNL     1      -5.912 -10.636  14.842  0.00  0.00    +0.215 A 
ATOM     23  C   UNL     1      -5.529  -9.980  16.001  0.00  0.00    +0.068 A 
ATOM     25  C   UNL     1      -4.182 -10.002  16.346  0.00  0.00    +0.019 A 
ATOM     26  C   UNL     1      -3.273 -10.670  15.534  0.00  0.00    +0.073 A 
ATOM     27  C   UNL     1      -3.757 -11.296  14.396  0.00  0.00    +0.127 A 
BRANCH  26  28
ATOM      3  F   UNL     1      -1.164 -11.729  15.249  0.00  0.00    -0.166 F 
ATOM      4  F   UNL     1      -1.147  -9.574  15.541  0.00  0.00    -0.166 F 
ATOM      5  F   UNL     1      -1.581 -10.889  17.211  0.00  0.00    -0.166 F 
ATOM     28  C   UNL     1      -1.826 -10.713  15.877  0.00  0.00    +0.419 C 
ENDBRANCH  26  28
ENDBRANCH   7  20
ENDBRANCH  13   7
TORSDOF 5
ENDMDL
MODEL 2
REMARK VINA RESULT:      -6.4     27.543     29.605
REMARK  Name = 75536857
REMARK  5 active torsions:
REMARK  status: ('A' for Active; 'I' for Inactive)
REMARK    1  A    between atoms: S_1  and  N_10
REMARK    2  A    between atoms: S_1  and  C_17
REMARK    3  A    between atoms: O_7  and  C_13
REMARK    4  A    between atoms: O_7  and  C_20
REMARK    5  A    between atoms: C_26  and  C_28
REMARK                            x       y       z     vdW  Elec       q    Type
REMARK                         _______ _______ _______ _____ _____    ______ ____
ROOT
ATOM      6  O   UNL     1      11.278  11.845  23.189  0.00  0.00    -0.375 OA
ATOM     10  N   UNL     1      11.643   9.303  21.518  0.00  0.00    -0.171 NA
ATOM     12  C   UNL     1      12.337  10.465  20.887  0.00  0.00    +0.156 C 
ATOM     13  C   UNL     1      13.287  11.102  21.898  0.00  0.00    +0.216 C 
ATOM     14  C   UNL     1      10.533   9.683  22.443  0.00  0.00    +0.137 C 
ATOM     15  C   UNL     1      12.618  12.131  22.813  0.00  0.00    +0.205 C 
ATOM     16  C   UNL     1      11.045  10.508  23.615  0.00  0.00    +0.177 C 
ENDROOT
BRANCH  10   1
ATOM      1  S   UNL     1      11.284   7.999  20.458  0.00  0.00    +0.061 S 
ATOM      8  O   UNL     1      10.623   8.520  19.284  0.00  0.00    -0.153 OA
ATOM      9  O   UNL     1      10.705   6.920  21.227  0.00  0.00    -0.153 OA
BRANCH   1  17
ATOM      2  F   UNL     1      16.747   6.417  18.913  0.00  0.00    -0.205 F 
ATOM     17  C   UNL     1      12.919   7.525  19.996  0.00  0.00    +0.106 A 
ATOM     18  C   UNL     1      13.755   6.905  20.926  0.00  0.00    +0.031 A 
ATOM     19  C   UNL     1      13.376   7.770  18.701  0.00  0.00    +0.031 A 
ATOM     21  C   UNL     1      15.048   6.531  20.559  0.00  0.00    +0.040 A 
ATOM     22  C   UNL     1      14.669   7.395  18.335  0.00  0.00    +0.040 A 
ATOM     24  C   UNL     1      15.505   6.776  19.264  0.00  0.00    +0.124 A 
ENDBRANCH   1  17
ENDBRANCH  10   1
BRANCH  13   7
ATOM      7  O   UNL     1      14.350  11.741  21.190  0.00  0.00    -0.469 OA
BRANCH   7  20
ATOM     11  N   UNL     1      16.384  11.894  22.292  0.00  0.00    -0.221 NA
ATOM     20  C   UNL     1      15.608  11.244  21.395  0.00  0.00    +0.215 A 
ATOM     23  C   UNL     1      16.011  10.123  20.688  0.00  0.00    +0.068 A 
ATOM     25  C   UNL     1      17.294   9.637  20.916  0.00  0.00    +0.019 A 
ATOM     26  C   UNL     1      18.122  10.277  21.829  0.00  0.00    +0.073 A 
ATOM     27  C   UNL     1      17.625  11.392  22.486  0.00  0.00    +0.127 A 
BRANCH  26  28
ATOM      3  F   UNL     1      19.519   8.674  22.892  0.00  0.00    -0.166 F 
ATOM      4  F   UNL     1      20.184   9.428  20.965  0.00  0.00    -0.166 F 
ATOM      5  F   UNL     1      20.302  10.695  22.722  0.00  0.00    -0.166 F 
ATOM     28  C   UNL     1      19.499   9.782  22.094  0.00  0.00    +0.419 C 
ENDBRANCH  26  28
ENDBRANCH   7  20
ENDBRANCH  13   7
TORSDOF 5
ENDMDL
MODEL 3
REMARK VINA RESULT:      -6.2     27.745     29.707
REMARK  Name = 75536857
REMARK  5 active torsions:
REMARK  status: ('A' for Active; 'I' for Inactive)
REMARK    1  A    between atoms: S_1  and  N_10
REMARK    2  A    between atoms: S_1  and  C_17
REMARK    3  A    between atoms: O_7  and  C_13
REMARK    4  A    between atoms: O_7  and  C_20
REMARK    5  A    between atoms: C_26  and  C_28
REMARK                            x       y       z     vdW  Elec       q    Type
REMARK                         _______ _______ _______ _____ _____    ______ ____
ROOT
ATOM      6  O   UNL     1      15.168  13.402  25.600  0.00  0.00    -0.375 OA
ATOM     10  N   UNL     1      12.693  12.386  24.106  0.00  0.00    -0.171 NA
ATOM     12  C   UNL     1      13.797  12.716  23.155  0.00  0.00    +0.156 C 
ATOM     13  C   UNL     1      15.060  11.960  23.559  0.00  0.00    +0.216 C 
ATOM     14  C   UNL     1      12.789  13.088  25.421  0.00  0.00    +0.137 C 
ATOM     15  C   UNL     1      15.898  12.678  24.620  0.00  0.00    +0.205 C 
ATOM     16  C   UNL     1      14.063  12.705  26.163  0.00  0.00    +0.177 C 
ENDROOT
BRANCH  10   1
ATOM      1  S   UNL     1      11.119  12.356  23.419  0.00  0.00    +0.061 S 
ATOM      8  O   UNL     1      11.014  13.416  22.442  0.00  0.00    -0.153 OA
ATOM      9  O   UNL     1      10.149  12.219  24.482  0.00  0.00    -0.153 OA
BRANCH   1  17
ATOM      2  F   UNL     1      11.374   7.230  20.521  0.00  0.00    -0.205 F 
ATOM     17  C   UNL     1      11.196  10.822  22.550  0.00  0.00    +0.106 A 
ATOM     18  C   UNL     1      11.657  10.787  21.234  0.00  0.00    +0.031 A 
ATOM     19  C   UNL     1      10.796   9.644  23.181  0.00  0.00    +0.031 A 
ATOM     21  C   UNL     1      11.717   9.573  20.549  0.00  0.00    +0.040 A 
ATOM     22  C   UNL     1      10.856   8.430  22.495  0.00  0.00    +0.040 A 
ATOM     24  C   UNL     1      11.317   8.395  21.180  0.00  0.00    +0.124 A 
ENDBRANCH   1  17
ENDBRANCH  10   1
BRANCH  13   7
ATOM      7  O   UNL     1      15.866  11.759  22.397  0.00  0.00    -0.469 OA
BRANCH   7  20
ATOM     11  N   UNL     1      15.338   9.501  22.343  0.00  0.00    -0.221 NA
ATOM     20  C   UNL     1      15.606  10.637  21.659  0.00  0.00    +0.215 A 
ATOM     23  C   UNL     1      15.629  10.723  20.276  0.00  0.00    +0.068 A 
ATOM     25  C   UNL     1      15.360   9.568  19.549  0.00  0.00    +0.019 A 
ATOM     26  C   UNL     1      15.080   8.382  20.216  0.00  0.00    +0.073 A 
ATOM     27  C   UNL     1      15.082   8.400  21.602  0.00  0.00    +0.127 A 
BRANCH  26  28
ATOM      3  F   UNL     1      15.784   6.793  18.593  0.00  0.00    -0.166 F 
ATOM      4  F   UNL     1      14.621   6.035  20.266  0.00  0.00    -0.166 F 
ATOM      5  F   UNL     1      13.650   7.194  18.710  0.00  0.00    -0.166 F 
ATOM     28  C   UNL     1      14.789   7.131  19.465  0.00  0.00    +0.419 C 
ENDBRANCH  26  28
ENDBRANCH   7  20
ENDBRANCH  13   7
TORSDOF 5
ENDMDL
MODEL 4
REMARK VINA RESULT:      -6.1      3.476      4.857
REMARK  Name = 75536857
REMARK  5 active torsions:
REMARK  status: ('A' for Active; 'I' for Inactive)
REMARK    1  A    between atoms: S_1  and  N_10
REMARK    2  A    between atoms: S_1  and  C_17
REMARK    3  A    between atoms: O_7  and  C_13
REMARK    4  A    between atoms: O_7  and  C_20
REMARK    5  A    between atoms: C_26  and  C_28
REMARK                            x       y       z     vdW  Elec       q    Type
REMARK                         _______ _______ _______ _____ _____    ______ ____
ROOT
ATOM      6  O   UNL     1      -9.155  -9.707  16.714  0.00  0.00    -0.375 OA
ATOM     10  N   UNL     1      -6.298 -10.815  16.684  0.00  0.00    -0.171 NA
ATOM     12  C   UNL     1      -7.113 -11.401  15.578  0.00  0.00    +0.156 C 
ATOM     13  C   UNL     1      -7.723 -10.277  14.744  0.00  0.00    +0.216 C 
ATOM     14  C   UNL     1      -7.105 -10.295  17.828  0.00  0.00    +0.137 C 
ATOM     15  C   UNL     1      -9.046  -9.743  15.297  0.00  0.00    +0.205 C 
ATOM     16  C   UNL     1      -8.026  -9.165  17.390  0.00  0.00    +0.177 C 
ENDROOT
BRANCH  10   1
ATOM      1  S   UNL     1      -4.912 -11.725  17.134  0.00  0.00    +0.061 S 
ATOM      8  O   UNL     1      -5.157 -13.121  16.850  0.00  0.00    -0.153 OA
ATOM      9  O   UNL     1      -4.476 -11.292  18.442  0.00  0.00    -0.153 OA
BRANCH   1  17
ATOM      2  F   UNL     1      -1.043  -9.715  13.169  0.00  0.00    -0.205 F 
ATOM     17  C   UNL     1      -3.755 -11.123  15.946  0.00  0.00    +0.106 A 
ATOM     18  C   UNL     1      -4.100 -11.078  14.595  0.00  0.00    +0.031 A 
ATOM     19  C   UNL     1      -2.493 -10.692  16.359  0.00  0.00    +0.031 A 
ATOM     21  C   UNL     1      -3.184 -10.603  13.657  0.00  0.00    +0.040 A 
ATOM     22  C   UNL     1      -1.578 -10.216  15.420  0.00  0.00    +0.040 A 
ATOM     24  C   UNL     1      -1.923 -10.171  14.070  0.00  0.00    +0.124 A 
ENDBRANCH   1  17
ENDBRANCH  10   1
BRANCH  13   7
ATOM      7  O   UNL     1      -7.942 -10.757  13.416  0.00  0.00    -0.469 OA
BRANCH   7  20
ATOM     11  N   UNL     1      -6.475 -11.461  11.764  0.00  0.00    -0.221 NA
ATOM     20  C   UNL     1      -6.991 -10.440  12.486  0.00  0.00    +0.215 A 
ATOM     23  C   UNL     1      -6.614  -9.115  12.336  0.00  0.00    +0.068 A 
ATOM     25  C   UNL     1      -5.645  -8.819  11.383  0.00  0.00    +0.019 A 
ATOM     26  C   UNL     1      -5.091  -9.840  10.621  0.00  0.00    +0.073 A 
ATOM     27  C   UNL     1      -5.536 -11.133  10.848  0.00  0.00    +0.127 A 
BRANCH  26  28
ATOM      3  F   UNL     1      -2.786  -9.572  10.104  0.00  0.00    -0.166 F 
ATOM      4  F   UNL     1      -4.041 -10.450   8.560  0.00  0.00    -0.166 F 
ATOM      5  F   UNL     1      -4.189  -8.330   9.000  0.00  0.00    -0.166 F 
ATOM     28  C   UNL     1      -4.053  -9.555   9.595  0.00  0.00    +0.419 C 
ENDBRANCH  26  28
ENDBRANCH   7  20
ENDBRANCH  13   7
TORSDOF 5
ENDMDL
MODEL 5
REMARK VINA RESULT:      -6.0     21.142     23.399
REMARK  Name = 75536857
REMARK  5 active torsions:
REMARK  status: ('A' for Active; 'I' for Inactive)
REMARK    1  A    between atoms: S_1  and  N_10
REMARK    2  A    between atoms: S_1  and  C_17
REMARK    3  A    between atoms: O_7  and  C_13
REMARK    4  A    between atoms: O_7  and  C_20
REMARK    5  A    between atoms: C_26  and  C_28
REMARK                            x       y       z     vdW  Elec       q    Type
REMARK                         _______ _______ _______ _____ _____    ______ ____
ROOT
ATOM      6  O   UNL     1     -15.873   9.318  31.747  0.00  0.00    -0.375 OA
ATOM     10  N   UNL     1     -15.226   6.613  33.033  0.00  0.00    -0.171 NA
ATOM     12  C   UNL     1     -16.545   6.574  32.334  0.00  0.00    +0.156 C 
ATOM     13  C   UNL     1     -16.368   7.022  30.886  0.00  0.00    +0.216 C 
ATOM     14  C   UNL     1     -14.784   7.984  33.427  0.00  0.00    +0.137 C 
ATOM     15  C   UNL     1     -16.429   8.540  30.696  0.00  0.00    +0.205 C 
ATOM     16  C   UNL     1     -14.600   8.880  32.210  0.00  0.00    +0.177 C 
ENDROOT
BRANCH  10   1
ATOM      1  S   UNL     1     -14.999   5.408  34.237  0.00  0.00    +0.061 S 
ATOM      8  O   UNL     1     -16.273   5.115  34.851  0.00  0.00    -0.153 OA
ATOM      9  O   UNL     1     -13.845   5.759  35.034  0.00  0.00    -0.153 OA
BRANCH   1  17
ATOM      2  F   UNL     1     -13.525   0.833  30.826  0.00  0.00    -0.205 F 
ATOM     17  C   UNL     1     -14.559   4.038  33.215  0.00  0.00    +0.106 A 
ATOM     18  C   UNL     1     -15.288   2.851  33.287  0.00  0.00    +0.031 A 
ATOM     19  C   UNL     1     -13.480   4.142  32.337  0.00  0.00    +0.031 A 
ATOM     21  C   UNL     1     -14.939   1.769  32.480  0.00  0.00    +0.040 A 
ATOM     22  C   UNL     1     -13.132   3.060  31.529  0.00  0.00    +0.040 A 
ATOM     24  C   UNL     1     -13.861   1.873  31.600  0.00  0.00    +0.124 A 
ENDBRANCH   1  17
ENDBRANCH  10   1
BRANCH  13   7
ATOM      7  O   UNL     1     -17.390   6.420  30.090  0.00  0.00    -0.469 OA
BRANCH   7  20
ATOM     11  N   UNL     1     -18.304   4.301  29.864  0.00  0.00    -0.221 NA
ATOM     20  C   UNL     1     -17.218   5.101  29.769  0.00  0.00    +0.215 A 
ATOM     23  C   UNL     1     -15.965   4.665  29.371  0.00  0.00    +0.068 A 
ATOM     25  C   UNL     1     -15.816   3.320  29.050  0.00  0.00    +0.019 A 
ATOM     26  C   UNL     1     -16.909   2.466  29.135  0.00  0.00    +0.073 A 
ATOM     27  C   UNL     1     -18.121   3.000  29.544  0.00  0.00    +0.127 A 
BRANCH  26  28
ATOM      3  F   UNL     1     -16.378   0.265  29.861  0.00  0.00    -0.166 F 
ATOM      4  F   UNL     1     -17.948   0.452  28.368  0.00  0.00    -0.166 F 
ATOM      5  F   UNL     1     -15.876   0.766  27.805  0.00  0.00    -0.166 F 
ATOM     28  C   UNL     1     -16.782   1.022  28.798  0.00  0.00    +0.419 C 
ENDBRANCH  26  28
ENDBRANCH   7  20
ENDBRANCH  13   7
TORSDOF 5
ENDMDL
MODEL 6
REMARK VINA RESULT:      -6.0     20.536     22.747
REMARK  Name = 75536857
REMARK  5 active torsions:
REMARK  status: ('A' for Active; 'I' for Inactive)
REMARK    1  A    between atoms: S_1  and  N_10
REMARK    2  A    between atoms: S_1  and  C_17
REMARK    3  A    between atoms: O_7  and  C_13
REMARK    4  A    between atoms: O_7  and  C_20
REMARK    5  A    between atoms: C_26  and  C_28
REMARK                            x       y       z     vdW  Elec       q    Type
REMARK                         _______ _______ _______ _____ _____    ______ ____
ROOT
ATOM      6  O   UNL     1     -17.741   8.081  28.347  0.00  0.00    -0.375 OA
ATOM     10  N   UNL     1     -16.976   6.817  31.031  0.00  0.00    -0.171 NA
ATOM     12  C   UNL     1     -17.782   5.872  30.203  0.00  0.00    +0.156 C 
ATOM     13  C   UNL     1     -17.126   5.706  28.834  0.00  0.00    +0.216 C 
ATOM     14  C   UNL     1     -17.166   8.256  30.677  0.00  0.00    +0.137 C 
ATOM     15  C   UNL     1     -17.531   6.778  27.820  0.00  0.00    +0.205 C 
ATOM     16  C   UNL     1     -16.735   8.536  29.244  0.00  0.00    +0.177 C 
ENDROOT
BRANCH  10   1
ATOM      1  S   UNL     1     -16.962   6.486  32.717  0.00  0.00    +0.061 S 
ATOM      8  O   UNL     1     -18.267   6.005  33.109  0.00  0.00    -0.153 OA
ATOM      9  O   UNL     1     -16.334   7.593  33.404  0.00  0.00    -0.153 OA
BRANCH   1  17
ATOM      2  F   UNL     1     -13.237   1.921  32.822  0.00  0.00    -0.205 F 
ATOM     17  C   UNL     1     -15.846   5.120  32.749  0.00  0.00    +0.106 A 
ATOM     18  C   UNL     1     -14.487   5.323  32.505  0.00  0.00    +0.031 A 
ATOM     19  C   UNL     1     -16.323   3.837  33.018  0.00  0.00    +0.031 A 
ATOM     21  C   UNL     1     -13.606   4.242  32.530  0.00  0.00    +0.040 A 
ATOM     22  C   UNL     1     -15.441   2.756  33.043  0.00  0.00    +0.040 A 
ATOM     24  C   UNL     1     -14.083   2.959  32.799  0.00  0.00    +0.124 A 
ENDBRANCH   1  17
ENDBRANCH  10   1
BRANCH  13   7
ATOM      7  O   UNL     1     -17.474   4.424  28.310  0.00  0.00    -0.469 OA
BRANCH   7  20
ATOM     11  N   UNL     1     -15.407   3.589  28.948  0.00  0.00    -0.221 NA
ATOM     20  C   UNL     1     -16.724   3.364  28.739  0.00  0.00    +0.215 A 
ATOM     23  C   UNL     1     -17.342   2.139  28.932  0.00  0.00    +0.068 A 
ATOM     25  C   UNL     1     -16.557   1.077  29.370  0.00  0.00    +0.019 A 
ATOM     26  C   UNL     1     -15.200   1.269  29.596  0.00  0.00    +0.073 A 
ATOM     27  C   UNL     1     -14.677   2.533  29.372  0.00  0.00    +0.127 A 
BRANCH  26  28
ATOM      3  F   UNL     1     -13.096   0.572  30.455  0.00  0.00    -0.166 F 
ATOM      4  F   UNL     1     -14.844  -0.528  31.135  0.00  0.00    -0.166 F 
ATOM      5  F   UNL     1     -14.110  -0.805  29.112  0.00  0.00    -0.166 F 
ATOM     28  C   UNL     1     -14.335   0.152  30.063  0.00  0.00    +0.419 C 
ENDBRANCH  26  28
ENDBRANCH   7  20
ENDBRANCH  13   7
TORSDOF 5
ENDMDL
MODEL 7
REMARK VINA RESULT:      -5.9     25.118     27.664
REMARK  Name = 75536857
REMARK  5 active torsions:
REMARK  status: ('A' for Active; 'I' for Inactive)
REMARK    1  A    between atoms: S_1  and  N_10
REMARK    2  A    between atoms: S_1  and  C_17
REMARK    3  A    between atoms: O_7  and  C_13
REMARK    4  A    between atoms: O_7  and  C_20
REMARK    5  A    between atoms: C_26  and  C_28
REMARK                            x       y       z     vdW  Elec       q    Type
REMARK                         _______ _______ _______ _____ _____    ______ ____
ROOT
ATOM      6  O   UNL     1      11.460  12.163   4.141  0.00  0.00    -0.375 OA
ATOM     10  N   UNL     1       9.726   9.752   3.388  0.00  0.00    -0.171 NA
ATOM     12  C   UNL     1      11.040   9.315   3.949  0.00  0.00    +0.156 C 
ATOM     13  C   UNL     1      11.252   9.964   5.314  0.00  0.00    +0.216 C 
ATOM     14  C   UNL     1       9.734  11.133   2.819  0.00  0.00    +0.137 C 
ATOM     15  C   UNL     1      11.864  11.365   5.245  0.00  0.00    +0.205 C 
ATOM     16  C   UNL     1      10.060  12.170   3.885  0.00  0.00    +0.177 C 
ENDROOT
BRANCH  10   1
ATOM      1  S   UNL     1       8.915   8.581   2.427  0.00  0.00    +0.061 S 
ATOM      8  O   UNL     1       9.652   8.390   1.200  0.00  0.00    -0.153 OA
ATOM      9  O   UNL     1       7.503   8.890   2.412  0.00  0.00    -0.153 OA
BRANCH   1  17
ATOM      2  F   UNL     1       9.702   3.799   5.780  0.00  0.00    -0.205 F 
ATOM     17  C   UNL     1       9.149   7.149   3.431  0.00  0.00    +0.106 A 
ATOM     18  C   UNL     1       8.370   6.962   4.573  0.00  0.00    +0.031 A 
ATOM     19  C   UNL     1      10.115   6.205   3.083  0.00  0.00    +0.031 A 
ATOM     21  C   UNL     1       8.557   5.830   5.366  0.00  0.00    +0.040 A 
ATOM     22  C   UNL     1      10.301   5.073   3.877  0.00  0.00    +0.040 A 
ATOM     24  C   UNL     1       9.522   4.885   5.018  0.00  0.00    +0.124 A 
ENDBRANCH   1  17
ENDBRANCH  10   1
BRANCH  13   7
ATOM      7  O   UNL     1      12.109   9.128   6.093  0.00  0.00    -0.469 OA
BRANCH   7  20
ATOM     11  N   UNL     1      12.140   6.984   6.975  0.00  0.00    -0.221 NA
ATOM     20  C   UNL     1      11.500   8.170   6.856  0.00  0.00    +0.215 A 
ATOM     23  C   UNL     1      10.285   8.460   7.454  0.00  0.00    +0.068 A 
ATOM     25  C   UNL     1       9.687   7.468   8.226  0.00  0.00    +0.019 A 
ATOM     26  C   UNL     1      10.313   6.237   8.372  0.00  0.00    +0.073 A 
ATOM     27  C   UNL     1      11.527   6.045   7.732  0.00  0.00    +0.127 A 
BRANCH  26  28
ATOM      3  F   UNL     1      10.320   4.986  10.394  0.00  0.00    -0.166 F 
ATOM      4  F   UNL     1       8.381   5.373   9.489  0.00  0.00    -0.166 F 
ATOM      5  F   UNL     1       9.726   3.928   8.590  0.00  0.00    -0.166 F 
ATOM     28  C   UNL     1       9.698   5.157   9.190  0.00  0.00    +0.419 C 
ENDBRANCH  26  28
ENDBRANCH   7  20
ENDBRANCH  13   7
TORSDOF 5
ENDMDL
MODEL 8
REMARK VINA RESULT:      -5.9     25.235     27.989
REMARK  Name = 75536857
REMARK  5 active torsions:
REMARK  status: ('A' for Active; 'I' for Inactive)
REMARK    1  A    between atoms: S_1  and  N_10
REMARK    2  A    between atoms: S_1  and  C_17
REMARK    3  A    between atoms: O_7  and  C_13
REMARK    4  A    between atoms: O_7  and  C_20
REMARK    5  A    between atoms: C_26  and  C_28
REMARK                            x       y       z     vdW  Elec       q    Type
REMARK                         _______ _______ _______ _____ _____    ______ ____
ROOT
ATOM      6  O   UNL     1       8.901  10.140   1.452  0.00  0.00    -0.375 OA
ATOM     10  N   UNL     1      11.061   8.438   2.803  0.00  0.00    -0.171 NA
ATOM     12  C   UNL     1      10.093   8.973   3.807  0.00  0.00    +0.156 C 
ATOM     13  C   UNL     1       8.672   8.588   3.400  0.00  0.00    +0.216 C 
ATOM     14  C   UNL     1      11.124   9.225   1.535  0.00  0.00    +0.137 C 
ATOM     15  C   UNL     1       8.026   9.561   2.411  0.00  0.00    +0.205 C 
ATOM     16  C   UNL     1       9.783   9.225   0.814  0.00  0.00    +0.177 C 
ENDROOT
BRANCH  10   1
ATOM      1  S   UNL     1      12.587   7.967   3.436  0.00  0.00    +0.061 S 
ATOM      8  O   UNL     1      12.487   7.869   4.874  0.00  0.00    -0.153 OA
ATOM      9  O   UNL     1      13.617   8.764   2.809  0.00  0.00    -0.153 OA
BRANCH   1  17
ATOM      2  F   UNL     1      12.945   2.500   1.263  0.00  0.00    -0.205 F 
ATOM     17  C   UNL     1      12.693   6.330   2.785  0.00  0.00    +0.106 A 
ATOM     18  C   UNL     1      11.621   5.449   2.931  0.00  0.00    +0.031 A 
ATOM     19  C   UNL     1      13.850   5.916   2.125  0.00  0.00    +0.031 A 
ATOM     21  C   UNL     1      11.706   4.156   2.417  0.00  0.00    +0.040 A 
ATOM     22  C   UNL     1      13.935   4.622   1.610  0.00  0.00    +0.040 A 
ATOM     24  C   UNL     1      12.863   3.743   1.756  0.00  0.00    +0.124 A 
ENDBRANCH   1  17
ENDBRANCH  10   1
BRANCH  13   7
ATOM      7  O   UNL     1       7.861   8.521   4.573  0.00  0.00    -0.469 OA
BRANCH   7  20
ATOM     11  N   UNL     1       8.297   8.185   6.826  0.00  0.00    -0.221 NA
ATOM     20  C   UNL     1       8.291   7.687   5.568  0.00  0.00    +0.215 A 
ATOM     23  C   UNL     1       8.688   6.401   5.241  0.00  0.00    +0.068 A 
ATOM     25  C   UNL     1       9.121   5.571   6.271  0.00  0.00    +0.019 A 
ATOM     26  C   UNL     1       9.142   6.047   7.576  0.00  0.00    +0.073 A 
ATOM     27  C   UNL     1       8.724   7.349   7.800  0.00  0.00    +0.127 A 
BRANCH  26  28
ATOM      3  F   UNL     1       8.693   5.119   9.718  0.00  0.00    -0.166 F 
ATOM      4  F   UNL     1       9.834   3.887   8.337  0.00  0.00    -0.166 F 
ATOM      5  F   UNL     1      10.766   5.606   9.277  0.00  0.00    -0.166 F 
ATOM     28  C   UNL     1       9.600   5.185   8.699  0.00  0.00    +0.419 C 
ENDBRANCH  26  28
ENDBRANCH   7  20
ENDBRANCH  13   7
TORSDOF 5
ENDMDL
MODEL 9
REMARK VINA RESULT:      -5.9     25.219     27.651
REMARK  Name = 75536857
REMARK  5 active torsions:
REMARK  status: ('A' for Active; 'I' for Inactive)
REMARK    1  A    between atoms: S_1  and  N_10
REMARK    2  A    between atoms: S_1  and  C_17
REMARK    3  A    between atoms: O_7  and  C_13
REMARK    4  A    between atoms: O_7  and  C_20
REMARK    5  A    between atoms: C_26  and  C_28
REMARK                            x       y       z     vdW  Elec       q    Type
REMARK                         _______ _______ _______ _____ _____    ______ ____
ROOT
ATOM      6  O   UNL     1       5.956  10.557   2.147  0.00  0.00    -0.375 OA
ATOM     10  N   UNL     1       8.682   9.212   1.759  0.00  0.00    -0.171 NA
ATOM     12  C   UNL     1       8.586   9.854   3.104  0.00  0.00    +0.156 C 
ATOM     13  C   UNL     1       7.347   9.336   3.829  0.00  0.00    +0.216 C 
ATOM     14  C   UNL     1       7.749   9.783   0.741  0.00  0.00    +0.137 C 
ATOM     15  C   UNL     1       6.065  10.099   3.488  0.00  0.00    +0.205 C 
ATOM     16  C   UNL     1       6.295   9.596   1.154  0.00  0.00    +0.177 C 
ENDROOT
BRANCH  10   1
ATOM      1  S   UNL     1      10.279   8.930   1.193  0.00  0.00    +0.061 S 
ATOM      8  O   UNL     1      11.182   9.829   1.876  0.00  0.00    -0.153 OA
ATOM      9  O   UNL     1      10.254   8.847  -0.250  0.00  0.00    -0.153 OA
BRANCH   1  17
ATOM      2  F   UNL     1      11.163   3.503   3.314  0.00  0.00    -0.205 F 
ATOM     17  C   UNL     1      10.544   7.306   1.829  0.00  0.00    +0.106 A 
ATOM     18  C   UNL     1      11.230   7.130   3.031  0.00  0.00    +0.031 A 
ATOM     19  C   UNL     1      10.067   6.197   1.129  0.00  0.00    +0.031 A 
ATOM     21  C   UNL     1      11.439   5.845   3.532  0.00  0.00    +0.040 A 
ATOM     22  C   UNL     1      10.276   4.913   1.631  0.00  0.00    +0.040 A 
ATOM     24  C   UNL     1      10.962   4.737   2.833  0.00  0.00    +0.124 A 
ENDBRANCH   1  17
ENDBRANCH  10   1
BRANCH  13   7
ATOM      7  O   UNL     1       7.570   9.421   5.237  0.00  0.00    -0.469 OA
BRANCH   7  20
ATOM     11  N   UNL     1       8.646   8.492   7.069  0.00  0.00    -0.221 NA
ATOM     20  C   UNL     1       8.112   8.319   5.839  0.00  0.00    +0.215 A 
ATOM     23  C   UNL     1       8.086   7.106   5.168  0.00  0.00    +0.068 A 
ATOM     25  C   UNL     1       8.644   6.001   5.802  0.00  0.00    +0.019 A 
ATOM     26  C   UNL     1       9.202   6.139   7.066  0.00  0.00    +0.073 A 
ATOM     27  C   UNL     1       9.179   7.395   7.653  0.00  0.00    +0.127 A 
BRANCH  26  28
ATOM      3  F   UNL     1       9.073   4.570   8.848  0.00  0.00    -0.166 F 
ATOM      4  F   UNL     1       9.939   3.865   6.983  0.00  0.00    -0.166 F 
ATOM      5  F   UNL     1      11.063   5.217   8.254  0.00  0.00    -0.166 F 
ATOM     28  C   UNL     1       9.806   4.976   7.769  0.00  0.00    +0.419 C 
ENDBRANCH  26  28
ENDBRANCH   7  20
ENDBRANCH  13   7
TORSDOF 5
ENDMDL
MODEL 10
REMARK VINA RESULT:      -5.8      3.596      5.053
REMARK  Name = 75536857
REMARK  5 active torsions:
REMARK  status: ('A' for Active; 'I' for Inactive)
REMARK    1  A    between atoms: S_1  and  N_10
REMARK    2  A    between atoms: S_1  and  C_17
REMARK    3  A    between atoms: O_7  and  C_13
REMARK    4  A    between atoms: O_7  and  C_20
REMARK    5  A    between atoms: C_26  and  C_28
REMARK                            x       y       z     vdW  Elec       q    Type
REMARK                         _______ _______ _______ _____ _____    ______ ____
ROOT
ATOM      6  O   UNL     1      -6.176 -14.896  16.024  0.00  0.00    -0.375 OA
ATOM     10  N   UNL     1      -6.422 -12.289  17.615  0.00  0.00    -0.171 NA
ATOM     12  C   UNL     1      -5.000 -12.565  17.252  0.00  0.00    +0.156 C 
ATOM     13  C   UNL     1      -4.889 -12.770  15.744  0.00  0.00    +0.216 C 
ATOM     14  C   UNL     1      -7.294 -13.502  17.634  0.00  0.00    +0.137 C 
ATOM     15  C   UNL     1      -5.174 -14.204  15.291  0.00  0.00    +0.205 C 
ATOM     16  C   UNL     1      -7.367 -14.155  16.261  0.00  0.00    +0.177 C 
ENDROOT
BRANCH  10   1
ATOM      1  S   UNL     1      -6.646 -11.219  18.940  0.00  0.00    +0.061 S 
ATOM      8  O   UNL     1      -5.517 -10.320  19.011  0.00  0.00    -0.153 OA
ATOM      9  O   UNL     1      -7.068 -11.985  20.091  0.00  0.00    -0.153 OA
BRANCH   1  17
ATOM      2  F   UNL     1     -11.287  -8.154  16.989  0.00  0.00    -0.205 F 
ATOM     17  C   UNL     1      -8.036 -10.301  18.357  0.00  0.00    +0.106 A 
ATOM     18  C   UNL     1      -9.310 -10.569  18.859  0.00  0.00    +0.031 A 
ATOM     19  C   UNL     1      -7.861  -9.309  17.393  0.00  0.00    +0.031 A 
ATOM     21  C   UNL     1     -10.408  -9.843  18.397  0.00  0.00    +0.040 A 
ATOM     22  C   UNL     1      -8.959  -8.583  16.931  0.00  0.00    +0.040 A 
ATOM     24  C   UNL     1     -10.232  -8.850  17.433  0.00  0.00    +0.124 A 
ENDBRANCH   1  17
ENDBRANCH  10   1
BRANCH  13   7
ATOM      7  O   UNL     1      -3.570 -12.412  15.327  0.00  0.00    -0.469 OA
BRANCH   7  20
ATOM     11  N   UNL     1      -4.545 -10.982  13.784  0.00  0.00    -0.221 NA
ATOM     20  C   UNL     1      -3.468 -11.710  14.158  0.00  0.00    +0.215 A 
ATOM     23  C   UNL     1      -2.288 -11.779  13.434  0.00  0.00    +0.068 A 
ATOM     25  C   UNL     1      -2.209 -11.055  12.249  0.00  0.00    +0.019 A 
ATOM     26  C   UNL     1      -3.294 -10.295  11.831  0.00  0.00    +0.073 A 
ATOM     27  C   UNL     1      -4.430 -10.292  12.626  0.00  0.00    +0.127 A 
BRANCH  26  28
ATOM      3  F   UNL     1      -2.011  -8.960  10.340  0.00  0.00    -0.166 F 
ATOM      4  F   UNL     1      -3.523 -10.245   9.450  0.00  0.00    -0.166 F 
ATOM      5  F   UNL     1      -4.119  -8.462  10.534  0.00  0.00    -0.166 F 
ATOM     28  C   UNL     1      -3.240  -9.510  10.569  0.00  0.00    +0.419 C 
ENDBRANCH  26  28
ENDBRANCH   7  20
ENDBRANCH  13   7
TORSDOF 5
ENDMDL
