MODEL 1
REMARK VINA RESULT:      -8.3      0.000      0.000
REMARK  Name = 11941667
REMARK  6 active torsions:
REMARK  status: ('A' for Active; 'I' for Inactive)
REMARK    1  A    between atoms: O_4  and  C_31
REMARK    2  A    between atoms: O_4  and  C_32
REMARK    3  A    between atoms: N_5  and  C_12
REMARK    4  A    between atoms: N_6  and  C_13
REMARK    5  A    between atoms: N_9  and  C_26
REMARK    6  A    between atoms: C_16  and  C_22
REMARK                            x       y       z     vdW  Elec       q    Type
REMARK                         _______ _______ _______ _____ _____    ______ ____
ROOT
ATOM      1  O   UNL     1      -5.420 -10.915  19.322  0.00  0.00    -0.370 OA
ATOM      2  O   UNL     1      -6.623 -12.045  16.674  0.00  0.00    -0.370 OA
ATOM     10  C   UNL     1      -5.494 -11.203  16.961  0.00  0.00    +0.171 C 
ATOM     11  C   UNL     1      -5.889 -10.297  18.113  0.00  0.00    +0.171 C 
ATOM     12  C   UNL     1      -4.354 -12.026  17.513  0.00  0.00    +0.130 C 
ATOM     13  C   UNL     1      -7.400 -10.295  18.076  0.00  0.00    +0.131 C 
ATOM     14  C   UNL     1      -4.683 -12.102  18.992  0.00  0.00    +0.185 C 
ATOM     15  C   UNL     1      -7.715 -11.675  17.530  0.00  0.00    +0.185 C 
ENDROOT
BRANCH  12   5
ATOM      5  N   UNL     1      -3.100 -11.330  17.316  0.00  0.00    -0.306 N 
ATOM      7  N   UNL     1      -3.423 -11.208  15.019  0.00  0.00    -0.219 NA
ATOM      8  N   UNL     1      -1.453 -10.285  16.056  0.00  0.00    -0.223 NA
ATOM     21  C   UNL     1      -2.638 -10.923  16.076  0.00  0.00    +0.216 A 
ATOM     22  C   UNL     1      -2.942 -10.798  13.827  0.00  0.00    +0.049 A 
ATOM     24  C   UNL     1      -1.743 -10.133  13.672  0.00  0.00    +0.043 A 
ATOM     25  C   UNL     1      -1.033  -9.902  14.832  0.00  0.00    +0.116 A 
ATOM     38  H   UNL     1      -2.541 -11.072  18.121  0.00  0.00    +0.149 HD
BRANCH  22  16
ATOM     16  C   UNL     1      -3.790 -11.096  12.611  0.00  0.00    +0.038 C 
ATOM     17  C   UNL     1      -2.998 -11.237  11.295  0.00  0.00    +0.010 C 
ATOM     18  C   UNL     1      -4.844 -10.005  12.347  0.00  0.00    +0.010 C 
ATOM     19  C   UNL     1      -3.508 -10.128  10.382  0.00  0.00    +0.001 C 
ATOM     20  C   UNL     1      -4.944  -9.924  10.831  0.00  0.00    +0.001 C 
ENDBRANCH  22  16
ENDBRANCH  12   5
BRANCH  13   6
ATOM      3  O   UNL     1     -10.130  -9.855  17.325  0.00  0.00    -0.252 OA
ATOM      6  N   UNL     1      -7.899  -9.260  17.202  0.00  0.00    -0.292 N 
ATOM      9  N   UNL     1      -9.438  -8.029  16.023  0.00  0.00    -0.269 N 
ATOM     23  C   UNL     1      -9.255  -9.112  16.886  0.00  0.00    +0.304 C 
ATOM     39  H   UNL     1      -7.245  -8.565  16.854  0.00  0.00    +0.151 HD
ATOM     40  H   UNL     1      -8.604  -7.516  15.751  0.00  0.00    +0.156 HD
BRANCH   9  26
ATOM     26  C   UNL     1     -10.651  -7.553  15.472  0.00  0.00    +0.035 A 
ATOM     27  C   UNL     1     -11.360  -8.338  14.563  0.00  0.00    +0.027 A 
ATOM     28  C   UNL     1     -11.138  -6.298  15.838  0.00  0.00    +0.027 A 
ATOM     29  C   UNL     1     -12.555  -7.868  14.019  0.00  0.00    +0.048 A 
ATOM     30  C   UNL     1     -12.334  -5.828  15.294  0.00  0.00    +0.048 A 
ATOM     31  C   UNL     1     -13.042  -6.614  14.385  0.00  0.00    +0.129 A 
BRANCH  31   4
ATOM      4  O   UNL     1     -14.207  -6.153  13.852  0.00  0.00    -0.456 OA
BRANCH   4  32
ATOM     32  C   UNL     1     -14.126  -5.157  12.893  0.00  0.00    +0.128 A 
ATOM     33  C   UNL     1     -14.868  -3.985  13.040  0.00  0.00    +0.046 A 
ATOM     34  C   UNL     1     -13.301  -5.325  11.781  0.00  0.00    +0.046 A 
ATOM     35  C   UNL     1     -14.787  -2.983  12.074  0.00  0.00    +0.004 A 
ATOM     36  C   UNL     1     -13.219  -4.323  10.815  0.00  0.00    +0.004 A 
ATOM     37  C   UNL     1     -13.962  -3.151  10.961  0.00  0.00    +0.000 A 
ENDBRANCH   4  32
ENDBRANCH  31   4
ENDBRANCH   9  26
ENDBRANCH  13   6
TORSDOF 6
ENDMDL
MODEL 2
REMARK VINA RESULT:      -8.1     24.478     27.344
REMARK  Name = 11941667
REMARK  6 active torsions:
REMARK  status: ('A' for Active; 'I' for Inactive)
REMARK    1  A    between atoms: O_4  and  C_31
REMARK    2  A    between atoms: O_4  and  C_32
REMARK    3  A    between atoms: N_5  and  C_12
REMARK    4  A    between atoms: N_6  and  C_13
REMARK    5  A    between atoms: N_9  and  C_26
REMARK    6  A    between atoms: C_16  and  C_22
REMARK                            x       y       z     vdW  Elec       q    Type
REMARK                         _______ _______ _______ _____ _____    ______ ____
ROOT
ATOM      1  O   UNL     1      11.590   3.896   0.843  0.00  0.00    -0.370 OA
ATOM      2  O   UNL     1      12.121   6.970   0.785  0.00  0.00    -0.370 OA
ATOM     10  C   UNL     1      11.152   6.152   1.461  0.00  0.00    +0.171 C 
ATOM     11  C   UNL     1      10.771   5.030   0.513  0.00  0.00    +0.171 C 
ATOM     12  C   UNL     1      11.789   5.445   2.633  0.00  0.00    +0.130 C 
ATOM     13  C   UNL     1      11.137   5.563  -0.853  0.00  0.00    +0.131 C 
ATOM     14  C   UNL     1      12.394   4.211   1.990  0.00  0.00    +0.185 C 
ATOM     15  C   UNL     1      12.317   6.466  -0.545  0.00  0.00    +0.185 C 
ENDROOT
BRANCH  12   5
ATOM      5  N   UNL     1      10.774   5.063   3.592  0.00  0.00    -0.306 N 
ATOM      7  N   UNL     1      11.805   6.254   5.298  0.00  0.00    -0.219 NA
ATOM      8  N   UNL     1       9.767   5.026   5.683  0.00  0.00    -0.223 NA
ATOM     21  C   UNL     1      10.782   5.465   4.916  0.00  0.00    +0.216 A 
ATOM     22  C   UNL     1      11.781   6.627   6.595  0.00  0.00    +0.049 A 
ATOM     24  C   UNL     1      10.796   6.246   7.484  0.00  0.00    +0.043 A 
ATOM     25  C   UNL     1       9.805   5.438   6.968  0.00  0.00    +0.116 A 
ATOM     38  H   UNL     1       9.980   4.512   3.284  0.00  0.00    +0.149 HD
BRANCH  22  16
ATOM     16  C   UNL     1      12.910   7.514   7.069  0.00  0.00    +0.038 C 
ATOM     17  C   UNL     1      12.655   9.025   6.892  0.00  0.00    +0.010 C 
ATOM     18  C   UNL     1      14.232   7.227   6.334  0.00  0.00    +0.010 C 
ATOM     19  C   UNL     1      13.738   9.521   5.941  0.00  0.00    +0.001 C 
ATOM     20  C   UNL     1      14.904   8.585   6.205  0.00  0.00    +0.001 C 
ENDBRANCH  22  16
ENDBRANCH  12   5
BRANCH  13   6
ATOM      3  O   UNL     1       8.961   4.503  -2.387  0.00  0.00    -0.252 OA
ATOM      6  N   UNL     1      10.045   6.308  -1.433  0.00  0.00    -0.292 N 
ATOM      9  N   UNL     1       8.105   6.677  -2.604  0.00  0.00    -0.269 N 
ATOM     23  C   UNL     1       9.017   5.712  -2.171  0.00  0.00    +0.304 C 
ATOM     39  H   UNL     1       9.985   7.304  -1.240  0.00  0.00    +0.151 HD
ATOM     40  H   UNL     1       8.299   7.640  -2.339  0.00  0.00    +0.156 HD
BRANCH   9  26
ATOM     26  C   UNL     1       6.934   6.483  -3.373  0.00  0.00    +0.035 A 
ATOM     27  C   UNL     1       7.030   6.016  -4.684  0.00  0.00    +0.027 A 
ATOM     28  C   UNL     1       5.682   6.759  -2.822  0.00  0.00    +0.027 A 
ATOM     29  C   UNL     1       5.876   5.826  -5.443  0.00  0.00    +0.048 A 
ATOM     30  C   UNL     1       4.528   6.568  -3.581  0.00  0.00    +0.048 A 
ATOM     31  C   UNL     1       4.625   6.101  -4.892  0.00  0.00    +0.129 A 
BRANCH  31   4
ATOM      4  O   UNL     1       3.499   5.918  -5.634  0.00  0.00    -0.456 OA
BRANCH   4  32
ATOM     32  C   UNL     1       2.723   4.804  -5.359  0.00  0.00    +0.128 A 
ATOM     33  C   UNL     1       3.104   3.552  -5.841  0.00  0.00    +0.046 A 
ATOM     34  C   UNL     1       1.560   4.934  -4.598  0.00  0.00    +0.046 A 
ATOM     35  C   UNL     1       2.321   2.430  -5.565  0.00  0.00    +0.004 A 
ATOM     36  C   UNL     1       0.779   3.813  -4.321  0.00  0.00    +0.004 A 
ATOM     37  C   UNL     1       1.159   2.560  -4.804  0.00  0.00    +0.000 A 
ENDBRANCH   4  32
ENDBRANCH  31   4
ENDBRANCH   9  26
ENDBRANCH  13   6
TORSDOF 6
ENDMDL
MODEL 3
REMARK VINA RESULT:      -7.9     24.562     27.758
REMARK  Name = 11941667
REMARK  6 active torsions:
REMARK  status: ('A' for Active; 'I' for Inactive)
REMARK    1  A    between atoms: O_4  and  C_31
REMARK    2  A    between atoms: O_4  and  C_32
REMARK    3  A    between atoms: N_5  and  C_12
REMARK    4  A    between atoms: N_6  and  C_13
REMARK    5  A    between atoms: N_9  and  C_26
REMARK    6  A    between atoms: C_16  and  C_22
REMARK                            x       y       z     vdW  Elec       q    Type
REMARK                         _______ _______ _______ _____ _____    ______ ____
ROOT
ATOM      1  O   UNL     1     -13.155  10.806  33.070  0.00  0.00    -0.370 OA
ATOM      2  O   UNL     1     -11.449   9.197  31.011  0.00  0.00    -0.370 OA
ATOM     10  C   UNL     1     -11.801   8.972  32.386  0.00  0.00    +0.171 C 
ATOM     11  C   UNL     1     -11.801  10.323  33.077  0.00  0.00    +0.171 C 
ATOM     12  C   UNL     1     -13.233   8.503  32.491  0.00  0.00    +0.130 C 
ATOM     13  C   UNL     1     -10.931  11.188  32.195  0.00  0.00    +0.131 C 
ATOM     14  C   UNL     1     -14.011   9.806  32.497  0.00  0.00    +0.185 C 
ATOM     15  C   UNL     1     -11.168  10.592  30.819  0.00  0.00    +0.185 C 
ENDROOT
BRANCH  12   5
ATOM      5  N   UNL     1     -13.431   7.797  33.739  0.00  0.00    -0.306 N 
ATOM      7  N   UNL     1     -13.978   5.824  32.642  0.00  0.00    -0.219 NA
ATOM      8  N   UNL     1     -13.946   5.950  35.048  0.00  0.00    -0.223 NA
ATOM     21  C   UNL     1     -13.801   6.465  33.813  0.00  0.00    +0.216 A 
ATOM     22  C   UNL     1     -14.339   4.528  32.751  0.00  0.00    +0.049 A 
ATOM     24  C   UNL     1     -14.518   3.882  33.957  0.00  0.00    +0.043 A 
ATOM     25  C   UNL     1     -14.306   4.650  35.084  0.00  0.00    +0.116 A 
ATOM     38  H   UNL     1     -13.246   8.270  34.615  0.00  0.00    +0.149 HD
BRANCH  22  16
ATOM     16  C   UNL     1     -14.548   3.768  31.461  0.00  0.00    +0.038 C 
ATOM     17  C   UNL     1     -15.610   2.652  31.540  0.00  0.00    +0.010 C 
ATOM     18  C   UNL     1     -13.261   3.082  30.966  0.00  0.00    +0.010 C 
ATOM     19  C   UNL     1     -14.870   1.352  31.246  0.00  0.00    +0.001 C 
ATOM     20  C   UNL     1     -13.735   1.783  30.334  0.00  0.00    +0.001 C 
ENDBRANCH  22  16
ENDBRANCH  12   5
BRANCH  13   6
ATOM      3  O   UNL     1      -8.994  13.300  32.174  0.00  0.00    -0.252 OA
ATOM      6  N   UNL     1      -9.541  11.089  32.574  0.00  0.00    -0.292 N 
ATOM      9  N   UNL     1      -7.386  11.781  32.958  0.00  0.00    -0.269 N 
ATOM     23  C   UNL     1      -8.658  12.174  32.536  0.00  0.00    +0.304 C 
ATOM     39  H   UNL     1      -9.205  10.208  32.950  0.00  0.00    +0.151 HD
ATOM     40  H   UNL     1      -7.274  10.806  33.224  0.00  0.00    +0.156 HD
BRANCH   9  26
ATOM     26  C   UNL     1      -6.220  12.577  33.062  0.00  0.00    +0.035 A 
ATOM     27  C   UNL     1      -5.402  12.763  31.948  0.00  0.00    +0.027 A 
ATOM     28  C   UNL     1      -5.889  13.174  34.278  0.00  0.00    +0.027 A 
ATOM     29  C   UNL     1      -4.253  13.546  32.050  0.00  0.00    +0.048 A 
ATOM     30  C   UNL     1      -4.740  13.958  34.380  0.00  0.00    +0.048 A 
ATOM     31  C   UNL     1      -3.922  14.144  33.265  0.00  0.00    +0.129 A 
BRANCH  31   4
ATOM      4  O   UNL     1      -2.799  14.906  33.366  0.00  0.00    -0.456 OA
BRANCH   4  32
ATOM     32  C   UNL     1      -1.575  14.264  33.268  0.00  0.00    +0.128 A 
ATOM     33  C   UNL     1      -0.728  14.537  32.194  0.00  0.00    +0.046 A 
ATOM     34  C   UNL     1      -1.190  13.344  34.244  0.00  0.00    +0.046 A 
ATOM     35  C   UNL     1       0.504  13.890  32.095  0.00  0.00    +0.004 A 
ATOM     36  C   UNL     1       0.042  12.697  34.145  0.00  0.00    +0.004 A 
ATOM     37  C   UNL     1       0.889  12.970  33.071  0.00  0.00    +0.000 A 
ENDBRANCH   4  32
ENDBRANCH  31   4
ENDBRANCH   9  26
ENDBRANCH  13   6
TORSDOF 6
ENDMDL
MODEL 4
REMARK VINA RESULT:      -7.8     27.407     31.560
REMARK  Name = 11941667
REMARK  6 active torsions:
REMARK  status: ('A' for Active; 'I' for Inactive)
REMARK    1  A    between atoms: O_4  and  C_31
REMARK    2  A    between atoms: O_4  and  C_32
REMARK    3  A    between atoms: N_5  and  C_12
REMARK    4  A    between atoms: N_6  and  C_13
REMARK    5  A    between atoms: N_9  and  C_26
REMARK    6  A    between atoms: C_16  and  C_22
REMARK                            x       y       z     vdW  Elec       q    Type
REMARK                         _______ _______ _______ _____ _____    ______ ____
ROOT
ATOM      1  O   UNL     1      22.627   7.300  21.714  0.00  0.00    -0.370 OA
ATOM      2  O   UNL     1      21.472   5.950  24.279  0.00  0.00    -0.370 OA
ATOM     10  C   UNL     1      21.827   5.450  22.979  0.00  0.00    +0.171 C 
ATOM     11  C   UNL     1      21.449   6.517  21.969  0.00  0.00    +0.171 C 
ATOM     12  C   UNL     1      23.328   5.337  22.853  0.00  0.00    +0.130 C 
ATOM     13  C   UNL     1      20.410   7.349  22.683  0.00  0.00    +0.131 C 
ATOM     14  C   UNL     1      23.735   6.737  22.434  0.00  0.00    +0.185 C 
ATOM     15  C   UNL     1      20.839   7.230  24.134  0.00  0.00    +0.185 C 
ENDROOT
BRANCH  12   5
ATOM      5  N   UNL     1      23.667   4.387  21.816  0.00  0.00    -0.306 N 
ATOM      7  N   UNL     1      23.963   2.672  23.353  0.00  0.00    -0.219 NA
ATOM      8  N   UNL     1      24.275   2.303  20.992  0.00  0.00    -0.223 NA
ATOM     21  C   UNL     1      23.982   3.062  22.064  0.00  0.00    +0.216 A 
ATOM     22  C   UNL     1      24.276   1.375  23.559  0.00  0.00    +0.049 A 
ATOM     24  C   UNL     1      24.593   0.493  22.547  0.00  0.00    +0.043 A 
ATOM     25  C   UNL     1      24.577   1.017  21.271  0.00  0.00    +0.116 A 
ATOM     38  H   UNL     1      23.628   4.674  20.845  0.00  0.00    +0.149 HD
BRANCH  22  16
ATOM     16  C   UNL     1      24.266   0.892  24.992  0.00  0.00    +0.038 C 
ATOM     17  C   UNL     1      23.752  -0.550  25.179  0.00  0.00    +0.010 C 
ATOM     18  C   UNL     1      23.386   1.767  25.903  0.00  0.00    +0.010 C 
ATOM     19  C   UNL     1      22.509  -0.439  26.054  0.00  0.00    +0.001 C 
ATOM     20  C   UNL     1      22.774   0.795  26.899  0.00  0.00    +0.001 C 
ENDBRANCH  22  16
ENDBRANCH  12   5
BRANCH  13   6
ATOM      3  O   UNL     1      18.247   8.597  21.277  0.00  0.00    -0.252 OA
ATOM      6  N   UNL     1      19.084   6.811  22.484  0.00  0.00    -0.292 N 
ATOM      9  N   UNL     1      16.910   6.727  21.751  0.00  0.00    -0.269 N 
ATOM     23  C   UNL     1      18.081   7.488  21.781  0.00  0.00    +0.304 C 
ATOM     39  H   UNL     1      18.891   5.870  22.813  0.00  0.00    +0.151 HD
ATOM     40  H   UNL     1      16.939   5.826  22.221  0.00  0.00    +0.156 HD
BRANCH   9  26
ATOM     26  C   UNL     1      15.675   7.057  21.144  0.00  0.00    +0.035 A 
ATOM     27  C   UNL     1      15.403   6.632  19.844  0.00  0.00    +0.027 A 
ATOM     28  C   UNL     1      14.731   7.807  21.845  0.00  0.00    +0.027 A 
ATOM     29  C   UNL     1      14.186   6.957  19.244  0.00  0.00    +0.048 A 
ATOM     30  C   UNL     1      13.514   8.132  21.245  0.00  0.00    +0.048 A 
ATOM     31  C   UNL     1      13.242   7.706  19.944  0.00  0.00    +0.129 A 
BRANCH  31   4
ATOM      4  O   UNL     1      12.056   8.026  19.359  0.00  0.00    -0.456 OA
BRANCH   4  32
ATOM     32  C   UNL     1      12.094   8.576  18.088  0.00  0.00    +0.128 A 
ATOM     33  C   UNL     1      11.015   8.406  17.221  0.00  0.00    +0.046 A 
ATOM     34  C   UNL     1      13.212   9.302  17.675  0.00  0.00    +0.046 A 
ATOM     35  C   UNL     1      11.054   8.959  15.941  0.00  0.00    +0.004 A 
ATOM     36  C   UNL     1      13.251   9.855  16.396  0.00  0.00    +0.004 A 
ATOM     37  C   UNL     1      12.172   9.684  15.528  0.00  0.00    +0.000 A 
ENDBRANCH   4  32
ENDBRANCH  31   4
ENDBRANCH   9  26
ENDBRANCH  13   6
TORSDOF 6
ENDMDL
MODEL 5
REMARK VINA RESULT:      -7.8     27.820     32.026
REMARK  Name = 11941667
REMARK  6 active torsions:
REMARK  status: ('A' for Active; 'I' for Inactive)
REMARK    1  A    between atoms: O_4  and  C_31
REMARK    2  A    between atoms: O_4  and  C_32
REMARK    3  A    between atoms: N_5  and  C_12
REMARK    4  A    between atoms: N_6  and  C_13
REMARK    5  A    between atoms: N_9  and  C_26
REMARK    6  A    between atoms: C_16  and  C_22
REMARK                            x       y       z     vdW  Elec       q    Type
REMARK                         _______ _______ _______ _____ _____    ______ ____
ROOT
ATOM      1  O   UNL     1      23.181   5.586  20.437  0.00  0.00    -0.370 OA
ATOM      2  O   UNL     1      21.082   5.248  22.721  0.00  0.00    -0.370 OA
ATOM     10  C   UNL     1      21.656   4.336  21.769  0.00  0.00    +0.171 C 
ATOM     11  C   UNL     1      21.830   5.095  20.468  0.00  0.00    +0.171 C 
ATOM     12  C   UNL     1      23.065   3.971  22.176  0.00  0.00    +0.130 C 
ATOM     13  C   UNL     1      20.857   6.245  20.580  0.00  0.00    +0.131 C 
ATOM     14  C   UNL     1      23.884   5.108  21.594  0.00  0.00    +0.185 C 
ATOM     15  C   UNL     1      20.829   6.504  22.075  0.00  0.00    +0.185 C 
ENDROOT
BRANCH  12   5
ATOM      5  N   UNL     1      23.447   2.716  21.566  0.00  0.00    -0.306 N 
ATOM      7  N   UNL     1      24.950   2.238  23.271  0.00  0.00    -0.219 NA
ATOM      8  N   UNL     1      24.630   0.723  21.424  0.00  0.00    -0.223 NA
ATOM     21  C   UNL     1      24.383   1.855  22.111  0.00  0.00    +0.216 A 
ATOM     22  C   UNL     1      25.858   1.375  23.773  0.00  0.00    +0.049 A 
ATOM     24  C   UNL     1      26.198   0.183  23.167  0.00  0.00    +0.043 A 
ATOM     25  C   UNL     1      25.547  -0.094  21.983  0.00  0.00    +0.116 A 
ATOM     38  H   UNL     1      22.978   2.409  20.721  0.00  0.00    +0.149 HD
BRANCH  22  16
ATOM     16  C   UNL     1      26.519   1.764  25.075  0.00  0.00    +0.038 C 
ATOM     17  C   UNL     1      25.545   1.966  26.254  0.00  0.00    +0.010 C 
ATOM     18  C   UNL     1      27.312   3.080  24.963  0.00  0.00    +0.010 C 
ATOM     19  C   UNL     1      25.693   3.424  26.673  0.00  0.00    +0.001 C 
ATOM     20  C   UNL     1      27.131   3.756  26.313  0.00  0.00    +0.001 C 
ENDBRANCH  22  16
ENDBRANCH  12   5
BRANCH  13   6
ATOM      3  O   UNL     1      18.417   7.710  20.919  0.00  0.00    -0.252 OA
ATOM      6  N   UNL     1      19.551   5.873  20.089  0.00  0.00    -0.292 N 
ATOM      9  N   UNL     1      17.292   6.042  19.711  0.00  0.00    -0.269 N 
ATOM     23  C   UNL     1      18.405   6.649  20.298  0.00  0.00    +0.304 C 
ATOM     39  H   UNL     1      19.471   5.044  19.509  0.00  0.00    +0.151 HD
ATOM     40  H   UNL     1      17.453   5.159  19.233  0.00  0.00    +0.156 HD
BRANCH   9  26
ATOM     26  C   UNL     1      15.955   6.504  19.699  0.00  0.00    +0.035 A 
ATOM     27  C   UNL     1      15.204   6.497  20.874  0.00  0.00    +0.027 A 
ATOM     28  C   UNL     1      15.387   6.966  18.511  0.00  0.00    +0.027 A 
ATOM     29  C   UNL     1      13.886   6.952  20.863  0.00  0.00    +0.048 A 
ATOM     30  C   UNL     1      14.069   7.421  18.500  0.00  0.00    +0.048 A 
ATOM     31  C   UNL     1      13.318   7.414  19.676  0.00  0.00    +0.129 A 
BRANCH  31   4
ATOM      4  O   UNL     1      12.031   7.855  19.664  0.00  0.00    -0.456 OA
BRANCH   4  32
ATOM     32  C   UNL     1      11.663   8.790  20.617  0.00  0.00    +0.128 A 
ATOM     33  C   UNL     1      12.049  10.123  20.474  0.00  0.00    +0.046 A 
ATOM     34  C   UNL     1      10.905   8.399  21.721  0.00  0.00    +0.046 A 
ATOM     35  C   UNL     1      11.679  11.064  21.435  0.00  0.00    +0.004 A 
ATOM     36  C   UNL     1      10.534   9.340  22.682  0.00  0.00    +0.004 A 
ATOM     37  C   UNL     1      10.921  10.672  22.539  0.00  0.00    +0.000 A 
ENDBRANCH   4  32
ENDBRANCH  31   4
ENDBRANCH   9  26
ENDBRANCH  13   6
TORSDOF 6
ENDMDL
MODEL 6
REMARK VINA RESULT:      -7.8      7.213     13.299
REMARK  Name = 11941667
REMARK  6 active torsions:
REMARK  status: ('A' for Active; 'I' for Inactive)
REMARK    1  A    between atoms: O_4  and  C_31
REMARK    2  A    between atoms: O_4  and  C_32
REMARK    3  A    between atoms: N_5  and  C_12
REMARK    4  A    between atoms: N_6  and  C_13
REMARK    5  A    between atoms: N_9  and  C_26
REMARK    6  A    between atoms: C_16  and  C_22
REMARK                            x       y       z     vdW  Elec       q    Type
REMARK                         _______ _______ _______ _____ _____    ______ ____
ROOT
ATOM      1  O   UNL     1      -4.409  -9.713   9.780  0.00  0.00    -0.370 OA
ATOM      2  O   UNL     1      -5.670 -12.419  10.691  0.00  0.00    -0.370 OA
ATOM     10  C   UNL     1      -4.396 -11.797  10.930  0.00  0.00    +0.171 C 
ATOM     11  C   UNL     1      -3.996 -11.084   9.652  0.00  0.00    +0.171 C 
ATOM     12  C   UNL     1      -4.537 -10.686  11.944  0.00  0.00    +0.130 C 
ATOM     13  C   UNL     1      -4.802 -11.777   8.577  0.00  0.00    +0.131 C 
ATOM     14  C   UNL     1      -4.962  -9.506  11.089  0.00  0.00    +0.185 C 
ATOM     15  C   UNL     1      -6.055 -12.192   9.326  0.00  0.00    +0.185 C 
ENDROOT
BRANCH  12   5
ATOM      5  N   UNL     1      -3.258 -10.418  12.566  0.00  0.00    -0.306 N 
ATOM      7  N   UNL     1      -4.064 -10.964  14.674  0.00  0.00    -0.219 NA
ATOM      8  N   UNL     1      -1.779 -10.270  14.349  0.00  0.00    -0.223 NA
ATOM     21  C   UNL     1      -3.024 -10.556  13.922  0.00  0.00    +0.216 A 
ATOM     22  C   UNL     1      -3.800 -11.088  15.992  0.00  0.00    +0.049 A 
ATOM     24  C   UNL     1      -2.568 -10.826  16.554  0.00  0.00    +0.043 A 
ATOM     25  C   UNL     1      -1.585 -10.416  15.677  0.00  0.00    +0.116 A 
ATOM     38  H   UNL     1      -2.466 -10.163  11.987  0.00  0.00    +0.149 HD
BRANCH  22  16
ATOM     16  C   UNL     1      -4.940 -11.543  16.875  0.00  0.00    +0.038 C 
ATOM     17  C   UNL     1      -5.851 -10.407  17.382  0.00  0.00    +0.010 C 
ATOM     18  C   UNL     1      -4.451 -12.277  18.137  0.00  0.00    +0.010 C 
ATOM     19  C   UNL     1      -5.731 -10.423  18.901  0.00  0.00    +0.001 C 
ATOM     20  C   UNL     1      -5.438 -11.879  19.222  0.00  0.00    +0.001 C 
ENDBRANCH  22  16
ENDBRANCH  12   5
BRANCH  13   6
ATOM      3  O   UNL     1      -3.712 -12.070   5.943  0.00  0.00    -0.252 OA
ATOM      6  N   UNL     1      -4.099 -12.925   8.056  0.00  0.00    -0.292 N 
ATOM      9  N   UNL     1      -2.966 -14.216   6.532  0.00  0.00    -0.269 N 
ATOM     23  C   UNL     1      -3.595 -12.988   6.752  0.00  0.00    +0.304 C 
ATOM     39  H   UNL     1      -3.903 -13.697   8.686  0.00  0.00    +0.151 HD
ATOM     40  H   UNL     1      -2.958 -14.870   7.310  0.00  0.00    +0.156 HD
BRANCH   9  26
ATOM     26  C   UNL     1      -2.334 -14.669   5.350  0.00  0.00    +0.035 A 
ATOM     27  C   UNL     1      -3.101 -15.031   4.244  0.00  0.00    +0.027 A 
ATOM     28  C   UNL     1      -0.942 -14.754   5.292  0.00  0.00    +0.027 A 
ATOM     29  C   UNL     1      -2.478 -15.478   3.079  0.00  0.00    +0.048 A 
ATOM     30  C   UNL     1      -0.319 -15.201   4.127  0.00  0.00    +0.048 A 
ATOM     31  C   UNL     1      -1.088 -15.563   3.020  0.00  0.00    +0.129 A 
BRANCH  31   4
ATOM      4  O   UNL     1      -0.479 -16.002   1.884  0.00  0.00    -0.456 OA
BRANCH   4  32
ATOM     32  C   UNL     1       0.819 -15.580   1.647  0.00  0.00    +0.128 A 
ATOM     33  C   UNL     1       1.058 -14.287   1.183  0.00  0.00    +0.046 A 
ATOM     34  C   UNL     1       1.886 -16.450   1.872  0.00  0.00    +0.046 A 
ATOM     35  C   UNL     1       2.366 -13.863   0.943  0.00  0.00    +0.004 A 
ATOM     36  C   UNL     1       3.193 -16.026   1.633  0.00  0.00    +0.004 A 
ATOM     37  C   UNL     1       3.433 -14.732   1.168  0.00  0.00    +0.000 A 
ENDBRANCH   4  32
ENDBRANCH  31   4
ENDBRANCH   9  26
ENDBRANCH  13   6
TORSDOF 6
ENDMDL
MODEL 7
REMARK VINA RESULT:      -7.8      1.422      2.197
REMARK  Name = 11941667
REMARK  6 active torsions:
REMARK  status: ('A' for Active; 'I' for Inactive)
REMARK    1  A    between atoms: O_4  and  C_31
REMARK    2  A    between atoms: O_4  and  C_32
REMARK    3  A    between atoms: N_5  and  C_12
REMARK    4  A    between atoms: N_6  and  C_13
REMARK    5  A    between atoms: N_9  and  C_26
REMARK    6  A    between atoms: C_16  and  C_22
REMARK                            x       y       z     vdW  Elec       q    Type
REMARK                         _______ _______ _______ _____ _____    ______ ____
ROOT
ATOM      1  O   UNL     1      -5.682 -10.972  19.223  0.00  0.00    -0.370 OA
ATOM      2  O   UNL     1      -6.740 -12.076  16.503  0.00  0.00    -0.370 OA
ATOM     10  C   UNL     1      -5.619 -11.249  16.861  0.00  0.00    +0.171 C 
ATOM     11  C   UNL     1      -6.071 -10.344  17.991  0.00  0.00    +0.171 C 
ATOM     12  C   UNL     1      -4.524 -12.089  17.475  0.00  0.00    +0.130 C 
ATOM     13  C   UNL     1      -7.577 -10.322  17.865  0.00  0.00    +0.131 C 
ATOM     14  C   UNL     1      -4.941 -12.167  18.932  0.00  0.00    +0.185 C 
ATOM     15  C   UNL     1      -7.876 -11.696  17.294  0.00  0.00    +0.185 C 
ENDROOT
BRANCH  12   5
ATOM      5  N   UNL     1      -3.253 -11.407  17.356  0.00  0.00    -0.306 N 
ATOM      7  N   UNL     1      -3.451 -11.246  15.048  0.00  0.00    -0.219 NA
ATOM      8  N   UNL     1      -1.527 -10.367  16.202  0.00  0.00    -0.223 NA
ATOM     21  C   UNL     1      -2.720 -10.988  16.149  0.00  0.00    +0.216 A 
ATOM     22  C   UNL     1      -2.902 -10.824  13.889  0.00  0.00    +0.049 A 
ATOM     24  C   UNL     1      -1.687 -10.174  13.809  0.00  0.00    +0.043 A 
ATOM     25  C   UNL     1      -1.037  -9.971  15.009  0.00  0.00    +0.116 A 
ATOM     38  H   UNL     1      -2.733 -11.171  18.193  0.00  0.00    +0.149 HD
BRANCH  22  16
ATOM     16  C   UNL     1      -3.689 -11.091  12.626  0.00  0.00    +0.038 C 
ATOM     17  C   UNL     1      -2.843 -11.107  11.336  0.00  0.00    +0.010 C 
ATOM     18  C   UNL     1      -4.791 -10.043  12.386  0.00  0.00    +0.010 C 
ATOM     19  C   UNL     1      -3.380  -9.973  10.472  0.00  0.00    +0.001 C 
ATOM     20  C   UNL     1      -4.841  -9.874  10.875  0.00  0.00    +0.001 C 
ENDBRANCH  22  16
ENDBRANCH  12   5
BRANCH  13   6
ATOM      3  O   UNL     1     -10.281  -9.655  17.191  0.00  0.00    -0.252 OA
ATOM      6  N   UNL     1      -8.011  -9.277  16.968  0.00  0.00    -0.292 N 
ATOM      9  N   UNL     1      -9.472  -7.952  15.793  0.00  0.00    -0.269 N 
ATOM     23  C   UNL     1      -9.357  -9.015  16.692  0.00  0.00    +0.304 C 
ATOM     39  H   UNL     1      -7.309  -8.661  16.569  0.00  0.00    +0.151 HD
ATOM     40  H   UNL     1      -8.605  -7.529  15.472  0.00  0.00    +0.156 HD
BRANCH   9  26
ATOM     26  C   UNL     1     -10.656  -7.384  15.266  0.00  0.00    +0.035 A 
ATOM     27  C   UNL     1     -11.083  -6.131  15.704  0.00  0.00    +0.027 A 
ATOM     28  C   UNL     1     -11.396  -8.077  14.307  0.00  0.00    +0.027 A 
ATOM     29  C   UNL     1     -12.250  -5.571  15.185  0.00  0.00    +0.048 A 
ATOM     30  C   UNL     1     -12.563  -7.517  13.788  0.00  0.00    +0.048 A 
ATOM     31  C   UNL     1     -12.990  -6.263  14.228  0.00  0.00    +0.129 A 
BRANCH  31   4
ATOM      4  O   UNL     1     -14.131  -5.719  13.723  0.00  0.00    -0.456 OA
BRANCH   4  32
ATOM     32  C   UNL     1     -15.334  -6.313  14.068  0.00  0.00    +0.128 A 
ATOM     33  C   UNL     1     -16.276  -6.603  13.081  0.00  0.00    +0.046 A 
ATOM     34  C   UNL     1     -15.602  -6.621  15.401  0.00  0.00    +0.046 A 
ATOM     35  C   UNL     1     -17.488  -7.201  13.429  0.00  0.00    +0.004 A 
ATOM     36  C   UNL     1     -16.813  -7.219  15.749  0.00  0.00    +0.004 A 
ATOM     37  C   UNL     1     -17.757  -7.509  14.763  0.00  0.00    +0.000 A 
ENDBRANCH   4  32
ENDBRANCH  31   4
ENDBRANCH   9  26
ENDBRANCH  13   6
TORSDOF 6
ENDMDL
MODEL 8
REMARK VINA RESULT:      -7.7     23.664     27.659
REMARK  Name = 11941667
REMARK  6 active torsions:
REMARK  status: ('A' for Active; 'I' for Inactive)
REMARK    1  A    between atoms: O_4  and  C_31
REMARK    2  A    between atoms: O_4  and  C_32
REMARK    3  A    between atoms: N_5  and  C_12
REMARK    4  A    between atoms: N_6  and  C_13
REMARK    5  A    between atoms: N_9  and  C_26
REMARK    6  A    between atoms: C_16  and  C_22
REMARK                            x       y       z     vdW  Elec       q    Type
REMARK                         _______ _______ _______ _____ _____    ______ ____
ROOT
ATOM      1  O   UNL     1      18.642  -2.246  29.406  0.00  0.00    -0.370 OA
ATOM      2  O   UNL     1      18.607  -5.062  28.063  0.00  0.00    -0.370 OA
ATOM     10  C   UNL     1      18.101  -3.776  27.667  0.00  0.00    +0.171 C 
ATOM     11  C   UNL     1      17.587  -3.090  28.918  0.00  0.00    +0.171 C 
ATOM     12  C   UNL     1      19.231  -2.890  27.197  0.00  0.00    +0.130 C 
ATOM     13  C   UNL     1      17.334  -4.225  29.883  0.00  0.00    +0.131 C 
ATOM     14  C   UNL     1      19.749  -2.295  28.493  0.00  0.00    +0.185 C 
ATOM     15  C   UNL     1      18.381  -5.243  29.469  0.00  0.00    +0.185 C 
ENDROOT
BRANCH  12   5
ATOM      5  N   UNL     1      18.716  -1.846  26.338  0.00  0.00    -0.306 N 
ATOM      7  N   UNL     1      18.638  -3.265  24.502  0.00  0.00    -0.219 NA
ATOM      8  N   UNL     1      17.948  -0.962  24.333  0.00  0.00    -0.223 NA
ATOM     21  C   UNL     1      18.421  -2.032  24.999  0.00  0.00    +0.216 A 
ATOM     22  C   UNL     1      18.341  -3.411  23.193  0.00  0.00    +0.049 A 
ATOM     24  C   UNL     1      17.848  -2.395  22.401  0.00  0.00    +0.043 A 
ATOM     25  C   UNL     1      17.671  -1.180  23.030  0.00  0.00    +0.116 A 
ATOM     38  H   UNL     1      18.506  -0.935  26.731  0.00  0.00    +0.149 HD
BRANCH  22  16
ATOM     16  C   UNL     1      18.568  -4.780  22.592  0.00  0.00    +0.038 C 
ATOM     17  C   UNL     1      17.458  -5.807  22.897  0.00  0.00    +0.010 C 
ATOM     18  C   UNL     1      19.877  -5.428  23.082  0.00  0.00    +0.010 C 
ATOM     19  C   UNL     1      18.130  -6.925  23.684  0.00  0.00    +0.001 C 
ATOM     20  C   UNL     1      19.561  -6.912  23.177  0.00  0.00    +0.001 C 
ENDBRANCH  22  16
ENDBRANCH  12   5
BRANCH  13   6
ATOM      3  O   UNL     1      15.708  -5.402  31.928  0.00  0.00    -0.252 OA
ATOM      6  N   UNL     1      16.000  -4.755  29.728  0.00  0.00    -0.292 N 
ATOM      9  N   UNL     1      14.017  -5.740  30.336  0.00  0.00    -0.269 N 
ATOM     23  C   UNL     1      15.270  -5.314  30.783  0.00  0.00    +0.304 C 
ATOM     39  H   UNL     1      15.543  -4.656  28.826  0.00  0.00    +0.151 HD
ATOM     40  H   UNL     1      13.809  -5.594  29.351  0.00  0.00    +0.156 HD
BRANCH   9  26
ATOM     26  C   UNL     1      12.989  -6.355  31.089  0.00  0.00    +0.035 A 
ATOM     27  C   UNL     1      12.236  -5.600  31.988  0.00  0.00    +0.027 A 
ATOM     28  C   UNL     1      12.730  -7.717  30.934  0.00  0.00    +0.027 A 
ATOM     29  C   UNL     1      11.223  -6.206  32.731  0.00  0.00    +0.048 A 
ATOM     30  C   UNL     1      11.717  -8.323  31.677  0.00  0.00    +0.048 A 
ATOM     31  C   UNL     1      10.963  -7.568  32.575  0.00  0.00    +0.129 A 
BRANCH  31   4
ATOM      4  O   UNL     1       9.977  -8.160  33.302  0.00  0.00    -0.456 OA
BRANCH   4  32
ATOM     32  C   UNL     1       8.691  -8.124  32.790  0.00  0.00    +0.128 A 
ATOM     33  C   UNL     1       8.345  -8.942  31.714  0.00  0.00    +0.046 A 
ATOM     34  C   UNL     1       7.741  -7.270  33.350  0.00  0.00    +0.046 A 
ATOM     35  C   UNL     1       7.050  -8.904  31.197  0.00  0.00    +0.004 A 
ATOM     36  C   UNL     1       6.446  -7.233  32.834  0.00  0.00    +0.004 A 
ATOM     37  C   UNL     1       6.099  -8.050  31.758  0.00  0.00    +0.000 A 
ENDBRANCH   4  32
ENDBRANCH  31   4
ENDBRANCH   9  26
ENDBRANCH  13   6
TORSDOF 6
ENDMDL
MODEL 9
REMARK VINA RESULT:      -7.7     24.503     28.030
REMARK  Name = 11941667
REMARK  6 active torsions:
REMARK  status: ('A' for Active; 'I' for Inactive)
REMARK    1  A    between atoms: O_4  and  C_31
REMARK    2  A    between atoms: O_4  and  C_32
REMARK    3  A    between atoms: N_5  and  C_12
REMARK    4  A    between atoms: N_6  and  C_13
REMARK    5  A    between atoms: N_9  and  C_26
REMARK    6  A    between atoms: C_16  and  C_22
REMARK                            x       y       z     vdW  Elec       q    Type
REMARK                         _______ _______ _______ _____ _____    ______ ____
ROOT
ATOM      1  O   UNL     1     -12.990  10.425  34.383  0.00  0.00    -0.370 OA
ATOM      2  O   UNL     1     -11.668   9.145  31.863  0.00  0.00    -0.370 OA
ATOM     10  C   UNL     1     -11.998   8.637  33.166  0.00  0.00    +0.171 C 
ATOM     11  C   UNL     1     -11.740   9.751  34.163  0.00  0.00    +0.171 C 
ATOM     12  C   UNL     1     -13.484   8.385  33.270  0.00  0.00    +0.130 C 
ATOM     13  C   UNL     1     -10.770  10.664  33.450  0.00  0.00    +0.131 C 
ATOM     14  C   UNL     1     -14.027   9.748  33.656  0.00  0.00    +0.185 C 
ATOM     15  C   UNL     1     -11.160  10.482  31.994  0.00  0.00    +0.185 C 
ENDROOT
BRANCH  12   5
ATOM      5  N   UNL     1     -13.751   7.425  34.319  0.00  0.00    -0.306 N 
ATOM      7  N   UNL     1     -14.112   5.714  32.791  0.00  0.00    -0.219 NA
ATOM      8  N   UNL     1     -14.285   5.329  35.164  0.00  0.00    -0.223 NA
ATOM     21  C   UNL     1     -14.063   6.098  34.081  0.00  0.00    +0.216 A 
ATOM     22  C   UNL     1     -14.419   4.415  32.595  0.00  0.00    +0.049 A 
ATOM     24  C   UNL     1     -14.666   3.524  33.619  0.00  0.00    +0.043 A 
ATOM     25  C   UNL     1     -14.585   4.041  34.895  0.00  0.00    +0.116 A 
ATOM     38  H   UNL     1     -13.661   7.708  35.288  0.00  0.00    +0.149 HD
BRANCH  22  16
ATOM     16  C   UNL     1     -14.484   3.939  31.162  0.00  0.00    +0.038 C 
ATOM     17  C   UNL     1     -15.879   3.461  30.708  0.00  0.00    +0.010 C 
ATOM     18  C   UNL     1     -13.533   2.760  30.888  0.00  0.00    +0.010 C 
ATOM     19  C   UNL     1     -15.717   1.990  30.344  0.00  0.00    +0.001 C 
ATOM     20  C   UNL     1     -14.273   1.891  29.883  0.00  0.00    +0.001 C 
ENDBRANCH  22  16
ENDBRANCH  12   5
BRANCH  13   6
ATOM      3  O   UNL     1      -9.331  10.812  35.924  0.00  0.00    -0.252 OA
ATOM      6  N   UNL     1      -9.404  10.257  33.680  0.00  0.00    -0.292 N 
ATOM      9  N   UNL     1      -7.460   9.893  34.846  0.00  0.00    -0.269 N 
ATOM     23  C   UNL     1      -8.773  10.362  34.925  0.00  0.00    +0.304 C 
ATOM     39  H   UNL     1      -8.898   9.813  32.920  0.00  0.00    +0.151 HD
ATOM     40  H   UNL     1      -7.150   9.554  33.939  0.00  0.00    +0.156 HD
BRANCH   9  26
ATOM     26  C   UNL     1      -6.496   9.831  35.880  0.00  0.00    +0.035 A 
ATOM     27  C   UNL     1      -5.270  10.478  35.730  0.00  0.00    +0.027 A 
ATOM     28  C   UNL     1      -6.771   9.121  37.049  0.00  0.00    +0.027 A 
ATOM     29  C   UNL     1      -4.319  10.416  36.748  0.00  0.00    +0.048 A 
ATOM     30  C   UNL     1      -5.820   9.059  38.067  0.00  0.00    +0.048 A 
ATOM     31  C   UNL     1      -4.594   9.707  37.917  0.00  0.00    +0.129 A 
BRANCH  31   4
ATOM      4  O   UNL     1      -3.665   9.644  38.910  0.00  0.00    -0.456 OA
BRANCH   4  32
ATOM     32  C   UNL     1      -2.782   8.577  38.896  0.00  0.00    +0.128 A 
ATOM     33  C   UNL     1      -2.991   7.487  39.741  0.00  0.00    +0.046 A 
ATOM     34  C   UNL     1      -1.683   8.593  38.037  0.00  0.00    +0.046 A 
ATOM     35  C   UNL     1      -2.100   6.414  39.728  0.00  0.00    +0.004 A 
ATOM     36  C   UNL     1      -0.793   7.519  38.023  0.00  0.00    +0.004 A 
ATOM     37  C   UNL     1      -1.001   6.429  38.868  0.00  0.00    +0.000 A 
ENDBRANCH   4  32
ENDBRANCH  31   4
ENDBRANCH   9  26
ENDBRANCH  13   6
TORSDOF 6
ENDMDL
MODEL 10
REMARK VINA RESULT:      -7.7      8.859     13.901
REMARK  Name = 11941667
REMARK  6 active torsions:
REMARK  status: ('A' for Active; 'I' for Inactive)
REMARK    1  A    between atoms: O_4  and  C_31
REMARK    2  A    between atoms: O_4  and  C_32
REMARK    3  A    between atoms: N_5  and  C_12
REMARK    4  A    between atoms: N_6  and  C_13
REMARK    5  A    between atoms: N_9  and  C_26
REMARK    6  A    between atoms: C_16  and  C_22
REMARK                            x       y       z     vdW  Elec       q    Type
REMARK                         _______ _______ _______ _____ _____    ______ ____
ROOT
ATOM      1  O   UNL     1      -9.255 -10.241   4.254  0.00  0.00    -0.370 OA
ATOM      2  O   UNL     1      -8.510  -7.311   5.029  0.00  0.00    -0.370 OA
ATOM     10  C   UNL     1      -8.009  -8.225   4.039  0.00  0.00    +0.171 C 
ATOM     11  C   UNL     1      -8.027  -9.611   4.656  0.00  0.00    +0.171 C 
ATOM     12  C   UNL     1      -8.973  -8.323   2.881  0.00  0.00    +0.130 C 
ATOM     13  C   UNL     1      -8.033  -9.351   6.145  0.00  0.00    +0.131 C 
ATOM     14  C   UNL     1      -9.962  -9.371   3.358  0.00  0.00    +0.185 C 
ATOM     15  C   UNL     1      -8.777  -8.032   6.242  0.00  0.00    +0.185 C 
ENDROOT
BRANCH  12   5
ATOM      5  N   UNL     1      -8.281  -8.791   1.699  0.00  0.00    -0.306 N 
ATOM      7  N   UNL     1     -10.004  -8.104   0.303  0.00  0.00    -0.219 NA
ATOM      8  N   UNL     1      -8.028  -9.164  -0.579  0.00  0.00    -0.223 NA
ATOM     21  C   UNL     1      -8.793  -8.682   0.418  0.00  0.00    +0.216 A 
ATOM     22  C   UNL     1     -10.474  -8.014  -0.959  0.00  0.00    +0.049 A 
ATOM     24  C   UNL     1      -9.787  -8.468  -2.066  0.00  0.00    +0.043 A 
ATOM     25  C   UNL     1      -8.557  -9.040  -1.814  0.00  0.00    +0.116 A 
ATOM     38  H   UNL     1      -7.348  -9.177   1.788  0.00  0.00    +0.149 HD
BRANCH  22  16
ATOM     16  C   UNL     1     -11.831  -7.371  -1.137  0.00  0.00    +0.038 C 
ATOM     17  C   UNL     1     -11.793  -5.844  -1.355  0.00  0.00    +0.010 C 
ATOM     18  C   UNL     1     -12.751  -7.594   0.078  0.00  0.00    +0.010 C 
ATOM     19  C   UNL     1     -12.552  -5.237  -0.181  0.00  0.00    +0.001 C 
ATOM     20  C   UNL     1     -13.560  -6.311   0.189  0.00  0.00    +0.001 C 
ENDBRANCH  22  16
ENDBRANCH  12   5
BRANCH  13   6
ATOM      3  O   UNL     1      -7.033 -10.447   8.596  0.00  0.00    -0.252 OA
ATOM      6  N   UNL     1      -6.689  -9.232   6.659  0.00  0.00    -0.292 N 
ATOM      9  N   UNL     1      -4.932  -9.523   8.108  0.00  0.00    -0.269 N 
ATOM     23  C   UNL     1      -6.280  -9.801   7.870  0.00  0.00    +0.304 C 
ATOM     39  H   UNL     1      -5.991  -8.771   6.084  0.00  0.00    +0.151 HD
ATOM     40  H   UNL     1      -4.449  -8.971   7.404  0.00  0.00    +0.156 HD
BRANCH   9  26
ATOM     26  C   UNL     1      -4.146  -9.917   9.217  0.00  0.00    +0.035 A 
ATOM     27  C   UNL     1      -3.358  -8.977   9.881  0.00  0.00    +0.027 A 
ATOM     28  C   UNL     1      -4.157 -11.245   9.644  0.00  0.00    +0.027 A 
ATOM     29  C   UNL     1      -2.583  -9.364  10.974  0.00  0.00    +0.048 A 
ATOM     30  C   UNL     1      -3.381 -11.632  10.737  0.00  0.00    +0.048 A 
ATOM     31  C   UNL     1      -2.594 -10.691  11.402  0.00  0.00    +0.129 A 
BRANCH  31   4
ATOM      4  O   UNL     1      -1.835 -11.070  12.466  0.00  0.00    -0.456 OA
BRANCH   4  32
ATOM     32  C   UNL     1      -2.376 -10.910  13.731  0.00  0.00    +0.128 A 
ATOM     33  C   UNL     1      -3.758 -10.802  13.890  0.00  0.00    +0.046 A 
ATOM     34  C   UNL     1      -1.540 -10.857  14.846  0.00  0.00    +0.046 A 
ATOM     35  C   UNL     1      -4.303 -10.640  15.164  0.00  0.00    +0.004 A 
ATOM     36  C   UNL     1      -2.084 -10.695  16.119  0.00  0.00    +0.004 A 
ATOM     37  C   UNL     1      -3.466 -10.587  16.279  0.00  0.00    +0.000 A 
ENDBRANCH   4  32
ENDBRANCH  31   4
ENDBRANCH   9  26
ENDBRANCH  13   6
TORSDOF 6
ENDMDL
