MODEL 1
REMARK VINA RESULT:      -6.8      0.000      0.000
REMARK  Name = 45784266
REMARK  6 active torsions:
REMARK  status: ('A' for Active; 'I' for Inactive)
REMARK    1  A    between atoms: O_4  and  C_17
REMARK    2  A    between atoms: O_4  and  C_27
REMARK    3  A    between atoms: N_5  and  C_13
REMARK    4  A    between atoms: C_8  and  C_12
REMARK    5  A    between atoms: C_13  and  C_14
REMARK    6  A    between atoms: C_21  and  C_26
REMARK                            x       y       z     vdW  Elec       q    Type
REMARK                         _______ _______ _______ _____ _____    ______ ____
ROOT
ATOM      5  N   UNL     1      21.748   4.844  21.369  0.00  0.00    -0.297 NA
ATOM      8  C   UNL     1      20.101   6.418  20.813  0.00  0.00    +0.070 C 
ATOM      9  C   UNL     1      20.574   6.656  22.258  0.00  0.00    +0.028 C 
ATOM     10  C   UNL     1      20.608   5.011  20.465  0.00  0.00    +0.096 C 
ATOM     11  C   UNL     1      21.291   5.372  22.654  0.00  0.00    +0.085 C 
ENDROOT
BRANCH   8  12
ATOM      6  N   UNL     1      17.792   7.002  21.605  0.00  0.00    -0.342 N 
ATOM      7  N   UNL     1      17.952   6.351  19.486  0.00  0.00    -0.232 NA
ATOM     12  C   UNL     1      18.614   6.579  20.598  0.00  0.00    +0.113 A 
ATOM     15  C   UNL     1      16.514   7.049  21.109  0.00  0.00    +0.067 A 
ATOM     16  C   UNL     1      16.640   6.638  19.785  0.00  0.00    +0.089 A 
ATOM     18  C   UNL     1      15.296   7.405  21.689  0.00  0.00    +0.040 A 
ATOM     20  C   UNL     1      15.493   6.573  18.976  0.00  0.00    +0.030 A 
ATOM     21  C   UNL     1      14.164   7.334  20.869  0.00  0.00    +0.057 A 
ATOM     22  C   UNL     1      14.259   6.925  19.536  0.00  0.00    +0.014 A 
ATOM     28  H   UNL     1      18.072   7.238  22.547  0.00  0.00    +0.167 HD
BRANCH  21  26
ATOM      1  F   UNL     1      12.152   6.627  21.920  0.00  0.00    -0.166 F 
ATOM      2  F   UNL     1      12.901   8.595  22.462  0.00  0.00    -0.166 F 
ATOM      3  F   UNL     1      11.996   8.280  20.516  0.00  0.00    -0.166 F 
ATOM     26  C   UNL     1      12.830   7.704  21.430  0.00  0.00    +0.417 C 
ENDBRANCH  21  26
ENDBRANCH   8  12
BRANCH   5  13
ATOM     13  C   UNL     1      22.182   3.457  21.462  0.00  0.00    +0.123 C 
BRANCH  13  14
ATOM     14  C   UNL     1      23.622   3.293  21.055  0.00  0.00    +0.008 A 
ATOM     17  C   UNL     1      24.397   2.258  21.578  0.00  0.00    +0.124 A 
ATOM     19  C   UNL     1      24.180   4.192  20.146  0.00  0.00    +0.008 A 
ATOM     23  C   UNL     1      25.730   2.121  21.190  0.00  0.00    +0.046 A 
ATOM     24  C   UNL     1      25.513   4.056  19.759  0.00  0.00    +0.001 A 
ATOM     25  C   UNL     1      26.289   3.020  20.281  0.00  0.00    +0.004 A 
BRANCH  17   4
ATOM      4  O   UNL     1      23.868   1.372  22.467  0.00  0.00    -0.495 OA
ATOM     27  C   UNL     1      24.735   0.888  23.492  0.00  0.00    +0.277 C 
ENDBRANCH  17   4
ENDBRANCH  13  14
ENDBRANCH   5  13
TORSDOF 5
ENDMDL
MODEL 2
REMARK VINA RESULT:      -6.8     32.219     35.413
REMARK  Name = 45784266
REMARK  6 active torsions:
REMARK  status: ('A' for Active; 'I' for Inactive)
REMARK    1  A    between atoms: O_4  and  C_17
REMARK    2  A    between atoms: O_4  and  C_27
REMARK    3  A    between atoms: N_5  and  C_13
REMARK    4  A    between atoms: C_8  and  C_12
REMARK    5  A    between atoms: C_13  and  C_14
REMARK    6  A    between atoms: C_21  and  C_26
REMARK                            x       y       z     vdW  Elec       q    Type
REMARK                         _______ _______ _______ _____ _____    ______ ____
ROOT
ATOM      5  N   UNL     1     -15.195   6.275  21.894  0.00  0.00    -0.297 NA
ATOM      8  C   UNL     1     -15.990   4.292  22.861  0.00  0.00    +0.070 C 
ATOM      9  C   UNL     1     -17.177   5.207  22.514  0.00  0.00    +0.028 C 
ATOM     10  C   UNL     1     -14.761   5.211  22.801  0.00  0.00    +0.096 C 
ATOM     11  C   UNL     1     -16.564   6.586  22.305  0.00  0.00    +0.085 C 
ENDROOT
BRANCH   8  12
ATOM      6  N   UNL     1     -15.827   4.179  25.363  0.00  0.00    -0.342 N 
ATOM      7  N   UNL     1     -16.496   2.316  24.352  0.00  0.00    -0.232 NA
ATOM     12  C   UNL     1     -16.116   3.562  24.178  0.00  0.00    +0.113 A 
ATOM     15  C   UNL     1     -16.034   3.270  26.370  0.00  0.00    +0.067 A 
ATOM     16  C   UNL     1     -16.451   2.116  25.713  0.00  0.00    +0.089 A 
ATOM     18  C   UNL     1     -15.897   3.357  27.755  0.00  0.00    +0.040 A 
ATOM     20  C   UNL     1     -16.753   0.970  26.468  0.00  0.00    +0.030 A 
ATOM     21  C   UNL     1     -16.203   2.207  28.491  0.00  0.00    +0.057 A 
ATOM     22  C   UNL     1     -16.623   1.034  27.861  0.00  0.00    +0.014 A 
ATOM     28  H   UNL     1     -15.515   5.134  25.481  0.00  0.00    +0.167 HD
BRANCH  21  26
ATOM      1  F   UNL     1     -17.089   2.928  30.576  0.00  0.00    -0.166 F 
ATOM      2  F   UNL     1     -16.089   0.997  30.552  0.00  0.00    -0.166 F 
ATOM      3  F   UNL     1     -14.923   2.821  30.417  0.00  0.00    -0.166 F 
ATOM     26  C   UNL     1     -16.077   2.237  29.979  0.00  0.00    +0.417 C 
ENDBRANCH  21  26
ENDBRANCH   8  12
BRANCH   5  13
ATOM     13  C   UNL     1     -14.323   7.440  21.948  0.00  0.00    +0.123 C 
BRANCH  13  14
ATOM     14  C   UNL     1     -13.442   7.536  20.731  0.00  0.00    +0.008 A 
ATOM     17  C   UNL     1     -13.959   7.968  19.510  0.00  0.00    +0.124 A 
ATOM     19  C   UNL     1     -12.096   7.186  20.834  0.00  0.00    +0.008 A 
ATOM     23  C   UNL     1     -13.129   8.052  18.392  0.00  0.00    +0.046 A 
ATOM     24  C   UNL     1     -11.266   7.268  19.716  0.00  0.00    +0.001 A 
ATOM     25  C   UNL     1     -11.782   7.701  18.494  0.00  0.00    +0.004 A 
BRANCH  17   4
ATOM      4  O   UNL     1     -15.271   8.313  19.391  0.00  0.00    -0.495 OA
ATOM     27  C   UNL     1     -16.060   7.557  18.474  0.00  0.00    +0.277 C 
ENDBRANCH  17   4
ENDBRANCH  13  14
ENDBRANCH   5  13
TORSDOF 5
ENDMDL
MODEL 3
REMARK VINA RESULT:      -6.8     28.442     30.547
REMARK  Name = 45784266
REMARK  6 active torsions:
REMARK  status: ('A' for Active; 'I' for Inactive)
REMARK    1  A    between atoms: O_4  and  C_17
REMARK    2  A    between atoms: O_4  and  C_27
REMARK    3  A    between atoms: N_5  and  C_13
REMARK    4  A    between atoms: C_8  and  C_12
REMARK    5  A    between atoms: C_13  and  C_14
REMARK    6  A    between atoms: C_21  and  C_26
REMARK                            x       y       z     vdW  Elec       q    Type
REMARK                         _______ _______ _______ _____ _____    ______ ____
ROOT
ATOM      5  N   UNL     1      -2.153 -10.968  13.699  0.00  0.00    -0.297 NA
ATOM      8  C   UNL     1      -3.287 -10.219  15.610  0.00  0.00    +0.070 C 
ATOM      9  C   UNL     1      -1.945 -10.851  16.022  0.00  0.00    +0.028 C 
ATOM     10  C   UNL     1      -3.513 -10.692  14.168  0.00  0.00    +0.096 C 
ATOM     11  C   UNL     1      -1.505 -11.663  14.810  0.00  0.00    +0.085 C 
ENDROOT
BRANCH   8  12
ATOM      6  N   UNL     1      -5.651  -9.907  16.392  0.00  0.00    -0.342 N 
ATOM      7  N   UNL     1      -4.455 -11.413  17.506  0.00  0.00    -0.232 NA
ATOM     12  C   UNL     1      -4.446 -10.539  16.524  0.00  0.00    +0.113 A 
ATOM     15  C   UNL     1      -6.493 -10.405  17.353  0.00  0.00    +0.067 A 
ATOM     16  C   UNL     1      -5.724 -11.344  18.035  0.00  0.00    +0.089 A 
ATOM     18  C   UNL     1      -7.821 -10.125  17.674  0.00  0.00    +0.040 A 
ATOM     20  C   UNL     1      -6.297 -12.053  19.104  0.00  0.00    +0.030 A 
ATOM     21  C   UNL     1      -8.376 -10.841  18.740  0.00  0.00    +0.057 A 
ATOM     22  C   UNL     1      -7.629 -11.788  19.444  0.00  0.00    +0.014 A 
ATOM     28  H   UNL     1      -5.883  -9.197  15.710  0.00  0.00    +0.167 HD
BRANCH  21  26
ATOM      1  F   UNL     1      -9.954 -10.481  20.482  0.00  0.00    -0.166 F 
ATOM      2  F   UNL     1     -10.306  -9.433  18.610  0.00  0.00    -0.166 F 
ATOM      3  F   UNL     1     -10.654 -11.570  18.736  0.00  0.00    -0.166 F 
ATOM     26  C   UNL     1      -9.795 -10.586  19.132  0.00  0.00    +0.417 C 
ENDBRANCH  21  26
ENDBRANCH   8  12
BRANCH   5  13
ATOM     13  C   UNL     1      -2.138 -11.750  12.471  0.00  0.00    +0.123 C 
BRANCH  13  14
ATOM     14  C   UNL     1      -2.855 -11.047  11.350  0.00  0.00    +0.008 A 
ATOM     17  C   UNL     1      -3.901 -11.670  10.671  0.00  0.00    +0.124 A 
ATOM     19  C   UNL     1      -2.461  -9.758  10.992  0.00  0.00    +0.008 A 
ATOM     23  C   UNL     1      -4.555 -11.004   9.634  0.00  0.00    +0.046 A 
ATOM     24  C   UNL     1      -3.113  -9.091   9.954  0.00  0.00    +0.001 A 
ATOM     25  C   UNL     1      -4.160  -9.715   9.275  0.00  0.00    +0.004 A 
BRANCH  17   4
ATOM      4  O   UNL     1      -4.298 -12.929  11.007  0.00  0.00    -0.495 OA
ATOM     27  C   UNL     1      -4.203 -13.931   9.995  0.00  0.00    +0.277 C 
ENDBRANCH  17   4
ENDBRANCH  13  14
ENDBRANCH   5  13
TORSDOF 5
ENDMDL
MODEL 4
REMARK VINA RESULT:      -6.7     29.737     32.761
REMARK  Name = 45784266
REMARK  6 active torsions:
REMARK  status: ('A' for Active; 'I' for Inactive)
REMARK    1  A    between atoms: O_4  and  C_17
REMARK    2  A    between atoms: O_4  and  C_27
REMARK    3  A    between atoms: N_5  and  C_13
REMARK    4  A    between atoms: C_8  and  C_12
REMARK    5  A    between atoms: C_13  and  C_14
REMARK    6  A    between atoms: C_21  and  C_26
REMARK                            x       y       z     vdW  Elec       q    Type
REMARK                         _______ _______ _______ _____ _____    ______ ____
ROOT
ATOM      5  N   UNL     1      -8.535  -9.393  17.290  0.00  0.00    -0.297 NA
ATOM      8  C   UNL     1     -10.671  -8.428  17.235  0.00  0.00    +0.070 C 
ATOM      9  C   UNL     1     -10.794  -9.957  17.116  0.00  0.00    +0.028 C 
ATOM     10  C   UNL     1      -9.194  -8.133  16.941  0.00  0.00    +0.096 C 
ATOM     11  C   UNL     1      -9.398 -10.436  16.737  0.00  0.00    +0.085 C 
ENDROOT
BRANCH   8  12
ATOM      6  N   UNL     1     -11.165  -6.627  15.558  0.00  0.00    -0.342 N 
ATOM      7  N   UNL     1     -12.911  -7.824  16.235  0.00  0.00    -0.232 NA
ATOM     12  C   UNL     1     -11.615  -7.645  16.352  0.00  0.00    +0.113 A 
ATOM     15  C   UNL     1     -12.245  -6.115  14.883  0.00  0.00    +0.067 A 
ATOM     16  C   UNL     1     -13.322  -6.878  15.323  0.00  0.00    +0.089 A 
ATOM     18  C   UNL     1     -12.366  -5.081  13.954  0.00  0.00    +0.040 A 
ATOM     20  C   UNL     1     -14.605  -6.608  14.817  0.00  0.00    +0.030 A 
ATOM     21  C   UNL     1     -13.650  -4.826  13.461  0.00  0.00    +0.057 A 
ATOM     22  C   UNL     1     -14.751  -5.575  13.883  0.00  0.00    +0.014 A 
ATOM     28  H   UNL     1     -10.210  -6.305  15.479  0.00  0.00    +0.167 HD
BRANCH  21  26
ATOM      1  F   UNL     1     -12.698  -3.038  12.215  0.00  0.00    -0.166 F 
ATOM      2  F   UNL     1     -14.277  -4.176  11.245  0.00  0.00    -0.166 F 
ATOM      3  F   UNL     1     -14.764  -2.800  12.849  0.00  0.00    -0.166 F 
ATOM     26  C   UNL     1     -13.846  -3.732  12.462  0.00  0.00    +0.417 C 
ENDBRANCH  21  26
ENDBRANCH   8  12
BRANCH   5  13
ATOM     13  C   UNL     1      -7.175  -9.469  16.775  0.00  0.00    +0.123 C 
BRANCH  13  14
ATOM     14  C   UNL     1      -6.276 -10.266  17.683  0.00  0.00    +0.008 A 
ATOM     17  C   UNL     1      -5.050 -10.749  17.228  0.00  0.00    +0.124 A 
ATOM     19  C   UNL     1      -6.684 -10.521  18.992  0.00  0.00    +0.008 A 
ATOM     23  C   UNL     1      -4.230 -11.486  18.082  0.00  0.00    +0.046 A 
ATOM     24  C   UNL     1      -5.865 -11.259  19.847  0.00  0.00    +0.001 A 
ATOM     25  C   UNL     1      -4.637 -11.742  19.392  0.00  0.00    +0.004 A 
BRANCH  17   4
ATOM      4  O   UNL     1      -4.637 -10.510  15.952  0.00  0.00    -0.495 OA
ATOM     27  C   UNL     1      -3.344 -10.991  15.588  0.00  0.00    +0.277 C 
ENDBRANCH  17   4
ENDBRANCH  13  14
ENDBRANCH   5  13
TORSDOF 5
ENDMDL
MODEL 5
REMARK VINA RESULT:      -6.7     28.852     33.191
REMARK  Name = 45784266
REMARK  6 active torsions:
REMARK  status: ('A' for Active; 'I' for Inactive)
REMARK    1  A    between atoms: O_4  and  C_17
REMARK    2  A    between atoms: O_4  and  C_27
REMARK    3  A    between atoms: N_5  and  C_13
REMARK    4  A    between atoms: C_8  and  C_12
REMARK    5  A    between atoms: C_13  and  C_14
REMARK    6  A    between atoms: C_21  and  C_26
REMARK                            x       y       z     vdW  Elec       q    Type
REMARK                         _______ _______ _______ _____ _____    ______ ____
ROOT
ATOM      5  N   UNL     1     -11.042  -7.409  15.832  0.00  0.00    -0.297 NA
ATOM      8  C   UNL     1      -9.634  -9.218  16.327  0.00  0.00    +0.070 C 
ATOM      9  C   UNL     1     -10.272  -8.692  17.625  0.00  0.00    +0.028 C 
ATOM     10  C   UNL     1      -9.866  -8.101  15.300  0.00  0.00    +0.096 C 
ATOM     11  C   UNL     1     -10.800  -7.307  17.271  0.00  0.00    +0.085 C 
ENDROOT
BRANCH   8  12
ATOM      6  N   UNL     1      -7.348  -9.600  15.366  0.00  0.00    -0.342 N 
ATOM      7  N   UNL     1      -7.562 -10.000  17.542  0.00  0.00    -0.232 NA
ATOM     12  C   UNL     1      -8.182  -9.614  16.449  0.00  0.00    +0.113 A 
ATOM     15  C   UNL     1      -6.106 -10.004  15.788  0.00  0.00    +0.067 A 
ATOM     16  C   UNL     1      -6.266 -10.247  17.149  0.00  0.00    +0.089 A 
ATOM     18  C   UNL     1      -4.896 -10.171  15.116  0.00  0.00    +0.040 A 
ATOM     20  C   UNL     1      -5.162 -10.685  17.901  0.00  0.00    +0.030 A 
ATOM     21  C   UNL     1      -3.807 -10.608  15.880  0.00  0.00    +0.057 A 
ATOM     22  C   UNL     1      -3.936 -10.861  17.247  0.00  0.00    +0.014 A 
ATOM     28  H   UNL     1      -7.597  -9.339  14.422  0.00  0.00    +0.167 HD
BRANCH  21  26
ATOM      1  F   UNL     1      -1.461 -10.220  15.907  0.00  0.00    -0.166 F 
ATOM      2  F   UNL     1      -2.131 -12.118  15.083  0.00  0.00    -0.166 F 
ATOM      3  F   UNL     1      -2.421 -10.287  13.957  0.00  0.00    -0.166 F 
ATOM     26  C   UNL     1      -2.482 -10.805  15.218  0.00  0.00    +0.417 C 
ENDBRANCH  21  26
ENDBRANCH   8  12
BRANCH   5  13
ATOM     13  C   UNL     1     -11.247  -6.108  15.212  0.00  0.00    +0.123 C 
BRANCH  13  14
ATOM     14  C   UNL     1     -12.658  -5.942  14.713  0.00  0.00    +0.008 A 
ATOM     17  C   UNL     1     -12.932  -5.139  13.607  0.00  0.00    +0.124 A 
ATOM     19  C   UNL     1     -13.695  -6.601  15.372  0.00  0.00    +0.008 A 
ATOM     23  C   UNL     1     -14.246  -4.995  13.158  0.00  0.00    +0.046 A 
ATOM     24  C   UNL     1     -15.009  -6.457  14.924  0.00  0.00    +0.001 A 
ATOM     25  C   UNL     1     -15.284  -5.654  13.817  0.00  0.00    +0.004 A 
BRANCH  17   4
ATOM      4  O   UNL     1     -11.931  -4.487  12.952  0.00  0.00    -0.495 OA
ATOM     27  C   UNL     1     -12.312  -3.427  12.076  0.00  0.00    +0.277 C 
ENDBRANCH  17   4
ENDBRANCH  13  14
ENDBRANCH   5  13
TORSDOF 5
ENDMDL
MODEL 6
REMARK VINA RESULT:      -6.7     30.270     34.035
REMARK  Name = 45784266
REMARK  6 active torsions:
REMARK  status: ('A' for Active; 'I' for Inactive)
REMARK    1  A    between atoms: O_4  and  C_17
REMARK    2  A    between atoms: O_4  and  C_27
REMARK    3  A    between atoms: N_5  and  C_13
REMARK    4  A    between atoms: C_8  and  C_12
REMARK    5  A    between atoms: C_13  and  C_14
REMARK    6  A    between atoms: C_21  and  C_26
REMARK                            x       y       z     vdW  Elec       q    Type
REMARK                         _______ _______ _______ _____ _____    ______ ____
ROOT
ATOM      5  N   UNL     1     -12.492  -6.693  14.472  0.00  0.00    -0.297 NA
ATOM      8  C   UNL     1     -11.502  -7.576  16.406  0.00  0.00    +0.070 C 
ATOM      9  C   UNL     1     -11.224  -6.064  16.329  0.00  0.00    +0.028 C 
ATOM     10  C   UNL     1     -11.968  -7.956  14.994  0.00  0.00    +0.096 C 
ATOM     11  C   UNL     1     -11.518  -5.682  14.884  0.00  0.00    +0.085 C 
ENDROOT
BRANCH   8  12
ATOM      6  N   UNL     1      -9.099  -8.295  16.324  0.00  0.00    -0.342 N 
ATOM      7  N   UNL     1     -10.359  -9.304  17.852  0.00  0.00    -0.232 NA
ATOM     12  C   UNL     1     -10.339  -8.411  16.888  0.00  0.00    +0.113 A 
ATOM     15  C   UNL     1      -8.263  -9.172  16.968  0.00  0.00    +0.067 A 
ATOM     16  C   UNL     1      -9.073  -9.790  17.917  0.00  0.00    +0.089 A 
ATOM     18  C   UNL     1      -6.910  -9.468  16.806  0.00  0.00    +0.040 A 
ATOM     20  C   UNL     1      -8.517 -10.763  18.763  0.00  0.00    +0.030 A 
ATOM     21  C   UNL     1      -6.372 -10.440  17.657  0.00  0.00    +0.057 A 
ATOM     22  C   UNL     1      -7.160 -11.078  18.619  0.00  0.00    +0.014 A 
ATOM     28  H   UNL     1      -8.840  -7.676  15.568  0.00  0.00    +0.167 HD
BRANCH  21  26
ATOM      1  F   UNL     1      -4.731 -11.919  16.778  0.00  0.00    -0.166 F 
ATOM      2  F   UNL     1      -4.170  -9.826  16.953  0.00  0.00    -0.166 F 
ATOM      3  F   UNL     1      -4.326 -11.056  18.732  0.00  0.00    -0.166 F 
ATOM     26  C   UNL     1      -4.928 -10.801  17.534  0.00  0.00    +0.417 C 
ENDBRANCH  21  26
ENDBRANCH   8  12
BRANCH   5  13
ATOM     13  C   UNL     1     -12.680  -6.724  13.029  0.00  0.00    +0.123 C 
BRANCH  13  14
ATOM     14  C   UNL     1     -13.277  -5.441  12.514  0.00  0.00    +0.008 A 
ATOM     17  C   UNL     1     -12.760  -4.819  11.379  0.00  0.00    +0.124 A 
ATOM     19  C   UNL     1     -14.359  -4.874  13.189  0.00  0.00    +0.008 A 
ATOM     23  C   UNL     1     -13.325  -3.630  10.916  0.00  0.00    +0.046 A 
ATOM     24  C   UNL     1     -14.923  -3.685  12.727  0.00  0.00    +0.001 A 
ATOM     25  C   UNL     1     -14.406  -3.063  11.590  0.00  0.00    +0.004 A 
BRANCH  17   4
ATOM      4  O   UNL     1     -11.703  -5.358  10.709  0.00  0.00    -0.495 OA
ATOM     27  C   UNL     1     -11.266  -4.678   9.533  0.00  0.00    +0.277 C 
ENDBRANCH  17   4
ENDBRANCH  13  14
ENDBRANCH   5  13
TORSDOF 5
ENDMDL
MODEL 7
REMARK VINA RESULT:      -6.7     27.901     31.120
REMARK  Name = 45784266
REMARK  6 active torsions:
REMARK  status: ('A' for Active; 'I' for Inactive)
REMARK    1  A    between atoms: O_4  and  C_17
REMARK    2  A    between atoms: O_4  and  C_27
REMARK    3  A    between atoms: N_5  and  C_13
REMARK    4  A    between atoms: C_8  and  C_12
REMARK    5  A    between atoms: C_13  and  C_14
REMARK    6  A    between atoms: C_21  and  C_26
REMARK                            x       y       z     vdW  Elec       q    Type
REMARK                         _______ _______ _______ _____ _____    ______ ____
ROOT
ATOM      5  N   UNL     1      -4.852 -11.397  17.443  0.00  0.00    -0.297 NA
ATOM      8  C   UNL     1      -6.593  -9.981  18.124  0.00  0.00    +0.070 C 
ATOM      9  C   UNL     1      -6.501 -11.182  19.082  0.00  0.00    +0.028 C 
ATOM     10  C   UNL     1      -5.775 -10.402  16.895  0.00  0.00    +0.096 C 
ATOM     11  C   UNL     1      -5.669 -12.218  18.337  0.00  0.00    +0.085 C 
ENDROOT
BRANCH   8  12
ATOM      6  N   UNL     1      -8.234  -8.471  16.973  0.00  0.00    -0.342 N 
ATOM      7  N   UNL     1      -9.115 -10.120  18.175  0.00  0.00    -0.232 NA
ATOM     12  C   UNL     1      -7.999  -9.551  17.777  0.00  0.00    +0.113 A 
ATOM     15  C   UNL     1      -9.593  -8.333  16.843  0.00  0.00    +0.067 A 
ATOM     16  C   UNL     1     -10.120  -9.374  17.602  0.00  0.00    +0.089 A 
ATOM     18  C   UNL     1     -10.380  -7.416  16.148  0.00  0.00    +0.040 A 
ATOM     20  C   UNL     1     -11.515  -9.523  17.684  0.00  0.00    +0.030 A 
ATOM     21  C   UNL     1     -11.767  -7.579  16.240  0.00  0.00    +0.057 A 
ATOM     22  C   UNL     1     -12.326  -8.614  16.994  0.00  0.00    +0.014 A 
ATOM     28  H   UNL     1      -7.535  -7.876  16.549  0.00  0.00    +0.167 HD
BRANCH  21  26
ATOM      1  F   UNL     1     -12.066  -5.430  15.269  0.00  0.00    -0.166 F 
ATOM      2  F   UNL     1     -13.082  -7.092  14.303  0.00  0.00    -0.166 F 
ATOM      3  F   UNL     1     -13.809  -6.336  16.201  0.00  0.00    -0.166 F 
ATOM     26  C   UNL     1     -12.665  -6.630  15.518  0.00  0.00    +0.417 C 
ENDBRANCH  21  26
ENDBRANCH   8  12
BRANCH   5  13
ATOM     13  C   UNL     1      -4.205 -12.186  16.405  0.00  0.00    +0.123 C 
BRANCH  13  14
ATOM     14  C   UNL     1      -3.190 -11.379  15.639  0.00  0.00    +0.008 A 
ATOM     17  C   UNL     1      -3.334 -11.169  14.268  0.00  0.00    +0.124 A 
ATOM     19  C   UNL     1      -2.096 -10.841  16.316  0.00  0.00    +0.008 A 
ATOM     23  C   UNL     1      -2.385 -10.419  13.574  0.00  0.00    +0.046 A 
ATOM     24  C   UNL     1      -1.146 -10.092  15.623  0.00  0.00    +0.001 A 
ATOM     25  C   UNL     1      -1.290  -9.880  14.251  0.00  0.00    +0.004 A 
BRANCH  17   4
ATOM      4  O   UNL     1      -4.396 -11.688  13.591  0.00  0.00    -0.495 OA
ATOM     27  C   UNL     1      -5.147 -10.790  12.775  0.00  0.00    +0.277 C 
ENDBRANCH  17   4
ENDBRANCH  13  14
ENDBRANCH   5  13
TORSDOF 5
ENDMDL
MODEL 8
REMARK VINA RESULT:      -6.6     29.327     31.605
REMARK  Name = 45784266
REMARK  6 active torsions:
REMARK  status: ('A' for Active; 'I' for Inactive)
REMARK    1  A    between atoms: O_4  and  C_17
REMARK    2  A    between atoms: O_4  and  C_27
REMARK    3  A    between atoms: N_5  and  C_13
REMARK    4  A    between atoms: C_8  and  C_12
REMARK    5  A    between atoms: C_13  and  C_14
REMARK    6  A    between atoms: C_21  and  C_26
REMARK                            x       y       z     vdW  Elec       q    Type
REMARK                         _______ _______ _______ _____ _____    ______ ____
ROOT
ATOM      5  N   UNL     1      -4.619 -10.394  14.666  0.00  0.00    -0.297 NA
ATOM      8  C   UNL     1      -5.949  -9.580  16.417  0.00  0.00    +0.070 C 
ATOM      9  C   UNL     1      -4.602 -10.070  16.978  0.00  0.00    +0.028 C 
ATOM     10  C   UNL     1      -6.027 -10.186  15.010  0.00  0.00    +0.096 C 
ATOM     11  C   UNL     1      -4.011 -10.942  15.878  0.00  0.00    +0.085 C 
ENDROOT
BRANCH   8  12
ATOM      6  N   UNL     1      -8.330  -9.235  17.131  0.00  0.00    -0.342 N 
ATOM      7  N   UNL     1      -7.221 -10.837  18.201  0.00  0.00    -0.232 NA
ATOM     12  C   UNL     1      -7.150  -9.912  17.270  0.00  0.00    +0.113 A 
ATOM     15  C   UNL     1      -9.222  -9.759  18.033  0.00  0.00    +0.067 A 
ATOM     16  C   UNL     1      -8.506 -10.757  18.688  0.00  0.00    +0.089 A 
ATOM     18  C   UNL     1     -10.552  -9.454  18.321  0.00  0.00    +0.040 A 
ATOM     20  C   UNL     1      -9.140 -11.505  19.695  0.00  0.00    +0.030 A 
ATOM     21  C   UNL     1     -11.167 -10.209  19.326  0.00  0.00    +0.057 A 
ATOM     22  C   UNL     1     -10.475 -11.217  20.002  0.00  0.00    +0.014 A 
ATOM     28  H   UNL     1      -8.516  -8.483  16.482  0.00  0.00    +0.167 HD
BRANCH  21  26
ATOM      1  F   UNL     1     -13.311 -11.071  19.886  0.00  0.00    -0.166 F 
ATOM      2  F   UNL     1     -12.735  -9.195  20.822  0.00  0.00    -0.166 F 
ATOM      3  F   UNL     1     -13.266  -9.236  18.720  0.00  0.00    -0.166 F 
ATOM     26  C   UNL     1     -12.591  -9.931  19.681  0.00  0.00    +0.417 C 
ENDBRANCH  21  26
ENDBRANCH   8  12
BRANCH   5  13
ATOM     13  C   UNL     1      -4.452 -11.272  13.517  0.00  0.00    +0.123 C 
BRANCH  13  14
ATOM     14  C   UNL     1      -3.933 -10.528  12.314  0.00  0.00    +0.008 A 
ATOM     17  C   UNL     1      -4.808 -10.057  11.336  0.00  0.00    +0.124 A 
ATOM     19  C   UNL     1      -2.561 -10.314  12.185  0.00  0.00    +0.008 A 
ATOM     23  C   UNL     1      -4.310  -9.370  10.228  0.00  0.00    +0.046 A 
ATOM     24  C   UNL     1      -2.063  -9.628  11.078  0.00  0.00    +0.001 A 
ATOM     25  C   UNL     1      -2.938  -9.156  10.098  0.00  0.00    +0.004 A 
BRANCH  17   4
ATOM      4  O   UNL     1      -6.151 -10.258  11.445  0.00  0.00    -0.495 OA
ATOM     27  C   UNL     1      -6.974  -9.097  11.541  0.00  0.00    +0.277 C 
ENDBRANCH  17   4
ENDBRANCH  13  14
ENDBRANCH   5  13
TORSDOF 5
ENDMDL
MODEL 9
REMARK VINA RESULT:      -6.6      2.051      2.891
REMARK  Name = 45784266
REMARK  6 active torsions:
REMARK  status: ('A' for Active; 'I' for Inactive)
REMARK    1  A    between atoms: O_4  and  C_17
REMARK    2  A    between atoms: O_4  and  C_27
REMARK    3  A    between atoms: N_5  and  C_13
REMARK    4  A    between atoms: C_8  and  C_12
REMARK    5  A    between atoms: C_13  and  C_14
REMARK    6  A    between atoms: C_21  and  C_26
REMARK                            x       y       z     vdW  Elec       q    Type
REMARK                         _______ _______ _______ _____ _____    ______ ____
ROOT
ATOM      5  N   UNL     1      22.722   3.716  22.047  0.00  0.00    -0.297 NA
ATOM      8  C   UNL     1      21.313   4.837  20.545  0.00  0.00    +0.070 C 
ATOM      9  C   UNL     1      22.540   5.713  20.852  0.00  0.00    +0.028 C 
ATOM     10  C   UNL     1      21.315   3.767  21.646  0.00  0.00    +0.096 C 
ATOM     11  C   UNL     1      23.147   5.114  22.114  0.00  0.00    +0.085 C 
ENDROOT
BRANCH   8  12
ATOM      6  N   UNL     1      19.034   5.216  19.566  0.00  0.00    -0.342 N 
ATOM      7  N   UNL     1      19.644   6.628  21.171  0.00  0.00    -0.232 NA
ATOM     12  C   UNL     1      20.004   5.586  20.455  0.00  0.00    +0.113 A 
ATOM     15  C   UNL     1      17.976   6.077  19.719  0.00  0.00    +0.067 A 
ATOM     16  C   UNL     1      18.381   6.948  20.726  0.00  0.00    +0.089 A 
ATOM     18  C   UNL     1      16.738   6.164  19.082  0.00  0.00    +0.040 A 
ATOM     20  C   UNL     1      17.513   7.974  21.135  0.00  0.00    +0.030 A 
ATOM     21  C   UNL     1      15.886   7.191  19.502  0.00  0.00    +0.057 A 
ATOM     22  C   UNL     1      16.264   8.081  20.509  0.00  0.00    +0.014 A 
ATOM     28  H   UNL     1      19.082   4.447  18.911  0.00  0.00    +0.167 HD
BRANCH  21  26
ATOM      1  F   UNL     1      13.590   6.571  19.460  0.00  0.00    -0.166 F 
ATOM      2  F   UNL     1      14.064   8.614  18.887  0.00  0.00    -0.166 F 
ATOM      3  F   UNL     1      14.530   6.978  17.542  0.00  0.00    -0.166 F 
ATOM     26  C   UNL     1      14.545   7.337  18.859  0.00  0.00    +0.417 C 
ENDBRANCH  21  26
ENDBRANCH   8  12
BRANCH   5  13
ATOM     13  C   UNL     1      22.914   3.018  23.310  0.00  0.00    +0.123 C 
BRANCH  13  14
ATOM     14  C   UNL     1      23.900   1.887  23.181  0.00  0.00    +0.008 A 
ATOM     17  C   UNL     1      24.395   1.240  24.313  0.00  0.00    +0.124 A 
ATOM     19  C   UNL     1      24.318   1.490  21.911  0.00  0.00    +0.008 A 
ATOM     23  C   UNL     1      25.308   0.194  24.175  0.00  0.00    +0.046 A 
ATOM     24  C   UNL     1      25.232   0.445  21.773  0.00  0.00    +0.001 A 
ATOM     25  C   UNL     1      25.727  -0.203  22.905  0.00  0.00    +0.004 A 
BRANCH  17   4
ATOM      4  O   UNL     1      23.997   1.616  25.560  0.00  0.00    -0.495 OA
ATOM     27  C   UNL     1      23.028   0.793  26.208  0.00  0.00    +0.277 C 
ENDBRANCH  17   4
ENDBRANCH  13  14
ENDBRANCH   5  13
TORSDOF 5
ENDMDL
MODEL 10
REMARK VINA RESULT:      -6.6      2.988      4.880
REMARK  Name = 45784266
REMARK  6 active torsions:
REMARK  status: ('A' for Active; 'I' for Inactive)
REMARK    1  A    between atoms: O_4  and  C_17
REMARK    2  A    between atoms: O_4  and  C_27
REMARK    3  A    between atoms: N_5  and  C_13
REMARK    4  A    between atoms: C_8  and  C_12
REMARK    5  A    between atoms: C_13  and  C_14
REMARK    6  A    between atoms: C_21  and  C_26
REMARK                            x       y       z     vdW  Elec       q    Type
REMARK                         _______ _______ _______ _____ _____    ______ ____
ROOT
ATOM      5  N   UNL     1      17.982   6.283  20.673  0.00  0.00    -0.297 NA
ATOM      8  C   UNL     1      15.656   6.321  20.964  0.00  0.00    +0.070 C 
ATOM      9  C   UNL     1      15.985   6.196  19.466  0.00  0.00    +0.028 C 
ATOM     10  C   UNL     1      16.972   6.768  21.615  0.00  0.00    +0.096 C 
ATOM     11  C   UNL     1      17.448   6.603  19.350  0.00  0.00    +0.085 C 
ENDROOT
BRANCH   8  12
ATOM      6  N   UNL     1      14.704   8.504  21.755  0.00  0.00    -0.342 N 
ATOM      7  N   UNL     1      13.219   6.959  21.165  0.00  0.00    -0.232 NA
ATOM     12  C   UNL     1      14.498   7.237  21.285  0.00  0.00    +0.113 A 
ATOM     15  C   UNL     1      13.476   9.083  21.950  0.00  0.00    +0.067 A 
ATOM     16  C   UNL     1      12.565   8.099  21.575  0.00  0.00    +0.089 A 
ATOM     18  C   UNL     1      13.095  10.344  22.408  0.00  0.00    +0.040 A 
ATOM     20  C   UNL     1      11.189   8.372  21.655  0.00  0.00    +0.030 A 
ATOM     21  C   UNL     1      11.721  10.599  22.482  0.00  0.00    +0.057 A 
ATOM     22  C   UNL     1      10.784   9.631  22.113  0.00  0.00    +0.014 A 
ATOM     28  H   UNL     1      15.599   8.941  21.929  0.00  0.00    +0.167 HD
BRANCH  21  26
ATOM      1  F   UNL     1      10.600  12.638  21.996  0.00  0.00    -0.166 F 
ATOM      2  F   UNL     1      10.377  11.854  24.012  0.00  0.00    -0.166 F 
ATOM      3  F   UNL     1      12.259  12.742  23.398  0.00  0.00    -0.166 F 
ATOM     26  C   UNL     1      11.250  11.932  22.965  0.00  0.00    +0.417 C 
ENDBRANCH  21  26
ENDBRANCH   8  12
BRANCH   5  13
ATOM     13  C   UNL     1      19.288   6.883  20.903  0.00  0.00    +0.123 C 
BRANCH  13  14
ATOM     14  C   UNL     1      20.304   5.861  21.343  0.00  0.00    +0.008 A 
ATOM     17  C   UNL     1      21.014   6.028  22.531  0.00  0.00    +0.124 A 
ATOM     19  C   UNL     1      20.531   4.740  20.545  0.00  0.00    +0.008 A 
ATOM     23  C   UNL     1      21.952   5.072  22.923  0.00  0.00    +0.046 A 
ATOM     24  C   UNL     1      21.469   3.784  20.936  0.00  0.00    +0.001 A 
ATOM     25  C   UNL     1      22.180   3.950  22.126  0.00  0.00    +0.004 A 
BRANCH  17   4
ATOM      4  O   UNL     1      20.805   7.118  23.321  0.00  0.00    -0.495 OA
ATOM     27  C   UNL     1      21.933   7.950  23.588  0.00  0.00    +0.277 C 
ENDBRANCH  17   4
ENDBRANCH  13  14
ENDBRANCH   5  13
TORSDOF 5
ENDMDL
