MODEL 1
REMARK VINA RESULT:      -8.0      0.000      0.000
REMARK  Name = 11867436
REMARK  10 active torsions:
REMARK  status: ('A' for Active; 'I' for Inactive)
REMARK    1  A    between atoms: O_6  and  C_14
REMARK    2  A    between atoms: O_6  and  C_19
REMARK    3  A    between atoms: N_8  and  C_13
REMARK    4  A    between atoms: N_8  and  C_17
REMARK    5  A    between atoms: N_9  and  C_25
REMARK    6  A    between atoms: N_10  and  C_24
REMARK    7  A    between atoms: N_10  and  C_29
REMARK    8  A    between atoms: N_10  and  C_30
REMARK    9  A    between atoms: C_17  and  C_18
REMARK   10  A    between atoms: C_28  and  C_33
REMARK                            x       y       z     vdW  Elec       q    Type
REMARK                         _______ _______ _______ _____ _____    ______ ____
ROOT
ATOM      4  O   UNL     1     -16.547   2.235  23.835  0.00  0.00    -0.369 OA
ATOM      5  O   UNL     1     -16.980   4.881  25.300  0.00  0.00    -0.369 OA
ATOM     11  C   UNL     1     -15.837   4.369  24.580  0.00  0.00    +0.170 C 
ATOM     12  C   UNL     1     -15.775   2.882  24.862  0.00  0.00    +0.191 C 
ATOM     13  C   UNL     1     -16.087   4.451  23.089  0.00  0.00    +0.111 C 
ATOM     14  C   UNL     1     -16.444   2.778  26.211  0.00  0.00    +0.235 C 
ATOM     15  C   UNL     1     -16.926   3.204  22.845  0.00  0.00    +0.181 C 
ATOM     16  C   UNL     1     -17.524   3.832  26.114  0.00  0.00    +0.207 C 
ENDROOT
BRANCH  13   8
ATOM      8  N   UNL     1     -14.840   4.367  22.331  0.00  0.00    -0.305 NA
ATOM     34  H   UNL     1     -15.045   4.437  21.333  0.00  0.00    +0.123 HD
BRANCH   8  17
ATOM     17  C   UNL     1     -13.942   5.453  22.692  0.00  0.00    +0.116 C 
BRANCH  17  18
ATOM     18  C   UNL     1     -13.497   6.238  21.487  0.00  0.00    -0.033 A 
ATOM     20  C   UNL     1     -12.140   6.336  21.179  0.00  0.00    +0.007 A 
ATOM     21  C   UNL     1     -14.442   6.870  20.678  0.00  0.00    +0.007 A 
ATOM     22  C   UNL     1     -11.729   7.064  20.063  0.00  0.00    +0.023 A 
ATOM     23  C   UNL     1     -14.031   7.598  19.562  0.00  0.00    +0.023 A 
ATOM     24  C   UNL     1     -12.674   7.695  19.255  0.00  0.00    +0.029 A 
BRANCH  24  10
ATOM     10  N   UNL     1     -12.258   8.431  18.126  0.00  0.00    -0.336 N 
ATOM     29  C   UNL     1     -13.101   8.511  16.950  0.00  0.00    +0.129 C 
ATOM     30  C   UNL     1     -10.976   9.107  18.122  0.00  0.00    +0.129 C 
ENDBRANCH  24  10
ENDBRANCH  17  18
ENDBRANCH   8  17
ENDBRANCH  13   8
BRANCH  14   6
ATOM      6  O   UNL     1     -16.975   1.499  26.479  0.00  0.00    -0.442 OA
BRANCH   6  19
ATOM      7  O   UNL     1     -17.834   0.340  28.253  0.00  0.00    -0.226 OA
ATOM      9  N   UNL     1     -15.906   1.652  28.460  0.00  0.00    -0.251 N 
ATOM     19  C   UNL     1     -16.980   1.089  27.797  0.00  0.00    +0.405 C 
ATOM     35  H   UNL     1     -15.301   2.253  27.906  0.00  0.00    +0.158 HD
BRANCH   9  25
ATOM     25  C   UNL     1     -15.541   1.494  29.816  0.00  0.00    +0.037 A 
ATOM     26  C   UNL     1     -15.528   2.598  30.668  0.00  0.00    +0.035 A 
ATOM     27  C   UNL     1     -15.195   0.233  30.303  0.00  0.00    +0.023 A 
ATOM     28  C   UNL     1     -15.167   2.441  32.006  0.00  0.00    +0.057 A 
ATOM     31  C   UNL     1     -14.835   0.077  31.641  0.00  0.00    +0.002 A 
ATOM     32  C   UNL     1     -14.821   1.180  32.493  0.00  0.00    +0.012 A 
BRANCH  28  33
ATOM      1  F   UNL     1     -16.394   4.055  33.277  0.00  0.00    -0.166 F 
ATOM      2  F   UNL     1     -14.532   4.717  32.383  0.00  0.00    -0.166 F 
ATOM      3  F   UNL     1     -14.497   3.370  34.091  0.00  0.00    -0.166 F 
ATOM     33  C   UNL     1     -15.149   3.622  32.918  0.00  0.00    +0.417 C 
ENDBRANCH  28  33
ENDBRANCH   9  25
ENDBRANCH   6  19
ENDBRANCH  14   6
TORSDOF 8
ENDMDL
MODEL 2
REMARK VINA RESULT:      -7.5     19.201     21.392
REMARK  Name = 11867436
REMARK  10 active torsions:
REMARK  status: ('A' for Active; 'I' for Inactive)
REMARK    1  A    between atoms: O_6  and  C_14
REMARK    2  A    between atoms: O_6  and  C_19
REMARK    3  A    between atoms: N_8  and  C_13
REMARK    4  A    between atoms: N_8  and  C_17
REMARK    5  A    between atoms: N_9  and  C_25
REMARK    6  A    between atoms: N_10  and  C_24
REMARK    7  A    between atoms: N_10  and  C_29
REMARK    8  A    between atoms: N_10  and  C_30
REMARK    9  A    between atoms: C_17  and  C_18
REMARK   10  A    between atoms: C_28  and  C_33
REMARK                            x       y       z     vdW  Elec       q    Type
REMARK                         _______ _______ _______ _____ _____    ______ ____
ROOT
ATOM      4  O   UNL     1      -6.688 -11.894  17.516  0.00  0.00    -0.369 OA
ATOM      5  O   UNL     1      -4.888 -11.831  19.984  0.00  0.00    -0.369 OA
ATOM     11  C   UNL     1      -5.889 -10.903  19.513  0.00  0.00    +0.170 C 
ATOM     12  C   UNL     1      -5.788 -10.882  18.001  0.00  0.00    +0.191 C 
ATOM     13  C   UNL     1      -7.273 -11.454  19.783  0.00  0.00    +0.111 C 
ATOM     14  C   UNL     1      -4.346 -11.259  17.766  0.00  0.00    +0.235 C 
ATOM     15  C   UNL     1      -7.462 -12.406  18.611  0.00  0.00    +0.181 C 
ATOM     16  C   UNL     1      -4.093 -12.261  18.869  0.00  0.00    +0.207 C 
ENDROOT
BRANCH  13   8
ATOM      8  N   UNL     1      -8.287 -10.403  19.738  0.00  0.00    -0.305 NA
ATOM     34  H   UNL     1      -7.937  -9.618  19.188  0.00  0.00    +0.123 HD
BRANCH   8  17
ATOM     17  C   UNL     1      -9.509 -10.890  19.116  0.00  0.00    +0.116 C 
BRANCH  17  18
ATOM     18  C   UNL     1     -10.177  -9.829  18.282  0.00  0.00    -0.033 A 
ATOM     20  C   UNL     1      -9.405  -8.885  17.605  0.00  0.00    +0.007 A 
ATOM     21  C   UNL     1     -11.568  -9.789  18.188  0.00  0.00    +0.007 A 
ATOM     22  C   UNL     1     -10.025  -7.902  16.833  0.00  0.00    +0.023 A 
ATOM     23  C   UNL     1     -12.188  -8.806  17.417  0.00  0.00    +0.023 A 
ATOM     24  C   UNL     1     -11.416  -7.863  16.739  0.00  0.00    +0.029 A 
BRANCH  24  10
ATOM     10  N   UNL     1     -12.042  -6.869  15.959  0.00  0.00    -0.336 N 
ATOM     29  C   UNL     1     -11.249  -5.909  15.218  0.00  0.00    +0.129 C 
ATOM     30  C   UNL     1     -13.488  -6.787  15.898  0.00  0.00    +0.129 C 
ENDBRANCH  24  10
ENDBRANCH  17  18
ENDBRANCH   8  17
ENDBRANCH  13   8
BRANCH  14   6
ATOM      6  O   UNL     1      -4.109 -11.805  16.488  0.00  0.00    -0.442 OA
BRANCH   6  19
ATOM      7  O   UNL     1      -2.449 -10.318  15.976  0.00  0.00    -0.226 OA
ATOM      9  N   UNL     1      -3.828 -11.237  14.323  0.00  0.00    -0.251 N 
ATOM     19  C   UNL     1      -3.366 -11.042  15.610  0.00  0.00    +0.405 C 
ATOM     35  H   UNL     1      -4.606 -11.884  14.218  0.00  0.00    +0.158 HD
BRANCH   9  25
ATOM     25  C   UNL     1      -3.350 -10.651  13.129  0.00  0.00    +0.037 A 
ATOM     26  C   UNL     1      -4.250 -10.146  12.190  0.00  0.00    +0.035 A 
ATOM     27  C   UNL     1      -1.978 -10.576  12.889  0.00  0.00    +0.023 A 
ATOM     28  C   UNL     1      -3.779  -9.568  11.012  0.00  0.00    +0.057 A 
ATOM     31  C   UNL     1      -1.507  -9.997  11.711  0.00  0.00    +0.002 A 
ATOM     32  C   UNL     1      -2.406  -9.494  10.772  0.00  0.00    +0.012 A 
BRANCH  28  33
ATOM      1  F   UNL     1      -4.191  -8.840   8.771  0.00  0.00    -0.166 F 
ATOM      2  F   UNL     1      -5.274  -7.821  10.351  0.00  0.00    -0.166 F 
ATOM      3  F   UNL     1      -5.808  -9.859   9.808  0.00  0.00    -0.166 F 
ATOM     33  C   UNL     1      -4.740  -9.031  10.007  0.00  0.00    +0.417 C 
ENDBRANCH  28  33
ENDBRANCH   9  25
ENDBRANCH   6  19
ENDBRANCH  14   6
TORSDOF 8
ENDMDL
MODEL 3
REMARK VINA RESULT:      -7.3     17.229     19.649
REMARK  Name = 11867436
REMARK  10 active torsions:
REMARK  status: ('A' for Active; 'I' for Inactive)
REMARK    1  A    between atoms: O_6  and  C_14
REMARK    2  A    between atoms: O_6  and  C_19
REMARK    3  A    between atoms: N_8  and  C_13
REMARK    4  A    between atoms: N_8  and  C_17
REMARK    5  A    between atoms: N_9  and  C_25
REMARK    6  A    between atoms: N_10  and  C_24
REMARK    7  A    between atoms: N_10  and  C_29
REMARK    8  A    between atoms: N_10  and  C_30
REMARK    9  A    between atoms: C_17  and  C_18
REMARK   10  A    between atoms: C_28  and  C_33
REMARK                            x       y       z     vdW  Elec       q    Type
REMARK                         _______ _______ _______ _____ _____    ______ ____
ROOT
ATOM      4  O   UNL     1     -10.724  -8.063  17.685  0.00  0.00    -0.369 OA
ATOM      5  O   UNL     1     -10.029  -9.185  14.930  0.00  0.00    -0.369 OA
ATOM     11  C   UNL     1      -9.187  -8.773  16.029  0.00  0.00    +0.170 C 
ATOM     12  C   UNL     1      -9.850  -7.565  16.657  0.00  0.00    +0.191 C 
ATOM     13  C   UNL     1      -9.216  -9.820  17.122  0.00  0.00    +0.111 C 
ATOM     14  C   UNL     1     -10.625  -6.981  15.501  0.00  0.00    +0.235 C 
ATOM     15  C   UNL     1     -10.506  -9.473  17.850  0.00  0.00    +0.181 C 
ATOM     16  C   UNL     1     -11.077  -8.219  14.761  0.00  0.00    +0.207 C 
ENDROOT
BRANCH  13   8
ATOM      8  N   UNL     1      -8.079  -9.679  18.030  0.00  0.00    -0.305 NA
ATOM     34  H   UNL     1      -8.406  -9.325  18.929  0.00  0.00    +0.123 HD
BRANCH   8  17
ATOM     17  C   UNL     1      -7.431 -10.962  18.251  0.00  0.00    +0.116 C 
BRANCH  17  18
ATOM     18  C   UNL     1      -6.117 -11.061  17.522  0.00  0.00    -0.033 A 
ATOM     20  C   UNL     1      -6.097 -11.257  16.142  0.00  0.00    +0.007 A 
ATOM     21  C   UNL     1      -4.919 -10.957  18.229  0.00  0.00    +0.007 A 
ATOM     22  C   UNL     1      -4.880 -11.350  15.468  0.00  0.00    +0.023 A 
ATOM     23  C   UNL     1      -3.701 -11.049  17.555  0.00  0.00    +0.023 A 
ATOM     24  C   UNL     1      -3.682 -11.245  16.175  0.00  0.00    +0.029 A 
BRANCH  24  10
ATOM     10  N   UNL     1      -2.451 -11.338  15.493  0.00  0.00    -0.336 N 
ATOM     29  C   UNL     1      -1.335 -10.494  15.873  0.00  0.00    +0.129 C 
ATOM     30  C   UNL     1      -2.288 -12.270  14.395  0.00  0.00    +0.129 C 
ENDBRANCH  24  10
ENDBRANCH  17  18
ENDBRANCH   8  17
ENDBRANCH  13   8
BRANCH  14   6
ATOM      6  O   UNL     1     -11.712  -6.176  15.902  0.00  0.00    -0.442 OA
BRANCH   6  19
ATOM      7  O   UNL     1     -13.760  -6.361  14.902  0.00  0.00    -0.226 OA
ATOM      9  N   UNL     1     -12.109  -4.928  14.065  0.00  0.00    -0.251 N 
ATOM     19  C   UNL     1     -12.644  -5.859  14.935  0.00  0.00    +0.405 C 
ATOM     35  H   UNL     1     -11.157  -4.628  14.258  0.00  0.00    +0.158 HD
BRANCH   9  25
ATOM     25  C   UNL     1     -12.724  -4.337  12.939  0.00  0.00    +0.037 A 
ATOM     26  C   UNL     1     -12.059  -4.313  11.713  0.00  0.00    +0.035 A 
ATOM     27  C   UNL     1     -13.997  -3.777  13.053  0.00  0.00    +0.023 A 
ATOM     28  C   UNL     1     -12.666  -3.728  10.602  0.00  0.00    +0.057 A 
ATOM     31  C   UNL     1     -14.603  -3.193  11.941  0.00  0.00    +0.002 A 
ATOM     32  C   UNL     1     -13.938  -3.168  10.716  0.00  0.00    +0.012 A 
BRANCH  28  33
ATOM      1  F   UNL     1     -10.626  -3.396   9.396  0.00  0.00    -0.166 F 
ATOM      2  F   UNL     1     -12.460  -2.784   8.413  0.00  0.00    -0.166 F 
ATOM      3  F   UNL     1     -12.004  -4.898   8.640  0.00  0.00    -0.166 F 
ATOM     33  C   UNL     1     -11.954  -3.699   9.292  0.00  0.00    +0.417 C 
ENDBRANCH  28  33
ENDBRANCH   9  25
ENDBRANCH   6  19
ENDBRANCH  14   6
TORSDOF 8
ENDMDL
MODEL 4
REMARK VINA RESULT:      -7.3     29.456     33.814
REMARK  Name = 11867436
REMARK  10 active torsions:
REMARK  status: ('A' for Active; 'I' for Inactive)
REMARK    1  A    between atoms: O_6  and  C_14
REMARK    2  A    between atoms: O_6  and  C_19
REMARK    3  A    between atoms: N_8  and  C_13
REMARK    4  A    between atoms: N_8  and  C_17
REMARK    5  A    between atoms: N_9  and  C_25
REMARK    6  A    between atoms: N_10  and  C_24
REMARK    7  A    between atoms: N_10  and  C_29
REMARK    8  A    between atoms: N_10  and  C_30
REMARK    9  A    between atoms: C_17  and  C_18
REMARK   10  A    between atoms: C_28  and  C_33
REMARK                            x       y       z     vdW  Elec       q    Type
REMARK                         _______ _______ _______ _____ _____    ______ ____
ROOT
ATOM      4  O   UNL     1      14.112   9.129  19.046  0.00  0.00    -0.369 OA
ATOM      5  O   UNL     1      11.844   7.268  19.899  0.00  0.00    -0.369 OA
ATOM     11  C   UNL     1      13.195   6.987  19.473  0.00  0.00    +0.170 C 
ATOM     12  C   UNL     1      13.528   7.990  18.388  0.00  0.00    +0.191 C 
ATOM     13  C   UNL     1      14.166   7.313  20.588  0.00  0.00    +0.111 C 
ATOM     14  C   UNL     1      12.170   8.314  17.815  0.00  0.00    +0.235 C 
ATOM     15  C   UNL     1      14.324   8.818  20.432  0.00  0.00    +0.181 C 
ATOM     16  C   UNL     1      11.288   8.277  19.043  0.00  0.00    +0.207 C 
ENDROOT
BRANCH  13   8
ATOM      8  N   UNL     1      15.455   6.654  20.386  0.00  0.00    -0.305 NA
ATOM     34  H   UNL     1      15.559   6.409  19.401  0.00  0.00    +0.123 HD
BRANCH   8  17
ATOM     17  C   UNL     1      16.550   7.538  20.756  0.00  0.00    +0.116 C 
BRANCH  17  18
ATOM     18  C   UNL     1      17.872   6.817  20.777  0.00  0.00    -0.033 A 
ATOM     20  C   UNL     1      18.832   7.147  21.732  0.00  0.00    +0.007 A 
ATOM     21  C   UNL     1      18.136   5.819  19.838  0.00  0.00    +0.007 A 
ATOM     22  C   UNL     1      20.057   6.479  21.750  0.00  0.00    +0.023 A 
ATOM     23  C   UNL     1      19.360   5.151  19.856  0.00  0.00    +0.023 A 
ATOM     24  C   UNL     1      20.320   5.481  20.812  0.00  0.00    +0.029 A 
BRANCH  24  10
ATOM     10  N   UNL     1      21.558   4.805  20.830  0.00  0.00    -0.336 N 
ATOM     29  C   UNL     1      22.776   5.494  20.454  0.00  0.00    +0.129 C 
ATOM     30  C   UNL     1      21.626   3.408  21.212  0.00  0.00    +0.129 C 
ENDBRANCH  24  10
ENDBRANCH  17  18
ENDBRANCH   8  17
ENDBRANCH  13   8
BRANCH  14   6
ATOM      6  O   UNL     1      12.117   9.562  17.162  0.00  0.00    -0.442 OA
BRANCH   6  19
ATOM      7  O   UNL     1      12.922   8.877  15.134  0.00  0.00    -0.226 OA
ATOM      9  N   UNL     1      13.598  10.897  16.105  0.00  0.00    -0.251 N 
ATOM     19  C   UNL     1      12.896   9.709  16.032  0.00  0.00    +0.405 C 
ATOM     35  H   UNL     1      13.442  11.460  16.938  0.00  0.00    +0.158 HD
BRANCH   9  25
ATOM     25  C   UNL     1      14.505  11.430  15.162  0.00  0.00    +0.037 A 
ATOM     26  C   UNL     1      15.867  11.490  15.460  0.00  0.00    +0.035 A 
ATOM     27  C   UNL     1      14.039  11.898  13.933  0.00  0.00    +0.023 A 
ATOM     28  C   UNL     1      16.761  12.017  14.530  0.00  0.00    +0.057 A 
ATOM     31  C   UNL     1      14.935  12.425  13.003  0.00  0.00    +0.002 A 
ATOM     32  C   UNL     1      16.296  12.485  13.301  0.00  0.00    +0.012 A 
BRANCH  28  33
ATOM      1  F   UNL     1      18.883  10.915  14.609  0.00  0.00    -0.166 F 
ATOM      2  F   UNL     1      18.478  12.381  16.156  0.00  0.00    -0.166 F 
ATOM      3  F   UNL     1      18.872  13.034  14.120  0.00  0.00    -0.166 F 
ATOM     33  C   UNL     1      18.217  12.083  14.849  0.00  0.00    +0.417 C 
ENDBRANCH  28  33
ENDBRANCH   9  25
ENDBRANCH   6  19
ENDBRANCH  14   6
TORSDOF 8
ENDMDL
MODEL 5
REMARK VINA RESULT:      -7.3     27.565     30.628
REMARK  Name = 11867436
REMARK  10 active torsions:
REMARK  status: ('A' for Active; 'I' for Inactive)
REMARK    1  A    between atoms: O_6  and  C_14
REMARK    2  A    between atoms: O_6  and  C_19
REMARK    3  A    between atoms: N_8  and  C_13
REMARK    4  A    between atoms: N_8  and  C_17
REMARK    5  A    between atoms: N_9  and  C_25
REMARK    6  A    between atoms: N_10  and  C_24
REMARK    7  A    between atoms: N_10  and  C_29
REMARK    8  A    between atoms: N_10  and  C_30
REMARK    9  A    between atoms: C_17  and  C_18
REMARK   10  A    between atoms: C_28  and  C_33
REMARK                            x       y       z     vdW  Elec       q    Type
REMARK                         _______ _______ _______ _____ _____    ______ ____
ROOT
ATOM      4  O   UNL     1      12.283   7.830  21.971  0.00  0.00    -0.369 OA
ATOM      5  O   UNL     1      11.829   7.897  18.951  0.00  0.00    -0.369 OA
ATOM     11  C   UNL     1      13.045   7.862  19.729  0.00  0.00    +0.170 C 
ATOM     12  C   UNL     1      12.801   8.711  20.959  0.00  0.00    +0.191 C 
ATOM     13  C   UNL     1      13.265   6.469  20.279  0.00  0.00    +0.111 C 
ATOM     14  C   UNL     1      11.753   9.686  20.479  0.00  0.00    +0.235 C 
ATOM     15  C   UNL     1      12.363   6.474  21.506  0.00  0.00    +0.181 C 
ATOM     16  C   UNL     1      10.919   8.829  19.555  0.00  0.00    +0.207 C 
ENDROOT
BRANCH  13   8
ATOM      8  N   UNL     1      14.655   6.266  20.686  0.00  0.00    -0.305 NA
ATOM     34  H   UNL     1      14.833   5.267  20.794  0.00  0.00    +0.123 HD
BRANCH   8  17
ATOM     17  C   UNL     1      15.568   6.789  19.681  0.00  0.00    +0.116 C 
BRANCH  17  18
ATOM     18  C   UNL     1      17.008   6.605  20.081  0.00  0.00    -0.033 A 
ATOM     20  C   UNL     1      17.785   5.626  19.463  0.00  0.00    +0.007 A 
ATOM     21  C   UNL     1      17.564   7.415  21.072  0.00  0.00    +0.007 A 
ATOM     22  C   UNL     1      19.118   5.456  19.835  0.00  0.00    +0.023 A 
ATOM     23  C   UNL     1      18.898   7.245  21.444  0.00  0.00    +0.023 A 
ATOM     24  C   UNL     1      19.674   6.266  20.825  0.00  0.00    +0.029 A 
BRANCH  24  10
ATOM     10  N   UNL     1      21.023   6.095  21.201  0.00  0.00    -0.336 N 
ATOM     29  C   UNL     1      21.369   5.263  22.336  0.00  0.00    +0.129 C 
ATOM     30  C   UNL     1      22.080   6.759  20.464  0.00  0.00    +0.129 C 
ENDBRANCH  24  10
ENDBRANCH  17  18
ENDBRANCH   8  17
ENDBRANCH  13   8
BRANCH  14   6
ATOM      6  O   UNL     1      10.985  10.244  21.522  0.00  0.00    -0.442 OA
BRANCH   6  19
ATOM      7  O   UNL     1      12.048  12.251  21.258  0.00  0.00    -0.226 OA
ATOM      9  N   UNL     1      10.634  11.839  23.078  0.00  0.00    -0.251 N 
ATOM     19  C   UNL     1      11.294  11.534  21.903  0.00  0.00    +0.405 C 
ATOM     35  H   UNL     1      10.046  11.106  23.467  0.00  0.00    +0.158 HD
BRANCH   9  25
ATOM     25  C   UNL     1      10.672  13.049  23.808  0.00  0.00    +0.037 A 
ATOM     26  C   UNL     1      11.594  13.210  24.843  0.00  0.00    +0.035 A 
ATOM     27  C   UNL     1       9.789  14.081  23.493  0.00  0.00    +0.023 A 
ATOM     28  C   UNL     1      11.630  14.404  25.563  0.00  0.00    +0.057 A 
ATOM     31  C   UNL     1       9.826  15.274  24.214  0.00  0.00    +0.002 A 
ATOM     32  C   UNL     1      10.747  15.436  25.249  0.00  0.00    +0.012 A 
BRANCH  28  33
ATOM      1  F   UNL     1      13.634  15.433  26.370  0.00  0.00    -0.166 F 
ATOM      2  F   UNL     1      13.224  13.414  27.049  0.00  0.00    -0.166 F 
ATOM      3  F   UNL     1      12.042  15.075  27.807  0.00  0.00    -0.166 F 
ATOM     33  C   UNL     1      12.613  14.576  26.672  0.00  0.00    +0.417 C 
ENDBRANCH  28  33
ENDBRANCH   9  25
ENDBRANCH   6  19
ENDBRANCH  14   6
TORSDOF 8
ENDMDL
MODEL 6
REMARK VINA RESULT:      -7.3      1.804      2.437
REMARK  Name = 11867436
REMARK  10 active torsions:
REMARK  status: ('A' for Active; 'I' for Inactive)
REMARK    1  A    between atoms: O_6  and  C_14
REMARK    2  A    between atoms: O_6  and  C_19
REMARK    3  A    between atoms: N_8  and  C_13
REMARK    4  A    between atoms: N_8  and  C_17
REMARK    5  A    between atoms: N_9  and  C_25
REMARK    6  A    between atoms: N_10  and  C_24
REMARK    7  A    between atoms: N_10  and  C_29
REMARK    8  A    between atoms: N_10  and  C_30
REMARK    9  A    between atoms: C_17  and  C_18
REMARK   10  A    between atoms: C_28  and  C_33
REMARK                            x       y       z     vdW  Elec       q    Type
REMARK                         _______ _______ _______ _____ _____    ______ ____
ROOT
ATOM      4  O   UNL     1     -16.364   3.751  22.653  0.00  0.00    -0.369 OA
ATOM      5  O   UNL     1     -16.895   6.407  24.067  0.00  0.00    -0.369 OA
ATOM     11  C   UNL     1     -15.779   5.964  23.263  0.00  0.00    +0.170 C 
ATOM     12  C   UNL     1     -15.564   4.500  23.586  0.00  0.00    +0.191 C 
ATOM     13  C   UNL     1     -16.164   5.967  21.799  0.00  0.00    +0.111 C 
ATOM     14  C   UNL     1     -16.102   4.393  24.992  0.00  0.00    +0.235 C 
ATOM     15  C   UNL     1     -16.909   4.646  21.671  0.00  0.00    +0.181 C 
ATOM     16  C   UNL     1     -17.273   5.348  24.959  0.00  0.00    +0.207 C 
ENDROOT
BRANCH  13   8
ATOM      8  N   UNL     1     -14.985   5.958  20.935  0.00  0.00    -0.305 NA
ATOM     34  H   UNL     1     -15.247   6.280  20.002  0.00  0.00    +0.123 HD
BRANCH   8  17
ATOM     17  C   UNL     1     -13.957   6.847  21.455  0.00  0.00    +0.116 C 
BRANCH  17  18
ATOM     18  C   UNL     1     -13.099   7.416  20.356  0.00  0.00    -0.033 A 
ATOM     20  C   UNL     1     -11.723   7.551  20.543  0.00  0.00    +0.007 A 
ATOM     21  C   UNL     1     -13.681   7.811  19.151  0.00  0.00    +0.007 A 
ATOM     22  C   UNL     1     -10.930   8.079  19.525  0.00  0.00    +0.023 A 
ATOM     23  C   UNL     1     -12.887   8.339  18.133  0.00  0.00    +0.023 A 
ATOM     24  C   UNL     1     -11.512   8.473  18.321  0.00  0.00    +0.029 A 
BRANCH  24  10
ATOM     10  N   UNL     1     -10.709   9.007  17.291  0.00  0.00    -0.336 N 
ATOM     29  C   UNL     1     -10.529   8.283  16.049  0.00  0.00    +0.129 C 
ATOM     30  C   UNL     1     -10.043  10.283  17.467  0.00  0.00    +0.129 C 
ENDBRANCH  24  10
ENDBRANCH  17  18
ENDBRANCH   8  17
ENDBRANCH  13   8
BRANCH  14   6
ATOM      6  O   UNL     1     -16.494   3.085  25.346  0.00  0.00    -0.442 OA
BRANCH   6  19
ATOM      7  O   UNL     1     -17.651   2.130  27.072  0.00  0.00    -0.226 OA
ATOM      9  N   UNL     1     -15.816   3.534  27.451  0.00  0.00    -0.251 N 
ATOM     19  C   UNL     1     -16.738   2.848  26.684  0.00  0.00    +0.405 C 
ATOM     35  H   UNL     1     -15.127   4.082  26.941  0.00  0.00    +0.158 HD
BRANCH   9  25
ATOM     25  C   UNL     1     -15.708   3.566  28.859  0.00  0.00    +0.037 A 
ATOM     26  C   UNL     1     -14.957   2.596  29.524  0.00  0.00    +0.035 A 
ATOM     27  C   UNL     1     -16.352   4.567  29.586  0.00  0.00    +0.023 A 
ATOM     28  C   UNL     1     -14.852   2.627  30.914  0.00  0.00    +0.057 A 
ATOM     31  C   UNL     1     -16.245   4.598  30.976  0.00  0.00    +0.002 A 
ATOM     32  C   UNL     1     -15.496   3.629  31.640  0.00  0.00    +0.012 A 
BRANCH  28  33
ATOM      1  F   UNL     1     -14.801   0.771  32.423  0.00  0.00    -0.166 F 
ATOM      2  F   UNL     1     -13.090   2.105  32.447  0.00  0.00    -0.166 F 
ATOM      3  F   UNL     1     -13.391   0.756  30.768  0.00  0.00    -0.166 F 
ATOM     33  C   UNL     1     -14.051   1.589  31.625  0.00  0.00    +0.417 C 
ENDBRANCH  28  33
ENDBRANCH   9  25
ENDBRANCH   6  19
ENDBRANCH  14   6
TORSDOF 8
ENDMDL
MODEL 7
REMARK VINA RESULT:      -7.2      4.444     10.808
REMARK  Name = 11867436
REMARK  10 active torsions:
REMARK  status: ('A' for Active; 'I' for Inactive)
REMARK    1  A    between atoms: O_6  and  C_14
REMARK    2  A    between atoms: O_6  and  C_19
REMARK    3  A    between atoms: N_8  and  C_13
REMARK    4  A    between atoms: N_8  and  C_17
REMARK    5  A    between atoms: N_9  and  C_25
REMARK    6  A    between atoms: N_10  and  C_24
REMARK    7  A    between atoms: N_10  and  C_29
REMARK    8  A    between atoms: N_10  and  C_30
REMARK    9  A    between atoms: C_17  and  C_18
REMARK   10  A    between atoms: C_28  and  C_33
REMARK                            x       y       z     vdW  Elec       q    Type
REMARK                         _______ _______ _______ _____ _____    ______ ____
ROOT
ATOM      4  O   UNL     1     -16.925   4.858  25.908  0.00  0.00    -0.369 OA
ATOM      5  O   UNL     1     -17.329   1.872  25.409  0.00  0.00    -0.369 OA
ATOM     11  C   UNL     1     -16.195   2.605  25.921  0.00  0.00    +0.170 C 
ATOM     12  C   UNL     1     -16.141   3.913  25.158  0.00  0.00    +0.191 C 
ATOM     13  C   UNL     1     -16.454   3.023  27.353  0.00  0.00    +0.111 C 
ATOM     14  C   UNL     1     -16.803   3.555  23.849  0.00  0.00    +0.235 C 
ATOM     15  C   UNL     1     -17.303   4.272  27.163  0.00  0.00    +0.181 C 
ATOM     16  C   UNL     1     -17.875   2.584  24.289  0.00  0.00    +0.207 C 
ENDROOT
BRANCH  13   8
ATOM      8  N   UNL     1     -15.213   3.366  28.044  0.00  0.00    -0.305 NA
ATOM     34  H   UNL     1     -15.236   4.350  28.314  0.00  0.00    +0.123 HD
BRANCH   8  17
ATOM     17  C   UNL     1     -15.053   2.564  29.248  0.00  0.00    +0.116 C 
BRANCH  17  18
ATOM     18  C   UNL     1     -14.792   3.417  30.460  0.00  0.00    -0.033 A 
ATOM     20  C   UNL     1     -13.748   3.097  31.328  0.00  0.00    +0.007 A 
ATOM     21  C   UNL     1     -15.596   4.528  30.717  0.00  0.00    +0.007 A 
ATOM     22  C   UNL     1     -13.507   3.887  32.451  0.00  0.00    +0.023 A 
ATOM     23  C   UNL     1     -15.355   5.318  31.841  0.00  0.00    +0.023 A 
ATOM     24  C   UNL     1     -14.311   4.998  32.707  0.00  0.00    +0.029 A 
BRANCH  24  10
ATOM     10  N   UNL     1     -14.067   5.797  33.843  0.00  0.00    -0.336 N 
ATOM     29  C   UNL     1     -13.671   7.184  33.695  0.00  0.00    +0.129 C 
ATOM     30  C   UNL     1     -14.197   5.239  35.175  0.00  0.00    +0.129 C 
ENDBRANCH  24  10
ENDBRANCH  17  18
ENDBRANCH   8  17
ENDBRANCH  13   8
BRANCH  14   6
ATOM      6  O   UNL     1     -17.340   4.666  23.168  0.00  0.00    -0.442 OA
BRANCH   6  19
ATOM      7  O   UNL     1     -16.972   4.300  20.941  0.00  0.00    -0.226 OA
ATOM      9  N   UNL     1     -16.021   6.123  22.061  0.00  0.00    -0.251 N 
ATOM     19  C   UNL     1     -16.784   4.977  21.944  0.00  0.00    +0.405 C 
ATOM     35  H   UNL     1     -15.987   6.548  22.984  0.00  0.00    +0.158 HD
BRANCH   9  25
ATOM     25  C   UNL     1     -15.283   6.783  21.052  0.00  0.00    +0.037 A 
ATOM     26  C   UNL     1     -13.889   6.738  21.065  0.00  0.00    +0.035 A 
ATOM     27  C   UNL     1     -15.949   7.480  20.043  0.00  0.00    +0.023 A 
ATOM     28  C   UNL     1     -13.161   7.390  20.070  0.00  0.00    +0.057 A 
ATOM     31  C   UNL     1     -15.221   8.131  19.049  0.00  0.00    +0.002 A 
ATOM     32  C   UNL     1     -13.827   8.087  19.062  0.00  0.00    +0.012 A 
BRANCH  28  33
ATOM      1  F   UNL     1     -11.133   6.668  19.027  0.00  0.00    -0.166 F 
ATOM      2  F   UNL     1     -11.152   6.741  21.195  0.00  0.00    -0.166 F 
ATOM      3  F   UNL     1     -11.107   8.588  20.047  0.00  0.00    -0.166 F 
ATOM     33  C   UNL     1     -11.671   7.345  20.085  0.00  0.00    +0.417 C 
ENDBRANCH  28  33
ENDBRANCH   9  25
ENDBRANCH   6  19
ENDBRANCH  14   6
TORSDOF 8
ENDMDL
MODEL 8
REMARK VINA RESULT:      -7.1     31.214     34.377
REMARK  Name = 11867436
REMARK  10 active torsions:
REMARK  status: ('A' for Active; 'I' for Inactive)
REMARK    1  A    between atoms: O_6  and  C_14
REMARK    2  A    between atoms: O_6  and  C_19
REMARK    3  A    between atoms: N_8  and  C_13
REMARK    4  A    between atoms: N_8  and  C_17
REMARK    5  A    between atoms: N_9  and  C_25
REMARK    6  A    between atoms: N_10  and  C_24
REMARK    7  A    between atoms: N_10  and  C_29
REMARK    8  A    between atoms: N_10  and  C_30
REMARK    9  A    between atoms: C_17  and  C_18
REMARK   10  A    between atoms: C_28  and  C_33
REMARK                            x       y       z     vdW  Elec       q    Type
REMARK                         _______ _______ _______ _____ _____    ______ ____
ROOT
ATOM      4  O   UNL     1      19.197   6.179  20.157  0.00  0.00    -0.369 OA
ATOM      5  O   UNL     1      19.246   8.300  22.355  0.00  0.00    -0.369 OA
ATOM     11  C   UNL     1      19.364   6.862  22.419  0.00  0.00    +0.170 C 
ATOM     12  C   UNL     1      18.429   6.301  21.367  0.00  0.00    +0.191 C 
ATOM     13  C   UNL     1      20.740   6.436  21.954  0.00  0.00    +0.111 C 
ATOM     14  C   UNL     1      17.379   7.380  21.255  0.00  0.00    +0.235 C 
ATOM     15  C   UNL     1      20.577   6.456  20.441  0.00  0.00    +0.181 C 
ATOM     16  C   UNL     1      18.195   8.639  21.438  0.00  0.00    +0.207 C 
ENDROOT
BRANCH  13   8
ATOM      8  N   UNL     1      21.063   5.082  22.401  0.00  0.00    -0.305 NA
ATOM     34  H   UNL     1      20.205   4.605  22.680  0.00  0.00    +0.123 HD
BRANCH   8  17
ATOM     17  C   UNL     1      21.686   4.319  21.331  0.00  0.00    +0.116 C 
BRANCH  17  18
ATOM     18  C   UNL     1      22.588   3.238  21.863  0.00  0.00    -0.033 A 
ATOM     20  C   UNL     1      23.339   2.459  20.984  0.00  0.00    +0.007 A 
ATOM     21  C   UNL     1      22.672   3.015  23.238  0.00  0.00    +0.007 A 
ATOM     22  C   UNL     1      24.174   1.457  21.478  0.00  0.00    +0.023 A 
ATOM     23  C   UNL     1      23.507   2.013  23.732  0.00  0.00    +0.023 A 
ATOM     24  C   UNL     1      24.258   1.235  22.852  0.00  0.00    +0.029 A 
BRANCH  24  10
ATOM     10  N   UNL     1      25.103   0.222  23.352  0.00  0.00    -0.336 N 
ATOM     29  C   UNL     1      24.922  -0.288  24.696  0.00  0.00    +0.129 C 
ATOM     30  C   UNL     1      26.172  -0.313  22.532  0.00  0.00    +0.129 C 
ENDBRANCH  24  10
ENDBRANCH  17  18
ENDBRANCH   8  17
ENDBRANCH  13   8
BRANCH  14   6
ATOM      6  O   UNL     1      16.690   7.368  20.025  0.00  0.00    -0.442 OA
BRANCH   6  19
ATOM      7  O   UNL     1      15.068   8.727  19.158  0.00  0.00    -0.226 OA
ATOM      9  N   UNL     1      14.696   7.440  21.078  0.00  0.00    -0.251 N 
ATOM     19  C   UNL     1      15.428   7.927  20.012  0.00  0.00    +0.405 C 
ATOM     35  H   UNL     1      15.172   6.775  21.683  0.00  0.00    +0.158 HD
BRANCH   9  25
ATOM     25  C   UNL     1      13.364   7.751  21.433  0.00  0.00    +0.037 A 
ATOM     26  C   UNL     1      13.049   9.020  21.919  0.00  0.00    +0.035 A 
ATOM     27  C   UNL     1      12.363   6.788  21.295  0.00  0.00    +0.023 A 
ATOM     28  C   UNL     1      11.734   9.325  22.270  0.00  0.00    +0.057 A 
ATOM     31  C   UNL     1      11.049   7.095  21.645  0.00  0.00    +0.002 A 
ATOM     32  C   UNL     1      10.734   8.363  22.133  0.00  0.00    +0.012 A 
BRANCH  28  33
ATOM      1  F   UNL     1      11.026  11.566  21.821  0.00  0.00    -0.166 F 
ATOM      2  F   UNL     1      12.430  11.286  23.450  0.00  0.00    -0.166 F 
ATOM      3  F   UNL     1      10.361  10.658  23.682  0.00  0.00    -0.166 F 
ATOM     33  C   UNL     1      11.397  10.680  22.793  0.00  0.00    +0.417 C 
ENDBRANCH  28  33
ENDBRANCH   9  25
ENDBRANCH   6  19
ENDBRANCH  14   6
TORSDOF 8
ENDMDL
MODEL 9
REMARK VINA RESULT:      -7.0     32.718     36.069
REMARK  Name = 11867436
REMARK  10 active torsions:
REMARK  status: ('A' for Active; 'I' for Inactive)
REMARK    1  A    between atoms: O_6  and  C_14
REMARK    2  A    between atoms: O_6  and  C_19
REMARK    3  A    between atoms: N_8  and  C_13
REMARK    4  A    between atoms: N_8  and  C_17
REMARK    5  A    between atoms: N_9  and  C_25
REMARK    6  A    between atoms: N_10  and  C_24
REMARK    7  A    between atoms: N_10  and  C_29
REMARK    8  A    between atoms: N_10  and  C_30
REMARK    9  A    between atoms: C_17  and  C_18
REMARK   10  A    between atoms: C_28  and  C_33
REMARK                            x       y       z     vdW  Elec       q    Type
REMARK                         _______ _______ _______ _____ _____    ______ ____
ROOT
ATOM      4  O   UNL     1      21.044   6.868  20.117  0.00  0.00    -0.369 OA
ATOM      5  O   UNL     1      20.880   5.749  22.956  0.00  0.00    -0.369 OA
ATOM     11  C   UNL     1      21.080   5.092  21.685  0.00  0.00    +0.170 C 
ATOM     12  C   UNL     1      20.222   5.827  20.675  0.00  0.00    +0.191 C 
ATOM     13  C   UNL     1      22.497   5.322  21.202  0.00  0.00    +0.111 C 
ATOM     14  C   UNL     1      19.116   6.390  21.534  0.00  0.00    +0.235 C 
ATOM     15  C   UNL     1      22.393   6.708  20.582  0.00  0.00    +0.181 C 
ATOM     16  C   UNL     1      19.849   6.737  22.810  0.00  0.00    +0.207 C 
ENDROOT
BRANCH  13   8
ATOM      8  N   UNL     1      22.879   4.348  20.181  0.00  0.00    -0.305 NA
ATOM     34  H   UNL     1      22.490   4.630  19.281  0.00  0.00    +0.123 HD
BRANCH   8  17
ATOM     17  C   UNL     1      24.327   4.276  20.052  0.00  0.00    +0.116 C 
BRANCH  17  18
ATOM     18  C   UNL     1      24.896   3.083  20.772  0.00  0.00    -0.033 A 
ATOM     20  C   UNL     1      26.188   3.134  21.295  0.00  0.00    +0.007 A 
ATOM     21  C   UNL     1      24.132   1.925  20.915  0.00  0.00    +0.007 A 
ATOM     22  C   UNL     1      26.715   2.028  21.961  0.00  0.00    +0.023 A 
ATOM     23  C   UNL     1      24.659   0.819  21.582  0.00  0.00    +0.023 A 
ATOM     24  C   UNL     1      25.950   0.871  22.105  0.00  0.00    +0.029 A 
BRANCH  24  10
ATOM     10  N   UNL     1      26.483  -0.247  22.779  0.00  0.00    -0.336 N 
ATOM     29  C   UNL     1      27.094  -0.096  24.084  0.00  0.00    +0.129 C 
ATOM     30  C   UNL     1      26.439  -1.562  22.168  0.00  0.00    +0.129 C 
ENDBRANCH  24  10
ENDBRANCH  17  18
ENDBRANCH   8  17
ENDBRANCH  13   8
BRANCH  14   6
ATOM      6  O   UNL     1      18.479   7.512  20.967  0.00  0.00    -0.442 OA
BRANCH   6  19
ATOM      7  O   UNL     1      17.007   6.251  19.754  0.00  0.00    -0.226 OA
ATOM      9  N   UNL     1      16.460   8.402  20.496  0.00  0.00    -0.251 N 
ATOM     19  C   UNL     1      17.268   7.292  20.342  0.00  0.00    +0.405 C 
ATOM     35  H   UNL     1      16.857   9.177  21.023  0.00  0.00    +0.158 HD
BRANCH   9  25
ATOM     25  C   UNL     1      15.145   8.595  20.015  0.00  0.00    +0.037 A 
ATOM     26  C   UNL     1      14.064   8.035  20.696  0.00  0.00    +0.035 A 
ATOM     27  C   UNL     1      14.929   9.345  18.859  0.00  0.00    +0.023 A 
ATOM     28  C   UNL     1      12.767   8.225  20.219  0.00  0.00    +0.057 A 
ATOM     31  C   UNL     1      13.632   9.535  18.383  0.00  0.00    +0.002 A 
ATOM     32  C   UNL     1      12.551   8.975  19.063  0.00  0.00    +0.012 A 
BRANCH  28  33
ATOM      1  F   UNL     1      11.498   6.274  20.773  0.00  0.00    -0.166 F 
ATOM      2  F   UNL     1      10.401   8.134  20.565  0.00  0.00    -0.166 F 
ATOM      3  F   UNL     1      11.681   7.817  22.295  0.00  0.00    -0.166 F 
ATOM     33  C   UNL     1      11.611   7.625  20.945  0.00  0.00    +0.417 C 
ENDBRANCH  28  33
ENDBRANCH   9  25
ENDBRANCH   6  19
ENDBRANCH  14   6
TORSDOF 8
ENDMDL
MODEL 10
REMARK VINA RESULT:      -7.0     33.065     35.421
REMARK  Name = 11867436
REMARK  10 active torsions:
REMARK  status: ('A' for Active; 'I' for Inactive)
REMARK    1  A    between atoms: O_6  and  C_14
REMARK    2  A    between atoms: O_6  and  C_19
REMARK    3  A    between atoms: N_8  and  C_13
REMARK    4  A    between atoms: N_8  and  C_17
REMARK    5  A    between atoms: N_9  and  C_25
REMARK    6  A    between atoms: N_10  and  C_24
REMARK    7  A    between atoms: N_10  and  C_29
REMARK    8  A    between atoms: N_10  and  C_30
REMARK    9  A    between atoms: C_17  and  C_18
REMARK   10  A    between atoms: C_28  and  C_33
REMARK                            x       y       z     vdW  Elec       q    Type
REMARK                         _______ _______ _______ _____ _____    ______ ____
ROOT
ATOM      4  O   UNL     1      21.920   4.483  23.126  0.00  0.00    -0.369 OA
ATOM      5  O   UNL     1      23.830   3.735  20.862  0.00  0.00    -0.369 OA
ATOM     11  C   UNL     1      22.387   3.752  20.922  0.00  0.00    +0.170 C 
ATOM     12  C   UNL     1      22.004   3.298  22.315  0.00  0.00    +0.191 C 
ATOM     13  C   UNL     1      21.884   5.178  20.847  0.00  0.00    +0.111 C 
ATOM     14  C   UNL     1      23.176   2.433  22.711  0.00  0.00    +0.235 C 
ATOM     15  C   UNL     1      22.048   5.642  22.288  0.00  0.00    +0.181 C 
ATOM     16  C   UNL     1      24.338   3.162  22.075  0.00  0.00    +0.207 C 
ENDROOT
BRANCH  13   8
ATOM      8  N   UNL     1      20.473   5.229  20.467  0.00  0.00    -0.305 NA
ATOM     34  H   UNL     1      20.005   4.381  20.788  0.00  0.00    +0.123 HD
BRANCH   8  17
ATOM     17  C   UNL     1      19.815   6.375  21.076  0.00  0.00    +0.116 C 
BRANCH  17  18
ATOM     18  C   UNL     1      18.423   6.575  20.538  0.00  0.00    -0.033 A 
ATOM     20  C   UNL     1      17.563   7.489  21.148  0.00  0.00    +0.007 A 
ATOM     21  C   UNL     1      17.993   5.845  19.430  0.00  0.00    +0.007 A 
ATOM     22  C   UNL     1      16.274   7.672  20.649  0.00  0.00    +0.023 A 
ATOM     23  C   UNL     1      16.703   6.029  18.932  0.00  0.00    +0.023 A 
ATOM     24  C   UNL     1      15.844   6.943  19.541  0.00  0.00    +0.029 A 
BRANCH  24  10
ATOM     10  N   UNL     1      14.541   7.129  19.037  0.00  0.00    -0.336 N 
ATOM     29  C   UNL     1      13.387   6.941  19.895  0.00  0.00    +0.129 C 
ATOM     30  C   UNL     1      14.336   7.498  17.650  0.00  0.00    +0.129 C 
ENDBRANCH  24  10
ENDBRANCH  17  18
ENDBRANCH   8  17
ENDBRANCH  13   8
BRANCH  14   6
ATOM      6  O   UNL     1      23.332   2.300  24.106  0.00  0.00    -0.442 OA
BRANCH   6  19
ATOM      7  O   UNL     1      23.907   0.148  24.619  0.00  0.00    -0.226 OA
ATOM      9  N   UNL     1      21.814   1.029  25.186  0.00  0.00    -0.251 N 
ATOM     19  C   UNL     1      23.085   1.055  24.646  0.00  0.00    +0.405 C 
ATOM     35  H   UNL     1      21.277   1.889  25.111  0.00  0.00    +0.158 HD
BRANCH   9  25
ATOM     25  C   UNL     1      21.166  -0.047  25.834  0.00  0.00    +0.037 A 
ATOM     26  C   UNL     1      19.993  -0.579  25.300  0.00  0.00    +0.035 A 
ATOM     27  C   UNL     1      21.701  -0.577  27.009  0.00  0.00    +0.023 A 
ATOM     28  C   UNL     1      19.353  -1.640  25.940  0.00  0.00    +0.057 A 
ATOM     31  C   UNL     1      21.061  -1.638  27.648  0.00  0.00    +0.002 A 
ATOM     32  C   UNL     1      19.888  -2.170  27.115  0.00  0.00    +0.012 A 
BRANCH  28  33
ATOM      1  F   UNL     1      17.580  -3.237  26.106  0.00  0.00    -0.166 F 
ATOM      2  F   UNL     1      18.245  -2.710  24.110  0.00  0.00    -0.166 F 
ATOM      3  F   UNL     1      17.097  -1.283  25.282  0.00  0.00    -0.166 F 
ATOM     33  C   UNL     1      18.097  -2.207  25.371  0.00  0.00    +0.417 C 
ENDBRANCH  28  33
ENDBRANCH   9  25
ENDBRANCH   6  19
ENDBRANCH  14   6
TORSDOF 8
ENDMDL
