REMARK  Name = 26742985
REMARK  8 active torsions:
REMARK  status: ('A' for Active; 'I' for Inactive)
REMARK    1  A    between atoms: C_7  and  C_11
REMARK    2  A    between atoms: C_8  and  C_12
REMARK    3  A    between atoms: C_11  and  C_14
REMARK    4  A    between atoms: C_12  and  C_15
REMARK    5  A    between atoms: C_21  and  C_22
REMARK    6  A    between atoms: C_22  and  C_23
REMARK    7  A    between atoms: C_23  and  C_24
REMARK    8  A    between atoms: C_24  and  C_25
REMARK                            x       y       z     vdW  Elec       q    Type
REMARK                         _______ _______ _______ _____ _____    ______ ____
ROOT
ATOM      4  N   UNL     1      -0.327   2.871   0.829  0.00  0.00    -0.316 NA
ATOM      7  C   UNL     1       1.151   0.955  -0.859  0.00  0.00    +0.004 C 
ATOM      8  C   UNL     1      -0.309   0.716  -0.405  0.00  0.00    +0.012 C 
ATOM      9  C   UNL     1       1.439   2.465  -0.850  0.00  0.00    +0.019 C 
ATOM     10  C   UNL     1      -0.618   1.440   0.916  0.00  0.00    +0.085 C 
ATOM     13  C   UNL     1       1.070   3.121   0.480  0.00  0.00    +0.081 C 
ATOM     26  H   UNL     1      -0.535   3.313   1.723  0.00  0.00    +0.122 HD
ENDROOT
BRANCH   7  11
ATOM     11  C   UNL     1       2.194   0.195  -0.031  0.00  0.00    +0.100 C 
BRANCH  11  14
ATOM      1  O   UNL     1       3.545   0.532  -1.950  0.00  0.00    -0.276 OA
ATOM      2  O   UNL     1       6.863  -1.214   1.275  0.00  0.00    -0.377 OA
ATOM      5  N   UNL     1       4.527  -0.596  -0.174  0.00  0.00    -0.297 N 
ATOM     14  C   UNL     1       3.478   0.062  -0.811  0.00  0.00    +0.216 C 
ATOM     16  C   UNL     1       5.809  -0.765  -0.858  0.00  0.00    +0.136 C 
ATOM     17  C   UNL     1       4.443  -1.276   1.123  0.00  0.00    +0.136 C 
ATOM     19  C   UNL     1       6.959  -0.432   0.081  0.00  0.00    +0.179 C 
ATOM     20  C   UNL     1       5.653  -0.928   1.980  0.00  0.00    +0.179 C 
ENDBRANCH  11  14
ENDBRANCH   7  11
BRANCH   8  12
ATOM     12  C   UNL     1      -0.670  -0.766  -0.303  0.00  0.00    +0.064 C 
BRANCH  12  15
ATOM      3  O   UNL     1      -4.082  -1.325  -1.309  0.00  0.00    -0.359 OA
ATOM      6  N   UNL     1      -2.729  -1.166  -1.583  0.00  0.00    -0.083 NA
ATOM     15  C   UNL     1      -2.154  -0.975  -0.393  0.00  0.00    +0.084 A 
ATOM     18  C   UNL     1      -3.086  -1.001   0.660  0.00  0.00    +0.071 A 
ATOM     21  C   UNL     1      -4.282  -1.224   0.030  0.00  0.00    +0.138 A 
BRANCH  21  22
ATOM     22  C   UNL     1      -5.665  -1.369   0.499  0.00  0.00    +0.077 C 
BRANCH  22  23
ATOM     23  C   UNL     1      -6.519  -0.101   0.265  0.00  0.00    +0.007 C 
BRANCH  23  24
ATOM     24  C   UNL     1      -7.944  -0.247   0.797  0.00  0.00    -0.003 C 
ATOM     25  C   UNL     1      -8.749   1.027   0.591  0.00  0.00    +0.004 C 
ENDBRANCH  23  24
ENDBRANCH  22  23
ENDBRANCH  21  22
ENDBRANCH  12  15
ENDBRANCH   8  12
TORSDOF 7
