MODEL 1
REMARK VINA RESULT:      -6.6      0.000      0.000
REMARK  Name = 9424317
REMARK  3 active torsions:
REMARK  status: ('A' for Active; 'I' for Inactive)
REMARK    1  A    between atoms: N_6  and  C_9
REMARK    2  A    between atoms: N_8  and  C_23
REMARK    3  A    between atoms: C_23  and  C_24
REMARK                            x       y       z     vdW  Elec       q    Type
REMARK                         _______ _______ _______ _____ _____    ______ ____
ROOT
ATOM      1 BR   UNL     1      23.895   3.611  24.190  0.00  0.00    -0.050 Br
ATOM      2  O   UNL     1      17.895   5.973  19.009  0.00  0.00    -0.273 OA
ATOM      3  O   UNL     1      21.382   7.951  22.345  0.00  0.00    -0.270 OA
ATOM      5  N   UNL     1      19.250   7.381  21.622  0.00  0.00    -0.286 N 
ATOM      7  N   UNL     1      19.769   5.024  19.910  0.00  0.00    -0.283 N 
ATOM      9  C   UNL     1      16.507   8.145  20.976  0.00  0.00    +0.078 C 
ATOM     10  C   UNL     1      18.278   6.326  21.365  0.00  0.00    +0.164 C 
ATOM     11  C   UNL     1      16.813   6.752  21.526  0.00  0.00    +0.054 C 
ATOM     12  C   UNL     1      17.492   9.149  21.565  0.00  0.00    +0.041 C 
ATOM     13  C   UNL     1      18.920   8.752  21.227  0.00  0.00    +0.111 C 
ATOM     14  C   UNL     1      18.622   5.792  19.986  0.00  0.00    +0.238 C 
ATOM     15  C   UNL     1      20.558   7.095  22.017  0.00  0.00    +0.249 C 
ATOM     16  C   UNL     1      21.022   5.683  21.977  0.00  0.00    +0.059 A 
ATOM     17  C   UNL     1      20.725   4.796  20.926  0.00  0.00    +0.046 A 
ATOM     19  C   UNL     1      21.968   5.316  22.950  0.00  0.00    +0.030 A 
ATOM     20  C   UNL     1      21.434   3.587  20.838  0.00  0.00    +0.025 A 
ATOM     21  C   UNL     1      22.626   4.089  22.873  0.00  0.00    +0.019 A 
ATOM     22  C   UNL     1      22.369   3.230  21.810  0.00  0.00    +0.017 A 
ATOM     27  H   UNL     1      19.885   4.484  19.056  0.00  0.00    +0.155 HD
ENDROOT
BRANCH   9   6
ATOM      4  O   UNL     1      14.389   8.647  19.081  0.00  0.00    -0.253 OA
ATOM      6  N   UNL     1      15.147   8.525  21.273  0.00  0.00    -0.296 N 
ATOM      8  N   UNL     1      12.960   9.101  20.852  0.00  0.00    -0.296 N 
ATOM     18  C   UNL     1      14.184   8.748  20.290  0.00  0.00    +0.300 C 
ATOM     26  H   UNL     1      14.857   8.564  22.245  0.00  0.00    +0.151 HD
ATOM     28  H   UNL     1      12.881   9.142  21.864  0.00  0.00    +0.151 HD
BRANCH   8  23
ATOM     23  C   UNL     1      11.789   9.389  20.059  0.00  0.00    +0.132 C 
BRANCH  23  24
ATOM     24  C   UNL     1      10.702   8.435  20.432  0.00  0.00    -0.016 C 
ATOM     25  C   UNL     1      10.822   7.503  21.384  0.00  0.00    +0.005 C 
ENDBRANCH  23  24
ENDBRANCH   8  23
ENDBRANCH   9   6
TORSDOF 3
ENDMDL
MODEL 2
REMARK VINA RESULT:      -6.4     27.873     31.084
REMARK  Name = 9424317
REMARK  3 active torsions:
REMARK  status: ('A' for Active; 'I' for Inactive)
REMARK    1  A    between atoms: N_6  and  C_9
REMARK    2  A    between atoms: N_8  and  C_23
REMARK    3  A    between atoms: C_23  and  C_24
REMARK                            x       y       z     vdW  Elec       q    Type
REMARK                         _______ _______ _______ _____ _____    ______ ____
ROOT
ATOM      1 BR   UNL     1      -1.804 -10.292  12.035  0.00  0.00    -0.050 Br
ATOM      2  O   UNL     1      -5.411 -11.189  19.425  0.00  0.00    -0.273 OA
ATOM      3  O   UNL     1      -5.967 -12.623  14.442  0.00  0.00    -0.270 OA
ATOM      5  N   UNL     1      -6.522 -11.452  16.368  0.00  0.00    -0.286 N 
ATOM      7  N   UNL     1      -3.901 -11.156  17.709  0.00  0.00    -0.283 N 
ATOM      9  C   UNL     1      -8.465 -10.746  18.430  0.00  0.00    +0.078 C 
ATOM     10  C   UNL     1      -6.193 -10.374  17.293  0.00  0.00    +0.164 C 
ATOM     11  C   UNL     1      -7.401  -9.739  17.992  0.00  0.00    +0.054 C 
ATOM     12  C   UNL     1      -8.851 -11.622  17.244  0.00  0.00    +0.041 C 
ATOM     13  C   UNL     1      -7.632 -12.349  16.702  0.00  0.00    +0.111 C 
ATOM     14  C   UNL     1      -5.163 -10.961  18.240  0.00  0.00    +0.238 C 
ATOM     15  C   UNL     1      -5.683 -11.792  15.307  0.00  0.00    +0.249 C 
ATOM     16  C   UNL     1      -4.331 -11.176  15.241  0.00  0.00    +0.059 A 
ATOM     17  C   UNL     1      -3.499 -11.006  16.362  0.00  0.00    +0.046 A 
ATOM     19  C   UNL     1      -3.814 -10.956  13.952  0.00  0.00    +0.030 A 
ATOM     20  C   UNL     1      -2.147 -10.681  16.160  0.00  0.00    +0.025 A 
ATOM     21  C   UNL     1      -2.482 -10.585  13.775  0.00  0.00    +0.019 A 
ATOM     22  C   UNL     1      -1.645 -10.461  14.878  0.00  0.00    +0.017 A 
ATOM     27  H   UNL     1      -3.159 -11.331  18.382  0.00  0.00    +0.155 HD
ENDROOT
BRANCH   9   6
ATOM      4  O   UNL     1     -10.606 -11.913  19.973  0.00  0.00    -0.253 OA
ATOM      6  N   UNL     1      -9.621 -10.067  18.966  0.00  0.00    -0.296 N 
ATOM      8  N   UNL     1     -11.609  -9.825  20.097  0.00  0.00    -0.296 N 
ATOM     18  C   UNL     1     -10.611 -10.713  19.703  0.00  0.00    +0.300 C 
ATOM     26  H   UNL     1      -9.682  -9.059  18.861  0.00  0.00    +0.151 HD
ATOM     28  H   UNL     1     -11.519  -8.846  19.843  0.00  0.00    +0.151 HD
BRANCH   8  23
ATOM     23  C   UNL     1     -12.757 -10.231  20.873  0.00  0.00    +0.132 C 
BRANCH  23  24
ATOM     24  C   UNL     1     -13.999  -9.773  20.182  0.00  0.00    -0.016 C 
ATOM     25  C   UNL     1     -14.981  -9.094  20.785  0.00  0.00    +0.005 C 
ENDBRANCH  23  24
ENDBRANCH   8  23
ENDBRANCH   9   6
TORSDOF 3
ENDMDL
MODEL 3
REMARK VINA RESULT:      -6.3     16.519     19.431
REMARK  Name = 9424317
REMARK  3 active torsions:
REMARK  status: ('A' for Active; 'I' for Inactive)
REMARK    1  A    between atoms: N_6  and  C_9
REMARK    2  A    between atoms: N_8  and  C_23
REMARK    3  A    between atoms: C_23  and  C_24
REMARK                            x       y       z     vdW  Elec       q    Type
REMARK                         _______ _______ _______ _____ _____    ______ ____
ROOT
ATOM      1 BR   UNL     1       9.902  12.254  10.167  0.00  0.00    -0.050 Br
ATOM      2  O   UNL     1       8.774   7.980   3.175  0.00  0.00    -0.273 OA
ATOM      3  O   UNL     1       8.588   7.402   8.355  0.00  0.00    -0.270 OA
ATOM      5  N   UNL     1       9.477   7.085   6.233  0.00  0.00    -0.286 N 
ATOM      7  N   UNL     1       8.660   9.556   4.826  0.00  0.00    -0.283 N 
ATOM      9  C   UNL     1      10.346   5.298   4.094  0.00  0.00    +0.078 C 
ATOM     10  C   UNL     1      10.193   7.656   5.099  0.00  0.00    +0.164 C 
ATOM     11  C   UNL     1      11.029   6.651   4.298  0.00  0.00    +0.054 C 
ATOM     12  C   UNL     1       9.887   4.755   5.442  0.00  0.00    +0.041 C 
ATOM     13  C   UNL     1       8.931   5.731   6.109  0.00  0.00    +0.111 C 
ATOM     14  C   UNL     1       9.138   8.378   4.282  0.00  0.00    +0.238 C 
ATOM     15  C   UNL     1       9.102   7.859   7.331  0.00  0.00    +0.249 C 
ATOM     16  C   UNL     1       9.258   9.335   7.250  0.00  0.00    +0.059 A 
ATOM     17  C   UNL     1       8.935  10.090   6.107  0.00  0.00    +0.046 A 
ATOM     19  C   UNL     1       9.550   9.994   8.457  0.00  0.00    +0.030 A 
ATOM     20  C   UNL     1       8.847  11.487   6.219  0.00  0.00    +0.025 A 
ATOM     21  C   UNL     1       9.507  11.385   8.535  0.00  0.00    +0.019 A 
ATOM     22  C   UNL     1       9.142  12.131   7.420  0.00  0.00    +0.017 A 
ATOM     27  H   UNL     1       8.132  10.153   4.196  0.00  0.00    +0.155 HD
ENDROOT
BRANCH   9   6
ATOM      4  O   UNL     1      11.117   5.286   1.313  0.00  0.00    -0.253 OA
ATOM      6  N   UNL     1      11.239   4.368   3.443  0.00  0.00    -0.296 N 
ATOM      8  N   UNL     1      12.437   3.422   1.722  0.00  0.00    -0.296 N 
ATOM     18  C   UNL     1      11.557   4.438   2.088  0.00  0.00    +0.300 C 
ATOM     26  H   UNL     1      11.712   3.673   4.011  0.00  0.00    +0.151 HD
ATOM     28  H   UNL     1      12.760   2.776   2.436  0.00  0.00    +0.151 HD
BRANCH   8  23
ATOM     23  C   UNL     1      12.929   3.260   0.375  0.00  0.00    +0.132 C 
BRANCH  23  24
ATOM     24  C   UNL     1      14.376   3.626   0.338  0.00  0.00    -0.016 C 
ATOM     25  C   UNL     1      15.185   3.578   1.404  0.00  0.00    +0.005 C 
ENDBRANCH  23  24
ENDBRANCH   8  23
ENDBRANCH   9   6
TORSDOF 3
ENDMDL
MODEL 4
REMARK VINA RESULT:      -6.1      1.582      1.921
REMARK  Name = 9424317
REMARK  3 active torsions:
REMARK  status: ('A' for Active; 'I' for Inactive)
REMARK    1  A    between atoms: N_6  and  C_9
REMARK    2  A    between atoms: N_8  and  C_23
REMARK    3  A    between atoms: C_23  and  C_24
REMARK                            x       y       z     vdW  Elec       q    Type
REMARK                         _______ _______ _______ _____ _____    ______ ____
ROOT
ATOM      1 BR   UNL     1      22.806   6.287  25.625  0.00  0.00    -0.050 Br
ATOM      2  O   UNL     1      17.992   5.837  18.914  0.00  0.00    -0.273 OA
ATOM      3  O   UNL     1      19.638   9.246  22.501  0.00  0.00    -0.270 OA
ATOM      5  N   UNL     1      18.075   7.888  21.450  0.00  0.00    -0.286 N 
ATOM      7  N   UNL     1      19.755   5.709  20.362  0.00  0.00    -0.283 N 
ATOM      9  C   UNL     1      15.512   7.561  20.091  0.00  0.00    +0.078 C 
ATOM     10  C   UNL     1      17.595   6.537  21.188  0.00  0.00    +0.164 C 
ATOM     11  C   UNL     1      16.084   6.430  20.944  0.00  0.00    +0.054 C 
ATOM     12  C   UNL     1      15.930   8.903  20.683  0.00  0.00    +0.041 C 
ATOM     13  C   UNL     1      17.445   9.006  20.744  0.00  0.00    +0.111 C 
ATOM     14  C   UNL     1      18.448   6.025  20.042  0.00  0.00    +0.238 C 
ATOM     15  C   UNL     1      19.248   8.125  22.167  0.00  0.00    +0.249 C 
ATOM     16  C   UNL     1      20.130   6.973  22.493  0.00  0.00    +0.059 A 
ATOM     17  C   UNL     1      20.424   5.938  21.587  0.00  0.00    +0.046 A 
ATOM     19  C   UNL     1      20.846   7.064  23.699  0.00  0.00    +0.030 A 
ATOM     20  C   UNL     1      21.477   5.056  21.883  0.00  0.00    +0.025 A 
ATOM     21  C   UNL     1      21.854   6.149  23.998  0.00  0.00    +0.019 A 
ATOM     22  C   UNL     1      22.178   5.153  23.084  0.00  0.00    +0.017 A 
ATOM     27  H   UNL     1      20.261   5.162  19.670  0.00  0.00    +0.155 HD
ENDROOT
BRANCH   9   6
ATOM      4  O   UNL     1      13.619   7.927  22.238  0.00  0.00    -0.253 OA
ATOM      6  N   UNL     1      14.074   7.462  20.009  0.00  0.00    -0.296 N 
ATOM      8  N   UNL     1      11.895   7.501  20.745  0.00  0.00    -0.296 N 
ATOM     18  C   UNL     1      13.232   7.655  21.103  0.00  0.00    +0.300 C 
ATOM     26  H   UNL     1      13.650   7.314  19.098  0.00  0.00    +0.151 HD
ATOM     28  H   UNL     1      11.669   7.294  19.777  0.00  0.00    +0.151 HD
BRANCH   8  23
ATOM     23  C   UNL     1      10.811   7.646  21.687  0.00  0.00    +0.132 C 
BRANCH  23  24
ATOM     24  C   UNL     1      10.503   9.097  21.855  0.00  0.00    -0.016 C 
ATOM     25  C   UNL     1      10.790   9.798  22.959  0.00  0.00    +0.005 C 
ENDBRANCH  23  24
ENDBRANCH   8  23
ENDBRANCH   9   6
TORSDOF 3
ENDMDL
MODEL 5
REMARK VINA RESULT:      -6.1     29.043     32.571
REMARK  Name = 9424317
REMARK  3 active torsions:
REMARK  status: ('A' for Active; 'I' for Inactive)
REMARK    1  A    between atoms: N_6  and  C_9
REMARK    2  A    between atoms: N_8  and  C_23
REMARK    3  A    between atoms: C_23  and  C_24
REMARK                            x       y       z     vdW  Elec       q    Type
REMARK                         _______ _______ _______ _____ _____    ______ ____
ROOT
ATOM      1 BR   UNL     1     -15.372  -9.215  18.179  0.00  0.00    -0.050 Br
ATOM      2  O   UNL     1      -7.537 -11.148  19.995  0.00  0.00    -0.273 OA
ATOM      3  O   UNL     1     -10.327  -7.806  17.124  0.00  0.00    -0.270 OA
ATOM      5  N   UNL     1      -8.914  -9.617  17.464  0.00  0.00    -0.286 N 
ATOM      7  N   UNL     1      -9.746 -10.578  20.136  0.00  0.00    -0.283 N 
ATOM      9  C   UNL     1      -6.377 -10.977  16.973  0.00  0.00    +0.078 C 
ATOM     10  C   UNL     1      -8.763 -10.993  17.923  0.00  0.00    +0.164 C 
ATOM     11  C   UNL     1      -7.652 -11.783  17.222  0.00  0.00    +0.054 C 
ATOM     12  C   UNL     1      -6.732  -9.678  16.258  0.00  0.00    +0.041 C 
ATOM     13  C   UNL     1      -7.713  -8.867  17.087  0.00  0.00    +0.111 C 
ATOM     14  C   UNL     1      -8.601 -10.896  19.429  0.00  0.00    +0.238 C 
ATOM     15  C   UNL     1     -10.122  -8.929  17.588  0.00  0.00    +0.249 C 
ATOM     16  C   UNL     1     -11.214  -9.545  18.388  0.00  0.00    +0.059 A 
ATOM     17  C   UNL     1     -11.005 -10.199  19.616  0.00  0.00    +0.046 A 
ATOM     19  C   UNL     1     -12.525  -9.260  17.967  0.00  0.00    +0.030 A 
ATOM     20  C   UNL     1     -12.115 -10.493  20.425  0.00  0.00    +0.025 A 
ATOM     21  C   UNL     1     -13.617  -9.606  18.761  0.00  0.00    +0.019 A 
ATOM     22  C   UNL     1     -13.411 -10.210  19.996  0.00  0.00    +0.017 A 
ATOM     27  H   UNL     1      -9.703 -10.731  21.141  0.00  0.00    +0.155 HD
ENDROOT
BRANCH   9   6
ATOM      4  O   UNL     1      -3.627 -10.297  16.426  0.00  0.00    -0.253 OA
ATOM      6  N   UNL     1      -5.428 -11.745  16.202  0.00  0.00    -0.296 N 
ATOM      8  N   UNL     1      -3.418 -12.264  15.212  0.00  0.00    -0.296 N 
ATOM     18  C   UNL     1      -4.113 -11.338  15.988  0.00  0.00    +0.300 C 
ATOM     26  H   UNL     1      -5.710 -12.657  15.858  0.00  0.00    +0.151 HD
ATOM     28  H   UNL     1      -3.898 -13.106  14.910  0.00  0.00    +0.151 HD
BRANCH   8  23
ATOM     23  C   UNL     1      -2.034 -12.090  14.839  0.00  0.00    +0.132 C 
BRANCH  23  24
ATOM     24  C   UNL     1      -1.953 -11.855  13.367  0.00  0.00    -0.016 C 
ATOM     25  C   UNL     1      -2.214 -10.680  12.783  0.00  0.00    +0.005 C 
ENDBRANCH  23  24
ENDBRANCH   8  23
ENDBRANCH   9   6
TORSDOF 3
ENDMDL
MODEL 6
REMARK VINA RESULT:      -6.0     29.279     31.688
REMARK  Name = 9424317
REMARK  3 active torsions:
REMARK  status: ('A' for Active; 'I' for Inactive)
REMARK    1  A    between atoms: N_6  and  C_9
REMARK    2  A    between atoms: N_8  and  C_23
REMARK    3  A    between atoms: C_23  and  C_24
REMARK                            x       y       z     vdW  Elec       q    Type
REMARK                         _______ _______ _______ _____ _____    ______ ____
ROOT
ATOM      1 BR   UNL     1      -2.900 -10.657  11.086  0.00  0.00    -0.050 Br
ATOM      2  O   UNL     1      -8.601  -9.969  17.040  0.00  0.00    -0.273 OA
ATOM      3  O   UNL     1      -3.436 -10.286  16.390  0.00  0.00    -0.270 OA
ATOM      5  N   UNL     1      -5.528 -11.066  17.028  0.00  0.00    -0.286 N 
ATOM      7  N   UNL     1      -7.333  -9.639  15.167  0.00  0.00    -0.283 N 
ATOM      9  C   UNL     1      -7.314 -12.142  19.072  0.00  0.00    +0.078 C 
ATOM     10  C   UNL     1      -6.837 -11.560  16.617  0.00  0.00    +0.164 C 
ATOM     11  C   UNL     1      -7.494 -12.532  17.605  0.00  0.00    +0.054 C 
ATOM     12  C   UNL     1      -5.834 -11.908  19.355  0.00  0.00    +0.041 C 
ATOM     13  C   UNL     1      -5.287 -10.816  18.451  0.00  0.00    +0.111 C 
ATOM     14  C   UNL     1      -7.659 -10.317  16.327  0.00  0.00    +0.238 C 
ATOM     15  C   UNL     1      -4.589 -10.614  16.100  0.00  0.00    +0.249 C 
ATOM     16  C   UNL     1      -5.010 -10.444  14.684  0.00  0.00    +0.059 A 
ATOM     17  C   UNL     1      -6.243  -9.885  14.301  0.00  0.00    +0.046 A 
ATOM     19  C   UNL     1      -4.020 -10.674  13.713  0.00  0.00    +0.030 A 
ATOM     20  C   UNL     1      -6.429  -9.508  12.961  0.00  0.00    +0.025 A 
ATOM     21  C   UNL     1      -4.243 -10.339  12.378  0.00  0.00    +0.019 A 
ATOM     22  C   UNL     1      -5.442  -9.744  12.005  0.00  0.00    +0.017 A 
ATOM     27  H   UNL     1      -8.011  -8.951  14.851  0.00  0.00    +0.155 HD
ENDROOT
BRANCH   9   6
ATOM      4  O   UNL     1     -10.005 -12.318  20.098  0.00  0.00    -0.253 OA
ATOM      6  N   UNL     1      -7.848 -13.164  19.942  0.00  0.00    -0.296 N 
ATOM      8  N   UNL     1      -9.416 -14.265  21.214  0.00  0.00    -0.296 N 
ATOM     18  C   UNL     1      -9.167 -13.170  20.390  0.00  0.00    +0.300 C 
ATOM     26  H   UNL     1      -7.256 -13.952  20.182  0.00  0.00    +0.151 HD
ATOM     28  H   UNL     1      -8.665 -14.928  21.385  0.00  0.00    +0.151 HD
BRANCH   8  23
ATOM     23  C   UNL     1     -10.703 -14.514  21.817  0.00  0.00    +0.132 C 
BRANCH  23  24
ATOM     24  C   UNL     1     -10.507 -14.880  23.251  0.00  0.00    -0.016 C 
ATOM     25  C   UNL     1     -11.451 -14.750  24.190  0.00  0.00    +0.005 C 
ENDBRANCH  23  24
ENDBRANCH   8  23
ENDBRANCH   9   6
TORSDOF 3
ENDMDL
MODEL 7
REMARK VINA RESULT:      -6.0     19.623     21.282
REMARK  Name = 9424317
REMARK  3 active torsions:
REMARK  status: ('A' for Active; 'I' for Inactive)
REMARK    1  A    between atoms: N_6  and  C_9
REMARK    2  A    between atoms: N_8  and  C_23
REMARK    3  A    between atoms: C_23  and  C_24
REMARK                            x       y       z     vdW  Elec       q    Type
REMARK                         _______ _______ _______ _____ _____    ______ ____
ROOT
ATOM      1 BR   UNL     1      16.266   5.091  -4.281  0.00  0.00    -0.050 Br
ATOM      2  O   UNL     1       9.648   4.282   0.614  0.00  0.00    -0.273 OA
ATOM      3  O   UNL     1      13.524   7.606  -0.446  0.00  0.00    -0.270 OA
ATOM      5  N   UNL     1      12.375   6.058   0.848  0.00  0.00    -0.286 N 
ATOM      7  N   UNL     1      11.038   4.389  -1.197  0.00  0.00    -0.283 N 
ATOM      9  C   UNL     1      11.045   5.334   3.344  0.00  0.00    +0.078 C 
ATOM     10  C   UNL     1      11.989   4.667   1.051  0.00  0.00    +0.164 C 
ATOM     11  C   UNL     1      11.767   4.271   2.516  0.00  0.00    +0.054 C 
ATOM     12  C   UNL     1      11.759   6.672   3.185  0.00  0.00    +0.041 C 
ATOM     13  C   UNL     1      11.799   7.082   1.723  0.00  0.00    +0.111 C 
ATOM     14  C   UNL     1      10.779   4.453   0.160  0.00  0.00    +0.238 C 
ATOM     15  C   UNL     1      13.087   6.465  -0.281  0.00  0.00    +0.249 C 
ATOM     16  C   UNL     1      13.277   5.496  -1.393  0.00  0.00    +0.059 A 
ATOM     17  C   UNL     1      12.265   4.635  -1.855  0.00  0.00    +0.046 A 
ATOM     19  C   UNL     1      14.471   5.620  -2.125  0.00  0.00    +0.030 A 
ATOM     20  C   UNL     1      12.448   3.968  -3.077  0.00  0.00    +0.025 A 
ATOM     21  C   UNL     1      14.654   4.911  -3.310  0.00  0.00    +0.019 A 
ATOM     22  C   UNL     1      13.637   4.095  -3.793  0.00  0.00    +0.017 A 
ATOM     27  H   UNL     1      10.284   4.026  -1.775  0.00  0.00    +0.155 HD
ENDROOT
BRANCH   9   6
ATOM      4  O   UNL     1       9.367   6.476   5.395  0.00  0.00    -0.253 OA
ATOM      6  N   UNL     1      10.984   4.946   4.733  0.00  0.00    -0.296 N 
ATOM      8  N   UNL     1      10.282   4.989   6.923  0.00  0.00    -0.296 N 
ATOM     18  C   UNL     1      10.139   5.556   5.659  0.00  0.00    +0.300 C 
ATOM     26  H   UNL     1      11.530   4.146   5.036  0.00  0.00    +0.151 HD
ATOM     28  H   UNL     1      10.933   4.219   7.042  0.00  0.00    +0.151 HD
BRANCH   8  23
ATOM     23  C   UNL     1       9.525   5.432   8.070  0.00  0.00    +0.132 C 
BRANCH  23  24
ATOM     24  C   UNL     1       9.594   4.387   9.133  0.00  0.00    -0.016 C 
ATOM     25  C   UNL     1       8.960   4.475  10.309  0.00  0.00    +0.005 C 
ENDBRANCH  23  24
ENDBRANCH   8  23
ENDBRANCH   9   6
TORSDOF 3
ENDMDL
MODEL 8
REMARK VINA RESULT:      -6.0     32.647     35.143
REMARK  Name = 9424317
REMARK  3 active torsions:
REMARK  status: ('A' for Active; 'I' for Inactive)
REMARK    1  A    between atoms: N_6  and  C_9
REMARK    2  A    between atoms: N_8  and  C_23
REMARK    3  A    between atoms: C_23  and  C_24
REMARK                            x       y       z     vdW  Elec       q    Type
REMARK                         _______ _______ _______ _____ _____    ______ ____
ROOT
ATOM      1 BR   UNL     1     -16.623   1.297  26.764  0.00  0.00    -0.050 Br
ATOM      2  O   UNL     1     -14.363   3.662  34.362  0.00  0.00    -0.273 OA
ATOM      3  O   UNL     1     -17.747   4.865  30.581  0.00  0.00    -0.270 OA
ATOM      5  N   UNL     1     -15.880   5.204  31.919  0.00  0.00    -0.286 N 
ATOM      7  N   UNL     1     -15.046   2.437  32.557  0.00  0.00    -0.283 N 
ATOM      9  C   UNL     1     -14.382   6.855  33.804  0.00  0.00    +0.078 C 
ATOM     10  C   UNL     1     -14.514   4.816  32.249  0.00  0.00    +0.164 C 
ATOM     11  C   UNL     1     -13.648   5.946  32.818  0.00  0.00    +0.054 C 
ATOM     12  C   UNL     1     -15.674   7.354  33.166  0.00  0.00    +0.041 C 
ATOM     13  C   UNL     1     -16.558   6.182  32.773  0.00  0.00    +0.111 C 
ATOM     14  C   UNL     1     -14.650   3.614  33.165  0.00  0.00    +0.238 C 
ATOM     15  C   UNL     1     -16.630   4.514  30.966  0.00  0.00    +0.249 C 
ATOM     16  C   UNL     1     -16.095   3.236  30.426  0.00  0.00    +0.059 A 
ATOM     17  C   UNL     1     -15.470   2.257  31.220  0.00  0.00    +0.046 A 
ATOM     19  C   UNL     1     -16.431   2.938  29.094  0.00  0.00    +0.030 A 
ATOM     20  C   UNL     1     -15.256   0.979  30.678  0.00  0.00    +0.025 A 
ATOM     21  C   UNL     1     -16.164   1.679  28.558  0.00  0.00    +0.019 A 
ATOM     22  C   UNL     1     -15.590   0.695  29.354  0.00  0.00    +0.017 A 
ATOM     27  H   UNL     1     -14.922   1.591  33.107  0.00  0.00    +0.155 HD
ENDROOT
BRANCH   9   6
ATOM      4  O   UNL     1     -12.779   7.053  36.195  0.00  0.00    -0.253 OA
ATOM      6  N   UNL     1     -13.545   7.963  34.200  0.00  0.00    -0.296 N 
ATOM      8  N   UNL     1     -12.084   9.160  35.513  0.00  0.00    -0.296 N 
ATOM     18  C   UNL     1     -12.800   7.973  35.378  0.00  0.00    +0.300 C 
ATOM     26  H   UNL     1     -13.437   8.741  33.558  0.00  0.00    +0.151 HD
ATOM     28  H   UNL     1     -12.150   9.856  34.777  0.00  0.00    +0.151 HD
BRANCH   8  23
ATOM     23  C   UNL     1     -11.230   9.434  36.644  0.00  0.00    +0.132 C 
BRANCH  23  24
ATOM     24  C   UNL     1      -9.856   8.930  36.350  0.00  0.00    -0.016 C 
ATOM     25  C   UNL     1      -9.140   8.179  37.196  0.00  0.00    +0.005 C 
ENDBRANCH  23  24
ENDBRANCH   8  23
ENDBRANCH   9   6
TORSDOF 3
ENDMDL
MODEL 9
REMARK VINA RESULT:      -5.9     28.619     30.643
REMARK  Name = 9424317
REMARK  3 active torsions:
REMARK  status: ('A' for Active; 'I' for Inactive)
REMARK    1  A    between atoms: N_6  and  C_9
REMARK    2  A    between atoms: N_8  and  C_23
REMARK    3  A    between atoms: C_23  and  C_24
REMARK                            x       y       z     vdW  Elec       q    Type
REMARK                         _______ _______ _______ _____ _____    ______ ____
ROOT
ATOM      1 BR   UNL     1      -4.490 -11.495  18.878  0.00  0.00    -0.050 Br
ATOM      2  O   UNL     1      -4.457 -13.251  10.795  0.00  0.00    -0.273 OA
ATOM      3  O   UNL     1      -2.037 -10.241  14.299  0.00  0.00    -0.270 OA
ATOM      5  N   UNL     1      -3.451 -10.661  12.506  0.00  0.00    -0.286 N 
ATOM      7  N   UNL     1      -4.399 -13.406  13.075  0.00  0.00    -0.283 N 
ATOM      9  C   UNL     1      -4.223 -10.199   9.729  0.00  0.00    +0.078 C 
ATOM     10  C   UNL     1      -4.722 -11.201  12.039  0.00  0.00    +0.164 C 
ATOM     11  C   UNL     1      -5.282 -10.525  10.782  0.00  0.00    +0.054 C 
ATOM     12  C   UNL     1      -3.090  -9.412  10.378  0.00  0.00    +0.041 C 
ATOM     13  C   UNL     1      -2.472 -10.212  11.513  0.00  0.00    +0.111 C 
ATOM     14  C   UNL     1      -4.492 -12.694  11.893  0.00  0.00    +0.238 C 
ATOM     15  C   UNL     1      -3.051 -10.769  13.838  0.00  0.00    +0.249 C 
ATOM     16  C   UNL     1      -3.846 -11.630  14.754  0.00  0.00    +0.059 A 
ATOM     17  C   UNL     1      -4.353 -12.891  14.391  0.00  0.00    +0.046 A 
ATOM     19  C   UNL     1      -3.897 -11.222  16.098  0.00  0.00    +0.030 A 
ATOM     20  C   UNL     1      -4.840 -13.742  15.397  0.00  0.00    +0.025 A 
ATOM     21  C   UNL     1      -4.430 -12.061  17.075  0.00  0.00    +0.019 A 
ATOM     22  C   UNL     1      -4.889 -13.326  16.727  0.00  0.00    +0.017 A 
ATOM     27  H   UNL     1      -4.472 -14.416  12.990  0.00  0.00    +0.155 HD
ENDROOT
BRANCH   9   6
ATOM      4  O   UNL     1      -5.670 -11.271   7.473  0.00  0.00    -0.253 OA
ATOM      6  N   UNL     1      -4.803  -9.456   8.635  0.00  0.00    -0.296 N 
ATOM      8  N   UNL     1      -5.942  -9.112   6.666  0.00  0.00    -0.296 N 
ATOM     18  C   UNL     1      -5.488 -10.059   7.582  0.00  0.00    +0.300 C 
ATOM     26  H   UNL     1      -4.772  -8.442   8.668  0.00  0.00    +0.151 HD
ATOM     28  H   UNL     1      -5.760  -8.130   6.848  0.00  0.00    +0.151 HD
BRANCH   8  23
ATOM     23  C   UNL     1      -6.683  -9.465   5.478  0.00  0.00    +0.132 C 
BRANCH  23  24
ATOM     24  C   UNL     1      -7.489  -8.288   5.039  0.00  0.00    -0.016 C 
ATOM     25  C   UNL     1      -8.266  -7.569   5.858  0.00  0.00    +0.005 C 
ENDBRANCH  23  24
ENDBRANCH   8  23
ENDBRANCH   9   6
TORSDOF 3
ENDMDL
MODEL 10
REMARK VINA RESULT:      -5.8      2.155      3.150
REMARK  Name = 9424317
REMARK  3 active torsions:
REMARK  status: ('A' for Active; 'I' for Inactive)
REMARK    1  A    between atoms: N_6  and  C_9
REMARK    2  A    between atoms: N_8  and  C_23
REMARK    3  A    between atoms: C_23  and  C_24
REMARK                            x       y       z     vdW  Elec       q    Type
REMARK                         _______ _______ _______ _____ _____    ______ ____
ROOT
ATOM      1 BR   UNL     1      27.204   2.691  23.397  0.00  0.00    -0.050 Br
ATOM      2  O   UNL     1      19.870   4.518  20.036  0.00  0.00    -0.273 OA
ATOM      3  O   UNL     1      24.511   6.668  21.054  0.00  0.00    -0.270 OA
ATOM      5  N   UNL     1      22.229   6.354  21.344  0.00  0.00    -0.286 N 
ATOM      7  N   UNL     1      21.868   3.530  20.538  0.00  0.00    -0.283 N 
ATOM      9  C   UNL     1      19.515   7.428  21.420  0.00  0.00    +0.078 C 
ATOM     10  C   UNL     1      21.155   5.495  21.829  0.00  0.00    +0.164 C 
ATOM     11  C   UNL     1      19.902   6.242  22.303  0.00  0.00    +0.054 C 
ATOM     12  C   UNL     1      20.723   8.340  21.239  0.00  0.00    +0.041 C 
ATOM     13  C   UNL     1      21.876   7.573  20.612  0.00  0.00    +0.111 C 
ATOM     14  C   UNL     1      20.901   4.503  20.709  0.00  0.00    +0.238 C 
ATOM     15  C   UNL     1      23.562   5.942  21.355  0.00  0.00    +0.249 C 
ATOM     16  C   UNL     1      23.866   4.522  21.679  0.00  0.00    +0.059 A 
ATOM     17  C   UNL     1      23.121   3.435  21.186  0.00  0.00    +0.046 A 
ATOM     19  C   UNL     1      25.083   4.287  22.342  0.00  0.00    +0.030 A 
ATOM     20  C   UNL     1      23.648   2.139  21.313  0.00  0.00    +0.025 A 
ATOM     21  C   UNL     1      25.565   2.989  22.502  0.00  0.00    +0.019 A 
ATOM     22  C   UNL     1      24.855   1.916  21.976  0.00  0.00    +0.017 A 
ATOM     27  H   UNL     1      21.605   2.741  19.954  0.00  0.00    +0.155 HD
ENDROOT
BRANCH   9   6
ATOM      4  O   UNL     1      16.859   7.698  20.324  0.00  0.00    -0.253 OA
ATOM      6  N   UNL     1      18.406   8.153  21.996  0.00  0.00    -0.296 N 
ATOM      8  N   UNL     1      16.270   8.990  22.160  0.00  0.00    -0.296 N 
ATOM     18  C   UNL     1      17.152   8.231  21.394  0.00  0.00    +0.300 C 
ATOM     26  H   UNL     1      18.524   8.567  22.914  0.00  0.00    +0.151 HD
ATOM     28  H   UNL     1      16.597   9.376  23.040  0.00  0.00    +0.151 HD
BRANCH   8  23
ATOM     23  C   UNL     1      14.902   9.233  21.768  0.00  0.00    +0.132 C 
BRANCH  23  24
ATOM     24  C   UNL     1      14.078   8.036  22.112  0.00  0.00    -0.016 C 
ATOM     25  C   UNL     1      13.233   7.443  21.260  0.00  0.00    +0.005 C 
ENDBRANCH  23  24
ENDBRANCH   8  23
ENDBRANCH   9   6
TORSDOF 3
ENDMDL
