MODEL 1
REMARK VINA RESULT:      -7.0      0.000      0.000
REMARK  Name = 7144119
REMARK  7 active torsions:
REMARK  status: ('A' for Active; 'I' for Inactive)
REMARK    1  A    between atoms: S_1  and  N_6
REMARK    2  A    between atoms: S_1  and  C_17
REMARK    3  A    between atoms: O_5  and  C_27
REMARK    4  A    between atoms: O_5  and  C_28
REMARK    5  A    between atoms: C_15  and  C_20
REMARK    6  A    between atoms: C_17  and  C_21
REMARK    7  A    between atoms: C_21  and  C_24
REMARK                            x       y       z     vdW  Elec       q    Type
REMARK                         _______ _______ _______ _____ _____    ______ ____
ROOT
ATOM      4  O   UNL     1      10.849   8.557  17.333  0.00  0.00    -0.268 OA
ATOM      6  N   UNL     1      12.278  10.051  21.834  0.00  0.00    -0.180 NA
ATOM      7  N   UNL     1      12.048   8.182  19.310  0.00  0.00    -0.311 N 
ATOM      8  C   UNL     1      10.871   8.012  21.582  0.00  0.00    +0.025 C 
ATOM      9  C   UNL     1      13.315   7.822  21.451  0.00  0.00    +0.053 C 
ATOM     10  C   UNL     1      12.052   7.135  21.964  0.00  0.00    +0.017 C 
ATOM     11  C   UNL     1      10.994   9.402  22.222  0.00  0.00    +0.114 C 
ATOM     12  C   UNL     1      13.463   9.196  22.134  0.00  0.00    +0.118 C 
ATOM     13  C   UNL     1      10.786   8.079  20.056  0.00  0.00    +0.130 C 
ATOM     14  C   UNL     1      13.297   7.972  19.927  0.00  0.00    +0.034 A 
ATOM     15  C   UNL     1      14.426   7.931  19.172  0.00  0.00    +0.002 A 
ATOM     16  C   UNL     1      11.915   8.385  17.925  0.00  0.00    +0.252 A 
ATOM     18  C   UNL     1      14.328   8.141  17.740  0.00  0.00    +0.015 A 
ATOM     19  C   UNL     1      13.165   8.370  17.132  0.00  0.00    +0.071 A 
ENDROOT
BRANCH  15  20
ATOM     20  C   UNL     1      15.757   7.693  19.772  0.00  0.00    -0.016 A 
ATOM     22  C   UNL     1      16.431   8.739  20.396  0.00  0.00    +0.012 A 
ATOM     23  C   UNL     1      16.326   6.425  19.709  0.00  0.00    +0.012 A 
ATOM     25  C   UNL     1      17.685   8.515  20.961  0.00  0.00    +0.046 A 
ATOM     26  C   UNL     1      17.582   6.201  20.274  0.00  0.00    +0.046 A 
ATOM     27  C   UNL     1      18.261   7.246  20.900  0.00  0.00    +0.120 A 
BRANCH  27   5
ATOM      5  O   UNL     1      19.487   7.028  21.451  0.00  0.00    -0.495 OA
ATOM     28  C   UNL     1      20.312   6.043  20.830  0.00  0.00    +0.277 C 
ENDBRANCH  27   5
ENDBRANCH  15  20
BRANCH   6   1
ATOM      1  S   UNL     1      12.431  11.702  22.253  0.00  0.00    +0.032 S 
ATOM      2  O   UNL     1      13.106  11.799  23.529  0.00  0.00    -0.158 OA
ATOM      3  O   UNL     1      11.169  12.365  22.009  0.00  0.00    -0.158 OA
BRANCH   1  17
ATOM     17  C   UNL     1      13.570  12.212  20.990  0.00  0.00    +0.185 C 
BRANCH  17  21
ATOM     21  C   UNL     1      13.176  11.654  19.633  0.00  0.00    +0.021 C 
ATOM     24  C   UNL     1      14.346  11.679  18.662  0.00  0.00    +0.005 C 
ENDBRANCH  17  21
ENDBRANCH   1  17
ENDBRANCH   6   1
TORSDOF 5
ENDMDL
MODEL 2
REMARK VINA RESULT:      -6.6      1.320      2.208
REMARK  Name = 7144119
REMARK  7 active torsions:
REMARK  status: ('A' for Active; 'I' for Inactive)
REMARK    1  A    between atoms: S_1  and  N_6
REMARK    2  A    between atoms: S_1  and  C_17
REMARK    3  A    between atoms: O_5  and  C_27
REMARK    4  A    between atoms: O_5  and  C_28
REMARK    5  A    between atoms: C_15  and  C_20
REMARK    6  A    between atoms: C_17  and  C_21
REMARK    7  A    between atoms: C_21  and  C_24
REMARK                            x       y       z     vdW  Elec       q    Type
REMARK                         _______ _______ _______ _____ _____    ______ ____
ROOT
ATOM      4  O   UNL     1      11.186   8.428  17.057  0.00  0.00    -0.268 OA
ATOM      6  N   UNL     1      12.120  10.058  21.640  0.00  0.00    -0.180 NA
ATOM      7  N   UNL     1      12.201   8.134  19.148  0.00  0.00    -0.311 N 
ATOM      8  C   UNL     1      10.817   7.963  21.301  0.00  0.00    +0.025 C 
ATOM      9  C   UNL     1      13.268   7.862  21.407  0.00  0.00    +0.053 C 
ATOM     10  C   UNL     1      11.987   7.138  21.813  0.00  0.00    +0.017 C 
ATOM     11  C   UNL     1      10.829   9.369  21.918  0.00  0.00    +0.114 C 
ATOM     12  C   UNL     1      13.300   9.254  22.071  0.00  0.00    +0.118 C 
ATOM     13  C   UNL     1      10.878   7.998  19.772  0.00  0.00    +0.130 C 
ATOM     14  C   UNL     1      13.392   7.984  19.886  0.00  0.00    +0.034 A 
ATOM     15  C   UNL     1      14.588   7.971  19.244  0.00  0.00    +0.002 A 
ATOM     16  C   UNL     1      12.195   8.307  17.752  0.00  0.00    +0.252 A 
ATOM     18  C   UNL     1      14.622   8.150  17.804  0.00  0.00    +0.015 A 
ATOM     19  C   UNL     1      13.515   8.324  17.083  0.00  0.00    +0.071 A 
ENDROOT
BRANCH  15  20
ATOM     20  C   UNL     1      15.863   7.795  19.973  0.00  0.00    -0.016 A 
ATOM     22  C   UNL     1      16.441   6.531  20.060  0.00  0.00    +0.012 A 
ATOM     23  C   UNL     1      16.478   8.894  20.564  0.00  0.00    +0.012 A 
ATOM     25  C   UNL     1      17.643   6.366  20.747  0.00  0.00    +0.046 A 
ATOM     26  C   UNL     1      17.680   8.728  21.252  0.00  0.00    +0.046 A 
ATOM     27  C   UNL     1      18.262   7.464  21.343  0.00  0.00    +0.120 A 
BRANCH  27   5
ATOM      5  O   UNL     1      19.436   7.302  22.015  0.00  0.00    -0.495 OA
ATOM     28  C   UNL     1      20.273   6.222  21.607  0.00  0.00    +0.277 C 
ENDBRANCH  27   5
ENDBRANCH  15  20
BRANCH   6   1
ATOM      1  S   UNL     1      12.173  11.721  22.035  0.00  0.00    +0.032 S 
ATOM      2  O   UNL     1      10.882  12.310  21.749  0.00  0.00    -0.158 OA
ATOM      3  O   UNL     1      13.398  12.286  21.512  0.00  0.00    -0.158 OA
BRANCH   1  17
ATOM     17  C   UNL     1      12.338  11.591  23.797  0.00  0.00    +0.185 C 
BRANCH  17  21
ATOM     21  C   UNL     1      10.984  11.640  24.484  0.00  0.00    +0.021 C 
ATOM     24  C   UNL     1      10.842  12.884  25.346  0.00  0.00    +0.005 C 
ENDBRANCH  17  21
ENDBRANCH   1  17
ENDBRANCH   6   1
TORSDOF 5
ENDMDL
MODEL 3
REMARK VINA RESULT:      -6.2     13.783     16.638
REMARK  Name = 7144119
REMARK  7 active torsions:
REMARK  status: ('A' for Active; 'I' for Inactive)
REMARK    1  A    between atoms: S_1  and  N_6
REMARK    2  A    between atoms: S_1  and  C_17
REMARK    3  A    between atoms: O_5  and  C_27
REMARK    4  A    between atoms: O_5  and  C_28
REMARK    5  A    between atoms: C_15  and  C_20
REMARK    6  A    between atoms: C_17  and  C_21
REMARK    7  A    between atoms: C_21  and  C_24
REMARK                            x       y       z     vdW  Elec       q    Type
REMARK                         _______ _______ _______ _____ _____    ______ ____
ROOT
ATOM      4  O   UNL     1       7.051   9.273   4.191  0.00  0.00    -0.268 OA
ATOM      6  N   UNL     1      11.190   8.162   6.675  0.00  0.00    -0.180 NA
ATOM      7  N   UNL     1       8.665   7.708   4.847  0.00  0.00    -0.311 N 
ATOM      8  C   UNL     1       9.027   7.105   7.314  0.00  0.00    +0.025 C 
ATOM      9  C   UNL     1      10.419   6.064   5.581  0.00  0.00    +0.053 C 
ATOM     10  C   UNL     1       9.504   5.770   6.766  0.00  0.00    +0.017 C 
ATOM     11  C   UNL     1      10.215   7.959   7.783  0.00  0.00    +0.114 C 
ATOM     12  C   UNL     1      11.637   6.877   6.065  0.00  0.00    +0.118 C 
ATOM     13  C   UNL     1       8.197   7.806   6.237  0.00  0.00    +0.130 C 
ATOM     14  C   UNL     1       9.680   6.807   4.466  0.00  0.00    +0.034 A 
ATOM     15  C   UNL     1       9.978   6.643   3.151  0.00  0.00    +0.002 A 
ATOM     16  C   UNL     1       7.955   8.484   3.915  0.00  0.00    +0.252 A 
ATOM     18  C   UNL     1       9.269   7.430   2.160  0.00  0.00    +0.015 A 
ATOM     19  C   UNL     1       8.325   8.310   2.492  0.00  0.00    +0.071 A 
ENDROOT
BRANCH  15  20
ATOM     20  C   UNL     1      11.020   5.695   2.700  0.00  0.00    -0.016 A 
ATOM     22  C   UNL     1      10.723   4.339   2.598  0.00  0.00    +0.012 A 
ATOM     23  C   UNL     1      12.290   6.166   2.379  0.00  0.00    +0.012 A 
ATOM     25  C   UNL     1      11.705   3.446   2.172  0.00  0.00    +0.046 A 
ATOM     26  C   UNL     1      13.273   5.271   1.954  0.00  0.00    +0.046 A 
ATOM     27  C   UNL     1      12.980   3.912   1.851  0.00  0.00    +0.120 A 
BRANCH  27   5
ATOM      5  O   UNL     1      13.939   3.039   1.436  0.00  0.00    -0.495 OA
ATOM     28  C   UNL     1      15.252   3.562   1.241  0.00  0.00    +0.277 C 
ENDBRANCH  27   5
ENDBRANCH  15  20
BRANCH   6   1
ATOM      1  S   UNL     1      12.423   9.309   6.973  0.00  0.00    +0.032 S 
ATOM      2  O   UNL     1      13.694   8.620   7.044  0.00  0.00    -0.158 OA
ATOM      3  O   UNL     1      11.985  10.204   8.022  0.00  0.00    -0.158 OA
BRANCH   1  17
ATOM     17  C   UNL     1      12.365  10.196   5.437  0.00  0.00    +0.185 C 
BRANCH  17  21
ATOM     21  C   UNL     1      10.932  10.442   4.994  0.00  0.00    +0.021 C 
ATOM     24  C   UNL     1      10.848  10.692   3.497  0.00  0.00    +0.005 C 
ENDBRANCH  17  21
ENDBRANCH   1  17
ENDBRANCH   6   1
TORSDOF 5
ENDMDL
MODEL 4
REMARK VINA RESULT:      -6.2      1.804      4.505
REMARK  Name = 7144119
REMARK  7 active torsions:
REMARK  status: ('A' for Active; 'I' for Inactive)
REMARK    1  A    between atoms: S_1  and  N_6
REMARK    2  A    between atoms: S_1  and  C_17
REMARK    3  A    between atoms: O_5  and  C_27
REMARK    4  A    between atoms: O_5  and  C_28
REMARK    5  A    between atoms: C_15  and  C_20
REMARK    6  A    between atoms: C_17  and  C_21
REMARK    7  A    between atoms: C_21  and  C_24
REMARK                            x       y       z     vdW  Elec       q    Type
REMARK                         _______ _______ _______ _____ _____    ______ ____
ROOT
ATOM      4  O   UNL     1      12.783  12.760  22.065  0.00  0.00    -0.268 OA
ATOM      6  N   UNL     1      13.004   9.223  18.604  0.00  0.00    -0.180 NA
ATOM      7  N   UNL     1      14.038  11.418  20.613  0.00  0.00    -0.311 N 
ATOM      8  C   UNL     1      13.734  11.543  18.069  0.00  0.00    +0.025 C 
ATOM      9  C   UNL     1      15.342   9.958  19.035  0.00  0.00    +0.053 C 
ATOM     10  C   UNL     1      15.184  11.088  18.021  0.00  0.00    +0.017 C 
ATOM     11  C   UNL     1      12.788  10.389  17.704  0.00  0.00    +0.114 C 
ATOM     12  C   UNL     1      14.429   8.782  18.636  0.00  0.00    +0.118 C 
ATOM     13  C   UNL     1      13.448  12.112  19.460  0.00  0.00    +0.130 C 
ATOM     14  C   UNL     1      15.030  10.429  20.458  0.00  0.00    +0.034 A 
ATOM     15  C   UNL     1      15.653   9.920  21.552  0.00  0.00    +0.002 A 
ATOM     16  C   UNL     1      13.632  11.889  21.873  0.00  0.00    +0.252 A 
ATOM     18  C   UNL     1      15.258  10.379  22.871  0.00  0.00    +0.015 A 
ATOM     19  C   UNL     1      14.303  11.291  23.050  0.00  0.00    +0.071 A 
ENDROOT
BRANCH  15  20
ATOM     20  C   UNL     1      16.715   8.896  21.440  0.00  0.00    -0.016 A 
ATOM     22  C   UNL     1      18.051   9.285  21.425  0.00  0.00    +0.012 A 
ATOM     23  C   UNL     1      16.370   7.551  21.351  0.00  0.00    +0.012 A 
ATOM     25  C   UNL     1      19.052   8.320  21.320  0.00  0.00    +0.046 A 
ATOM     26  C   UNL     1      17.372   6.585  21.245  0.00  0.00    +0.046 A 
ATOM     27  C   UNL     1      18.712   6.970  21.229  0.00  0.00    +0.120 A 
BRANCH  27   5
ATOM      5  O   UNL     1      19.689   6.028  21.125  0.00  0.00    -0.495 OA
ATOM     28  C   UNL     1      21.013   6.491  20.865  0.00  0.00    +0.277 C 
ENDBRANCH  27   5
ENDBRANCH  15  20
BRANCH   6   1
ATOM      1  S   UNL     1      11.844   7.971  18.489  0.00  0.00    +0.032 S 
ATOM      2  O   UNL     1      11.918   7.387  17.166  0.00  0.00    -0.158 OA
ATOM      3  O   UNL     1      10.593   8.441  19.044  0.00  0.00    -0.158 OA
BRANCH   1  17
ATOM     17  C   UNL     1      12.554   6.818  19.637  0.00  0.00    +0.185 C 
BRANCH  17  21
ATOM     21  C   UNL     1      11.901   6.927  21.005  0.00  0.00    +0.021 C 
ATOM     24  C   UNL     1      12.642   7.910  21.897  0.00  0.00    +0.005 C 
ENDBRANCH  17  21
ENDBRANCH   1  17
ENDBRANCH   6   1
TORSDOF 5
ENDMDL
MODEL 5
REMARK VINA RESULT:      -6.1      2.417      6.233
REMARK  Name = 7144119
REMARK  7 active torsions:
REMARK  status: ('A' for Active; 'I' for Inactive)
REMARK    1  A    between atoms: S_1  and  N_6
REMARK    2  A    between atoms: S_1  and  C_17
REMARK    3  A    between atoms: O_5  and  C_27
REMARK    4  A    between atoms: O_5  and  C_28
REMARK    5  A    between atoms: C_15  and  C_20
REMARK    6  A    between atoms: C_17  and  C_21
REMARK    7  A    between atoms: C_21  and  C_24
REMARK                            x       y       z     vdW  Elec       q    Type
REMARK                         _______ _______ _______ _____ _____    ______ ____
ROOT
ATOM      4  O   UNL     1      10.939   5.793  21.012  0.00  0.00    -0.268 OA
ATOM      6  N   UNL     1      15.381   7.826  20.198  0.00  0.00    -0.180 NA
ATOM      7  N   UNL     1      12.242   7.624  20.351  0.00  0.00    -0.311 N 
ATOM      8  C   UNL     1      13.790   7.503  18.310  0.00  0.00    +0.025 C 
ATOM      9  C   UNL     1      13.682   9.560  19.647  0.00  0.00    +0.053 C 
ATOM     10  C   UNL     1      13.560   9.004  18.231  0.00  0.00    +0.017 C 
ATOM     11  C   UNL     1      15.189   7.194  18.863  0.00  0.00    +0.114 C 
ATOM     12  C   UNL     1      15.104   9.292  20.180  0.00  0.00    +0.118 C 
ATOM     13  C   UNL     1      12.678   6.884  19.159  0.00  0.00    +0.130 C 
ATOM     14  C   UNL     1      12.630   8.958  20.582  0.00  0.00    +0.034 A 
ATOM     15  C   UNL     1      12.087   9.650  21.617  0.00  0.00    +0.002 A 
ATOM     16  C   UNL     1      11.323   6.951  21.176  0.00  0.00    +0.252 A 
ATOM     18  C   UNL     1      11.139   8.988  22.493  0.00  0.00    +0.015 A 
ATOM     19  C   UNL     1      10.774   7.718  22.317  0.00  0.00    +0.071 A 
ENDROOT
BRANCH  15  20
ATOM     20  C   UNL     1      12.447  11.060  21.888  0.00  0.00    -0.016 A 
ATOM     22  C   UNL     1      11.768  12.084  21.235  0.00  0.00    +0.012 A 
ATOM     23  C   UNL     1      13.461  11.351  22.795  0.00  0.00    +0.012 A 
ATOM     25  C   UNL     1      12.108  13.412  21.490  0.00  0.00    +0.046 A 
ATOM     26  C   UNL     1      13.801  12.680  23.050  0.00  0.00    +0.046 A 
ATOM     27  C   UNL     1      13.124  13.710  22.397  0.00  0.00    +0.120 A 
BRANCH  27   5
ATOM      5  O   UNL     1      13.456  15.007  22.646  0.00  0.00    -0.495 OA
ATOM     28  C   UNL     1      13.359  15.454  23.997  0.00  0.00    +0.277 C 
ENDBRANCH  27   5
ENDBRANCH  15  20
BRANCH   6   1
ATOM      1  S   UNL     1      16.785   7.349  21.051  0.00  0.00    +0.032 S 
ATOM      2  O   UNL     1      16.447   6.245  21.924  0.00  0.00    -0.158 OA
ATOM      3  O   UNL     1      17.455   8.531  21.546  0.00  0.00    -0.158 OA
BRANCH   1  17
ATOM     17  C   UNL     1      17.736   6.707  19.697  0.00  0.00    +0.185 C 
BRANCH  17  21
ATOM     21  C   UNL     1      18.732   5.661  20.168  0.00  0.00    +0.021 C 
ATOM     24  C   UNL     1      19.973   6.304  20.765  0.00  0.00    +0.005 C 
ENDBRANCH  17  21
ENDBRANCH   1  17
ENDBRANCH   6   1
TORSDOF 5
ENDMDL
MODEL 6
REMARK VINA RESULT:      -6.1      2.432      3.333
REMARK  Name = 7144119
REMARK  7 active torsions:
REMARK  status: ('A' for Active; 'I' for Inactive)
REMARK    1  A    between atoms: S_1  and  N_6
REMARK    2  A    between atoms: S_1  and  C_17
REMARK    3  A    between atoms: O_5  and  C_27
REMARK    4  A    between atoms: O_5  and  C_28
REMARK    5  A    between atoms: C_15  and  C_20
REMARK    6  A    between atoms: C_17  and  C_21
REMARK    7  A    between atoms: C_21  and  C_24
REMARK                            x       y       z     vdW  Elec       q    Type
REMARK                         _______ _______ _______ _____ _____    ______ ____
ROOT
ATOM      4  O   UNL     1      10.547   8.675  20.157  0.00  0.00    -0.268 OA
ATOM      6  N   UNL     1      14.604  11.391  19.317  0.00  0.00    -0.180 NA
ATOM      7  N   UNL     1      12.790   9.169  20.618  0.00  0.00    -0.311 N 
ATOM      8  C   UNL     1      13.499  11.452  21.548  0.00  0.00    +0.025 C 
ATOM      9  C   UNL     1      15.195   9.738  21.081  0.00  0.00    +0.053 C 
ATOM     10  C   UNL     1      14.659  10.680  22.156  0.00  0.00    +0.017 C 
ATOM     11  C   UNL     1      13.965  12.271  20.335  0.00  0.00    +0.114 C 
ATOM     12  C   UNL     1      15.709  10.567  19.886  0.00  0.00    +0.118 C 
ATOM     13  C   UNL     1      12.389  10.462  21.189  0.00  0.00    +0.130 C 
ATOM     14  C   UNL     1      14.131   8.735  20.627  0.00  0.00    +0.034 A 
ATOM     15  C   UNL     1      14.436   7.474  20.224  0.00  0.00    +0.002 A 
ATOM     16  C   UNL     1      11.736   8.353  20.173  0.00  0.00    +0.252 A 
ATOM     18  C   UNL     1      13.374   6.604  19.754  0.00  0.00    +0.015 A 
ATOM     19  C   UNL     1      12.102   6.996  19.706  0.00  0.00    +0.071 A 
ENDROOT
BRANCH  15  20
ATOM     20  C   UNL     1      15.825   6.966  20.236  0.00  0.00    -0.016 A 
ATOM     22  C   UNL     1      16.343   6.346  19.103  0.00  0.00    +0.012 A 
ATOM     23  C   UNL     1      16.605   7.113  21.379  0.00  0.00    +0.012 A 
ATOM     25  C   UNL     1      17.653   5.867  19.114  0.00  0.00    +0.046 A 
ATOM     26  C   UNL     1      17.915   6.633  21.390  0.00  0.00    +0.046 A 
ATOM     27  C   UNL     1      18.438   6.011  20.257  0.00  0.00    +0.120 A 
BRANCH  27   5
ATOM      5  O   UNL     1      19.717   5.543  20.268  0.00  0.00    -0.495 OA
ATOM     28  C   UNL     1      20.529   5.899  21.385  0.00  0.00    +0.277 C 
ENDBRANCH  27   5
ENDBRANCH  15  20
BRANCH   6   1
ATOM      1  S   UNL     1      14.928  12.121  17.804  0.00  0.00    +0.032 S 
ATOM      2  O   UNL     1      16.327  12.491  17.756  0.00  0.00    -0.158 OA
ATOM      3  O   UNL     1      13.880  13.074  17.510  0.00  0.00    -0.158 OA
BRANCH   1  17
ATOM     17  C   UNL     1      14.697  10.711  16.752  0.00  0.00    +0.185 C 
BRANCH  17  21
ATOM     21  C   UNL     1      13.457   9.925  17.144  0.00  0.00    +0.021 C 
ATOM     24  C   UNL     1      13.549   8.477  16.690  0.00  0.00    +0.005 C 
ENDBRANCH  17  21
ENDBRANCH   1  17
ENDBRANCH   6   1
TORSDOF 5
ENDMDL
MODEL 7
REMARK VINA RESULT:      -6.0     14.762     18.173
REMARK  Name = 7144119
REMARK  7 active torsions:
REMARK  status: ('A' for Active; 'I' for Inactive)
REMARK    1  A    between atoms: S_1  and  N_6
REMARK    2  A    between atoms: S_1  and  C_17
REMARK    3  A    between atoms: O_5  and  C_27
REMARK    4  A    between atoms: O_5  and  C_28
REMARK    5  A    between atoms: C_15  and  C_20
REMARK    6  A    between atoms: C_17  and  C_21
REMARK    7  A    between atoms: C_21  and  C_24
REMARK                            x       y       z     vdW  Elec       q    Type
REMARK                         _______ _______ _______ _____ _____    ______ ____
ROOT
ATOM      4  O   UNL     1       8.559   9.915   1.358  0.00  0.00    -0.268 OA
ATOM      6  N   UNL     1      11.560   5.981   1.580  0.00  0.00    -0.180 NA
ATOM      7  N   UNL     1      10.065   8.577   2.553  0.00  0.00    -0.311 N 
ATOM      8  C   UNL     1      12.496   8.279   1.789  0.00  0.00    +0.025 C 
ATOM      9  C   UNL     1      11.689   7.112   3.793  0.00  0.00    +0.053 C 
ATOM     10  C   UNL     1      12.776   8.044   3.264  0.00  0.00    +0.017 C 
ATOM     11  C   UNL     1      12.530   6.957   1.009  0.00  0.00    +0.114 C 
ATOM     12  C   UNL     1      11.760   5.767   3.043  0.00  0.00    +0.118 C 
ATOM     13  C   UNL     1      11.151   8.998   1.657  0.00  0.00    +0.130 C 
ATOM     14  C   UNL     1      10.297   7.735   3.659  0.00  0.00    +0.034 A 
ATOM     15  C   UNL     1       9.295   7.491   4.544  0.00  0.00    +0.002 A 
ATOM     16  C   UNL     1       8.813   9.162   2.299  0.00  0.00    +0.252 A 
ATOM     18  C   UNL     1       7.988   8.075   4.313  0.00  0.00    +0.015 A 
ATOM     19  C   UNL     1       7.731   8.851   3.260  0.00  0.00    +0.071 A 
ENDROOT
BRANCH  15  20
ATOM     20  C   UNL     1       9.496   6.632   5.731  0.00  0.00    -0.016 A 
ATOM     22  C   UNL     1       9.760   7.213   6.968  0.00  0.00    +0.012 A 
ATOM     23  C   UNL     1       9.417   5.249   5.603  0.00  0.00    +0.012 A 
ATOM     25  C   UNL     1       9.948   6.403   8.087  0.00  0.00    +0.046 A 
ATOM     26  C   UNL     1       9.606   4.438   6.724  0.00  0.00    +0.046 A 
ATOM     27  C   UNL     1       9.871   5.016   7.965  0.00  0.00    +0.120 A 
BRANCH  27   5
ATOM      5  O   UNL     1      10.056   4.225   9.057  0.00  0.00    -0.495 OA
ATOM     28  C   UNL     1       9.297   4.540  10.223  0.00  0.00    +0.277 C 
ENDBRANCH  27   5
ENDBRANCH  15  20
BRANCH   6   1
ATOM      1  S   UNL     1      11.298   4.567   0.654  0.00  0.00    +0.032 S 
ATOM      2  O   UNL     1      11.870   4.758  -0.661  0.00  0.00    -0.158 OA
ATOM      3  O   UNL     1       9.927   4.140   0.831  0.00  0.00    -0.158 OA
BRANCH   1  17
ATOM     17  C   UNL     1      12.340   3.443   1.548  0.00  0.00    +0.185 C 
BRANCH  17  21
ATOM     21  C   UNL     1      13.682   3.264   0.857  0.00  0.00    +0.021 C 
ATOM     24  C   UNL     1      14.821   3.807   1.706  0.00  0.00    +0.005 C 
ENDBRANCH  17  21
ENDBRANCH   1  17
ENDBRANCH   6   1
TORSDOF 5
ENDMDL
MODEL 8
REMARK VINA RESULT:      -5.7     14.144     17.421
REMARK  Name = 7144119
REMARK  7 active torsions:
REMARK  status: ('A' for Active; 'I' for Inactive)
REMARK    1  A    between atoms: S_1  and  N_6
REMARK    2  A    between atoms: S_1  and  C_17
REMARK    3  A    between atoms: O_5  and  C_27
REMARK    4  A    between atoms: O_5  and  C_28
REMARK    5  A    between atoms: C_15  and  C_20
REMARK    6  A    between atoms: C_17  and  C_21
REMARK    7  A    between atoms: C_21  and  C_24
REMARK                            x       y       z     vdW  Elec       q    Type
REMARK                         _______ _______ _______ _____ _____    ______ ____
ROOT
ATOM      4  O   UNL     1      10.564   6.071   8.359  0.00  0.00    -0.268 OA
ATOM      6  N   UNL     1      11.683   9.304   4.777  0.00  0.00    -0.180 NA
ATOM      7  N   UNL     1      11.592   6.554   6.311  0.00  0.00    -0.311 N 
ATOM      8  C   UNL     1      13.495   8.265   6.133  0.00  0.00    +0.025 C 
ATOM      9  C   UNL     1      12.683   7.122   4.118  0.00  0.00    +0.053 C 
ATOM     10  C   UNL     1      13.932   7.435   4.937  0.00  0.00    +0.017 C 
ATOM     11  C   UNL     1      12.838   9.576   5.678  0.00  0.00    +0.114 C 
ATOM     12  C   UNL     1      12.054   8.439   3.620  0.00  0.00    +0.118 C 
ATOM     13  C   UNL     1      12.562   7.417   7.000  0.00  0.00    +0.130 C 
ATOM     14  C   UNL     1      11.668   6.308   4.925  0.00  0.00    +0.034 A 
ATOM     15  C   UNL     1      10.843   5.390   4.356  0.00  0.00    +0.002 A 
ATOM     16  C   UNL     1      10.663   5.905   7.143  0.00  0.00    +0.252 A 
ATOM     18  C   UNL     1       9.869   4.704   5.183  0.00  0.00    +0.015 A 
ATOM     19  C   UNL     1       9.754   4.937   6.490  0.00  0.00    +0.071 A 
ENDROOT
BRANCH  15  20
ATOM     20  C   UNL     1      10.899   5.082   2.911  0.00  0.00    -0.016 A 
ATOM     22  C   UNL     1      11.734   4.067   2.452  0.00  0.00    +0.012 A 
ATOM     23  C   UNL     1      10.115   5.809   2.019  0.00  0.00    +0.012 A 
ATOM     25  C   UNL     1      11.786   3.777   1.089  0.00  0.00    +0.046 A 
ATOM     26  C   UNL     1      10.169   5.518   0.655  0.00  0.00    +0.046 A 
ATOM     27  C   UNL     1      11.004   4.502   0.191  0.00  0.00    +0.120 A 
BRANCH  27   5
ATOM      5  O   UNL     1      11.055   4.219  -1.140  0.00  0.00    -0.495 OA
ATOM     28  C   UNL     1      11.968   3.203  -1.552  0.00  0.00    +0.277 C 
ENDBRANCH  27   5
ENDBRANCH  15  20
BRANCH   6   1
ATOM      1  S   UNL     1      10.695  10.650   4.408  0.00  0.00    +0.032 S 
ATOM      2  O   UNL     1      11.137  11.223   3.154  0.00  0.00    -0.158 OA
ATOM      3  O   UNL     1      10.542  11.457   5.599  0.00  0.00    -0.158 OA
BRANCH   1  17
ATOM     17  C   UNL     1       9.161   9.807   4.116  0.00  0.00    +0.185 C 
BRANCH  17  21
ATOM     21  C   UNL     1       8.878   8.784   5.202  0.00  0.00    +0.021 C 
ATOM     24  C   UNL     1       7.919   7.708   4.716  0.00  0.00    +0.005 C 
ENDBRANCH  17  21
ENDBRANCH   1  17
ENDBRANCH   6   1
TORSDOF 5
ENDMDL
MODEL 9
REMARK VINA RESULT:      -5.7      3.154      5.746
REMARK  Name = 7144119
REMARK  7 active torsions:
REMARK  status: ('A' for Active; 'I' for Inactive)
REMARK    1  A    between atoms: S_1  and  N_6
REMARK    2  A    between atoms: S_1  and  C_17
REMARK    3  A    between atoms: O_5  and  C_27
REMARK    4  A    between atoms: O_5  and  C_28
REMARK    5  A    between atoms: C_15  and  C_20
REMARK    6  A    between atoms: C_17  and  C_21
REMARK    7  A    between atoms: C_21  and  C_24
REMARK                            x       y       z     vdW  Elec       q    Type
REMARK                         _______ _______ _______ _____ _____    ______ ____
ROOT
ATOM      4  O   UNL     1      11.795  11.107  21.739  0.00  0.00    -0.268 OA
ATOM      6  N   UNL     1      14.260   7.563  19.309  0.00  0.00    -0.180 NA
ATOM      7  N   UNL     1      12.474  10.124  19.723  0.00  0.00    -0.311 N 
ATOM      8  C   UNL     1      11.785   7.735  19.094  0.00  0.00    +0.025 C 
ATOM      9  C   UNL     1      13.225   9.033  17.587  0.00  0.00    +0.053 C 
ATOM     10  C   UNL     1      11.931   8.227  17.663  0.00  0.00    +0.017 C 
ATOM     11  C   UNL     1      12.970   6.841  19.488  0.00  0.00    +0.114 C 
ATOM     12  C   UNL     1      14.418   8.118  17.933  0.00  0.00    +0.118 C 
ATOM     13  C   UNL     1      11.642   8.949  20.015  0.00  0.00    +0.130 C 
ATOM     14  C   UNL     1      13.188  10.250  18.515  0.00  0.00    +0.034 A 
ATOM     15  C   UNL     1      13.825  11.414  18.224  0.00  0.00    +0.002 A 
ATOM     16  C   UNL     1      12.415  11.157  20.676  0.00  0.00    +0.252 A 
ATOM     18  C   UNL     1      13.789  12.501  19.184  0.00  0.00    +0.015 A 
ATOM     19  C   UNL     1      13.147  12.401  20.348  0.00  0.00    +0.071 A 
ENDROOT
BRANCH  15  20
ATOM     20  C   UNL     1      14.570  11.601  16.960  0.00  0.00    -0.016 A 
ATOM     22  C   UNL     1      15.884  12.056  16.993  0.00  0.00    +0.012 A 
ATOM     23  C   UNL     1      13.950  11.319  15.746  0.00  0.00    +0.012 A 
ATOM     25  C   UNL     1      16.586  12.232  15.801  0.00  0.00    +0.046 A 
ATOM     26  C   UNL     1      14.653  11.496  14.553  0.00  0.00    +0.046 A 
ATOM     27  C   UNL     1      15.970  11.952  14.581  0.00  0.00    +0.120 A 
BRANCH  27   5
ATOM      5  O   UNL     1      16.655  12.125  13.417  0.00  0.00    -0.495 OA
ATOM     28  C   UNL     1      15.902  12.076  12.207  0.00  0.00    +0.277 C 
ENDBRANCH  27   5
ENDBRANCH  15  20
BRANCH   6   1
ATOM      1  S   UNL     1      15.641   6.789  19.958  0.00  0.00    +0.032 S 
ATOM      2  O   UNL     1      16.244   5.972  18.927  0.00  0.00    -0.158 OA
ATOM      3  O   UNL     1      15.306   6.248  21.257  0.00  0.00    -0.158 OA
BRANCH   1  17
ATOM     17  C   UNL     1      16.674   8.210  20.206  0.00  0.00    +0.185 C 
BRANCH  17  21
ATOM     21  C   UNL     1      15.927   9.318  20.930  0.00  0.00    +0.021 C 
ATOM     24  C   UNL     1      16.558  10.676  20.670  0.00  0.00    +0.005 C 
ENDBRANCH  17  21
ENDBRANCH   1  17
ENDBRANCH   6   1
TORSDOF 5
ENDMDL
MODEL 10
REMARK VINA RESULT:      -5.6     26.601     28.742
REMARK  Name = 7144119
REMARK  7 active torsions:
REMARK  status: ('A' for Active; 'I' for Inactive)
REMARK    1  A    between atoms: S_1  and  N_6
REMARK    2  A    between atoms: S_1  and  C_17
REMARK    3  A    between atoms: O_5  and  C_27
REMARK    4  A    between atoms: O_5  and  C_28
REMARK    5  A    between atoms: C_15  and  C_20
REMARK    6  A    between atoms: C_17  and  C_21
REMARK    7  A    between atoms: C_21  and  C_24
REMARK                            x       y       z     vdW  Elec       q    Type
REMARK                         _______ _______ _______ _____ _____    ______ ____
ROOT
ATOM      4  O   UNL     1      -1.960 -15.158  12.756  0.00  0.00    -0.268 OA
ATOM      6  N   UNL     1      -4.168 -11.460  15.202  0.00  0.00    -0.180 NA
ATOM      7  N   UNL     1      -2.528 -12.892  12.926  0.00  0.00    -0.311 N 
ATOM      8  C   UNL     1      -1.699 -11.442  14.873  0.00  0.00    +0.025 C 
ATOM      9  C   UNL     1      -3.158 -10.469  13.154  0.00  0.00    +0.053 C 
ATOM     10  C   UNL     1      -1.828 -10.297  13.882  0.00  0.00    +0.017 C 
ATOM     11  C   UNL     1      -2.849 -11.413  15.891  0.00  0.00    +0.114 C 
ATOM     12  C   UNL     1      -4.312 -10.389  14.173  0.00  0.00    +0.118 C 
ATOM     13  C   UNL     1      -1.645 -12.757  14.094  0.00  0.00    +0.130 C 
ATOM     14  C   UNL     1      -3.210 -11.788  12.378  0.00  0.00    +0.034 A 
ATOM     15  C   UNL     1      -3.896 -11.928  11.214  0.00  0.00    +0.002 A 
ATOM     16  C   UNL     1      -2.549 -14.165  12.329  0.00  0.00    +0.252 A 
ATOM     18  C   UNL     1      -3.944 -13.227  10.571  0.00  0.00    +0.015 A 
ATOM     19  C   UNL     1      -3.333 -14.296  11.080  0.00  0.00    +0.071 A 
ENDROOT
BRANCH  15  20
ATOM     20  C   UNL     1      -4.611 -10.793  10.589  0.00  0.00    -0.016 A 
ATOM     22  C   UNL     1      -3.914  -9.893   9.788  0.00  0.00    +0.012 A 
ATOM     23  C   UNL     1      -5.977 -10.635  10.804  0.00  0.00    +0.012 A 
ATOM     25  C   UNL     1      -4.588  -8.825   9.199  0.00  0.00    +0.046 A 
ATOM     26  C   UNL     1      -6.651  -9.565  10.214  0.00  0.00    +0.046 A 
ATOM     27  C   UNL     1      -5.956  -8.660   9.412  0.00  0.00    +0.120 A 
BRANCH  27   5
ATOM      5  O   UNL     1      -6.615  -7.616   8.837  0.00  0.00    -0.495 OA
ATOM     28  C   UNL     1      -8.040  -7.680   8.815  0.00  0.00    +0.277 C 
ENDBRANCH  27   5
ENDBRANCH  15  20
BRANCH   6   1
ATOM      1  S   UNL     1      -5.526 -11.703  16.212  0.00  0.00    +0.032 S 
ATOM      2  O   UNL     1      -5.648 -13.117  16.497  0.00  0.00    -0.158 OA
ATOM      3  O   UNL     1      -6.637 -10.935  15.694  0.00  0.00    -0.158 OA
BRANCH   1  17
ATOM     17  C   UNL     1      -4.939 -10.896  17.679  0.00  0.00    +0.185 C 
BRANCH  17  21
ATOM     21  C   UNL     1      -5.070 -11.796  18.896  0.00  0.00    +0.021 C 
ATOM     24  C   UNL     1      -3.708 -12.179  19.454  0.00  0.00    +0.005 C 
ENDBRANCH  17  21
ENDBRANCH   1  17
ENDBRANCH   6   1
TORSDOF 5
ENDMDL
