MODEL 1
REMARK VINA RESULT:      -6.9      0.000      0.000
REMARK  Name = 51137946
REMARK  8 active torsions:
REMARK  status: ('A' for Active; 'I' for Inactive)
REMARK    1  A    between atoms: N_3  and  C_19
REMARK    2  A    between atoms: N_5  and  C_23
REMARK    3  A    between atoms: C_6  and  C_9
REMARK    4  A    between atoms: C_7  and  C_20
REMARK    5  A    between atoms: C_9  and  C_13
REMARK    6  A    between atoms: C_13  and  C_24
REMARK    7  A    between atoms: C_13  and  C_25
REMARK    8  A    between atoms: C_19  and  C_23
REMARK                            x       y       z     vdW  Elec       q    Type
REMARK                         _______ _______ _______ _____ _____    ______ ____
ROOT
ATOM      2  N   UNL     1      14.575   9.399  20.337  0.00  0.00    -0.299 NA
ATOM      4  N   UNL     1      19.269   7.955  21.513  0.00  0.00    -0.360 N 
ATOM      6  C   UNL     1      14.702   8.021  19.845  0.00  0.00    +0.085 C 
ATOM      7  C   UNL     1      14.853   9.567  21.756  0.00  0.00    +0.145 C 
ATOM      8  C   UNL     1      16.106   7.412  19.917  0.00  0.00    -0.021 A 
ATOM     10  C   UNL     1      16.289  10.031  21.995  0.00  0.00    +0.065 C 
ATOM     11  C   UNL     1      17.181   7.919  20.704  0.00  0.00    +0.008 A 
ATOM     12  C   UNL     1      17.322   9.028  21.608  0.00  0.00    -0.020 A 
ATOM     18  C   UNL     1      18.415   7.257  20.692  0.00  0.00    +0.047 A 
ATOM     21  C   UNL     1      18.622   9.017  22.073  0.00  0.00    +0.087 A 
ATOM     22  C   UNL     1      16.360   6.205  19.216  0.00  0.00    +0.006 A 
ATOM     26  C   UNL     1      18.658   6.096  19.957  0.00  0.00    +0.026 A 
ATOM     27  C   UNL     1      17.601   5.572  19.226  0.00  0.00    +0.002 A 
ATOM     28  H   UNL     1      15.132  10.039  19.774  0.00  0.00    +0.123 HD
ATOM     29  H   UNL     1      20.232   7.706  21.689  0.00  0.00    +0.165 HD
ENDROOT
BRANCH   7  20
ATOM      1  O   UNL     1      14.294  11.608  22.859  0.00  0.00    -0.274 OA
ATOM      5  N   UNL     1      12.598  10.364  21.861  0.00  0.00    -0.313 N 
ATOM     20  C   UNL     1      13.908  10.633  22.219  0.00  0.00    +0.230 C 
ATOM     30  H   UNL     1      12.391   9.532  21.314  0.00  0.00    +0.149 HD
BRANCH   5  23
ATOM     23  C   UNL     1      11.491  11.225  22.207  0.00  0.00    +0.119 C 
BRANCH  23  19
ATOM     19  C   UNL     1      10.905  10.852  23.560  0.00  0.00    +0.103 C 
BRANCH  19   3
ATOM      3  N   UNL     1      10.354  12.030  24.214  0.00  0.00    -0.301 NA
ATOM     14  C   UNL     1      11.034  12.340  25.471  0.00  0.00    +0.084 C 
ATOM     15  C   UNL     1      10.494  13.237  23.399  0.00  0.00    +0.084 C 
ATOM     16  C   UNL     1      10.587  13.765  25.758  0.00  0.00    +0.017 C 
ATOM     17  C   UNL     1      10.229  14.354  24.398  0.00  0.00    +0.017 C 
ENDBRANCH  19   3
ENDBRANCH  23  19
ENDBRANCH   5  23
ENDBRANCH   7  20
BRANCH   6   9
ATOM      9  C   UNL     1      14.152   8.068  18.408  0.00  0.00    +0.026 C 
BRANCH   9  13
ATOM     13  C   UNL     1      12.755   7.454  18.282  0.00  0.00    -0.015 C 
ATOM     24  C   UNL     1      11.739   8.564  18.001  0.00  0.00    +0.007 C 
ATOM     25  C   UNL     1      12.338   6.677  19.532  0.00  0.00    +0.007 C 
ENDBRANCH   9  13
ENDBRANCH   6   9
TORSDOF 6
ENDMDL
MODEL 2
REMARK VINA RESULT:      -6.8     28.894     31.751
REMARK  Name = 51137946
REMARK  8 active torsions:
REMARK  status: ('A' for Active; 'I' for Inactive)
REMARK    1  A    between atoms: N_3  and  C_19
REMARK    2  A    between atoms: N_5  and  C_23
REMARK    3  A    between atoms: C_6  and  C_9
REMARK    4  A    between atoms: C_7  and  C_20
REMARK    5  A    between atoms: C_9  and  C_13
REMARK    6  A    between atoms: C_13  and  C_24
REMARK    7  A    between atoms: C_13  and  C_25
REMARK    8  A    between atoms: C_19  and  C_23
REMARK                            x       y       z     vdW  Elec       q    Type
REMARK                         _______ _______ _______ _____ _____    ______ ____
ROOT
ATOM      2  N   UNL     1     -15.144   2.745  28.910  0.00  0.00    -0.299 NA
ATOM      4  N   UNL     1     -16.031   6.492  32.176  0.00  0.00    -0.360 N 
ATOM      6  C   UNL     1     -14.980   2.156  30.245  0.00  0.00    +0.085 C 
ATOM      7  C   UNL     1     -16.437   3.372  28.676  0.00  0.00    +0.145 C 
ATOM      8  C   UNL     1     -15.018   3.139  31.419  0.00  0.00    -0.021 A 
ATOM     10  C   UNL     1     -16.378   4.881  28.904  0.00  0.00    +0.065 C 
ATOM     11  C   UNL     1     -15.522   4.470  31.358  0.00  0.00    +0.008 A 
ATOM     12  C   UNL     1     -16.113   5.269  30.319  0.00  0.00    -0.020 A 
ATOM     18  C   UNL     1     -15.512   5.264  32.512  0.00  0.00    +0.047 A 
ATOM     21  C   UNL     1     -16.401   6.505  30.864  0.00  0.00    +0.087 A 
ATOM     22  C   UNL     1     -14.595   2.688  32.696  0.00  0.00    +0.006 A 
ATOM     26  C   UNL     1     -15.048   4.816  33.749  0.00  0.00    +0.026 A 
ATOM     27  C   UNL     1     -14.600   3.505  33.825  0.00  0.00    +0.002 A 
ATOM     28  H   UNL     1     -14.380   3.385  28.698  0.00  0.00    +0.123 HD
ATOM     29  H   UNL     1     -16.140   7.267  32.816  0.00  0.00    +0.165 HD
ENDROOT
BRANCH   7  20
ATOM      1  O   UNL     1     -17.788   2.547  26.890  0.00  0.00    -0.274 OA
ATOM      5  N   UNL     1     -15.738   3.530  26.392  0.00  0.00    -0.313 N 
ATOM     20  C   UNL     1     -16.749   3.104  27.235  0.00  0.00    +0.230 C 
ATOM     30  H   UNL     1     -14.923   3.996  26.784  0.00  0.00    +0.149 HD
BRANCH   5  23
ATOM     23  C   UNL     1     -15.783   3.368  24.956  0.00  0.00    +0.119 C 
BRANCH  23  19
ATOM     19  C   UNL     1     -16.204   4.658  24.269  0.00  0.00    +0.103 C 
BRANCH  19   3
ATOM      3  N   UNL     1     -15.433   4.856  23.050  0.00  0.00    -0.301 NA
ATOM     14  C   UNL     1     -15.725   6.136  22.407  0.00  0.00    +0.084 C 
ATOM     15  C   UNL     1     -13.992   4.876  23.299  0.00  0.00    +0.084 C 
ATOM     16  C   UNL     1     -14.571   6.298  21.429  0.00  0.00    +0.017 C 
ATOM     17  C   UNL     1     -13.433   5.467  22.013  0.00  0.00    +0.017 C 
ENDBRANCH  19   3
ENDBRANCH  23  19
ENDBRANCH   5  23
ENDBRANCH   7  20
BRANCH   6   9
ATOM      9  C   UNL     1     -13.653   1.379  30.168  0.00  0.00    +0.026 C 
BRANCH   9  13
ATOM     13  C   UNL     1     -13.811  -0.111  30.486  0.00  0.00    -0.015 C 
ATOM     24  C   UNL     1     -13.351  -0.935  29.281  0.00  0.00    +0.007 C 
ATOM     25  C   UNL     1     -15.249  -0.485  30.850  0.00  0.00    +0.007 C 
ENDBRANCH   9  13
ENDBRANCH   6   9
TORSDOF 6
ENDMDL
MODEL 3
REMARK VINA RESULT:      -6.7      2.834      8.280
REMARK  Name = 51137946
REMARK  8 active torsions:
REMARK  status: ('A' for Active; 'I' for Inactive)
REMARK    1  A    between atoms: N_3  and  C_19
REMARK    2  A    between atoms: N_5  and  C_23
REMARK    3  A    between atoms: C_6  and  C_9
REMARK    4  A    between atoms: C_7  and  C_20
REMARK    5  A    between atoms: C_9  and  C_13
REMARK    6  A    between atoms: C_13  and  C_24
REMARK    7  A    between atoms: C_13  and  C_25
REMARK    8  A    between atoms: C_19  and  C_23
REMARK                            x       y       z     vdW  Elec       q    Type
REMARK                         _______ _______ _______ _____ _____    ______ ____
ROOT
ATOM      2  N   UNL     1      15.051   8.572  19.856  0.00  0.00    -0.299 NA
ATOM      4  N   UNL     1      10.610   7.151  21.794  0.00  0.00    -0.360 N 
ATOM      6  C   UNL     1      14.619   9.682  20.716  0.00  0.00    +0.085 C 
ATOM      7  C   UNL     1      15.141   7.283  20.526  0.00  0.00    +0.145 C 
ATOM      8  C   UNL     1      13.200   9.575  21.284  0.00  0.00    -0.021 A 
ATOM     10  C   UNL     1      13.882   6.446  20.303  0.00  0.00    +0.065 C 
ATOM     11  C   UNL     1      12.423   8.382  21.330  0.00  0.00    +0.008 A 
ATOM     12  C   UNL     1      12.656   7.021  20.929  0.00  0.00    -0.020 A 
ATOM     18  C   UNL     1      11.140   8.416  21.890  0.00  0.00    +0.047 A 
ATOM     21  C   UNL     1      11.513   6.304  21.224  0.00  0.00    +0.087 A 
ATOM     22  C   UNL     1      12.622  10.722  21.886  0.00  0.00    +0.006 A 
ATOM     26  C   UNL     1      10.570   9.567  22.435  0.00  0.00    +0.026 A 
ATOM     27  C   UNL     1      11.341  10.722  22.435  0.00  0.00    +0.002 A 
ATOM     28  H   UNL     1      14.473   8.514  19.019  0.00  0.00    +0.123 HD
ATOM     29  H   UNL     1       9.690   6.886  22.117  0.00  0.00    +0.165 HD
ENDROOT
BRANCH   7  20
ATOM      1  O   UNL     1      16.190   5.929  18.863  0.00  0.00    -0.274 OA
ATOM      5  N   UNL     1      17.479   6.775  20.608  0.00  0.00    -0.313 N 
ATOM     20  C   UNL     1      16.309   6.591  19.892  0.00  0.00    +0.230 C 
ATOM     30  H   UNL     1      17.468   7.357  21.441  0.00  0.00    +0.149 HD
BRANCH   5  23
ATOM     23  C   UNL     1      18.744   6.193  20.220  0.00  0.00    +0.119 C 
BRANCH  23  19
ATOM     19  C   UNL     1      19.904   6.876  20.928  0.00  0.00    +0.103 C 
BRANCH  19   3
ATOM      3  N   UNL     1      20.994   5.934  21.136  0.00  0.00    -0.301 NA
ATOM     14  C   UNL     1      21.223   5.649  22.552  0.00  0.00    +0.084 C 
ATOM     15  C   UNL     1      20.729   4.631  20.525  0.00  0.00    +0.084 C 
ATOM     16  C   UNL     1      22.089   4.399  22.513  0.00  0.00    +0.017 C 
ATOM     17  C   UNL     1      21.767   3.732  21.180  0.00  0.00    +0.017 C 
ENDBRANCH  19   3
ENDBRANCH  23  19
ENDBRANCH   5  23
ENDBRANCH   7  20
BRANCH   6   9
ATOM      9  C   UNL     1      14.817  10.942  19.855  0.00  0.00    +0.026 C 
BRANCH   9  13
ATOM     13  C   UNL     1      14.715  10.663  18.352  0.00  0.00    -0.015 C 
ATOM     24  C   UNL     1      15.485  11.740  17.585  0.00  0.00    +0.007 C 
ATOM     25  C   UNL     1      13.267  10.613  17.860  0.00  0.00    +0.007 C 
ENDBRANCH   9  13
ENDBRANCH   6   9
TORSDOF 6
ENDMDL
MODEL 4
REMARK VINA RESULT:      -6.7     27.083     29.498
REMARK  Name = 51137946
REMARK  8 active torsions:
REMARK  status: ('A' for Active; 'I' for Inactive)
REMARK    1  A    between atoms: N_3  and  C_19
REMARK    2  A    between atoms: N_5  and  C_23
REMARK    3  A    between atoms: C_6  and  C_9
REMARK    4  A    between atoms: C_7  and  C_20
REMARK    5  A    between atoms: C_9  and  C_13
REMARK    6  A    between atoms: C_13  and  C_24
REMARK    7  A    between atoms: C_13  and  C_25
REMARK    8  A    between atoms: C_19  and  C_23
REMARK                            x       y       z     vdW  Elec       q    Type
REMARK                         _______ _______ _______ _____ _____    ______ ____
ROOT
ATOM      2  N   UNL     1      -5.096 -10.681  15.398  0.00  0.00    -0.299 NA
ATOM      4  N   UNL     1      -6.815 -11.743  20.027  0.00  0.00    -0.360 N 
ATOM      6  C   UNL     1      -6.334  -9.905  15.551  0.00  0.00    +0.085 C 
ATOM      7  C   UNL     1      -4.090 -10.428  16.421  0.00  0.00    +0.145 C 
ATOM      8  C   UNL     1      -7.155 -10.195  16.811  0.00  0.00    -0.021 A 
ATOM     10  C   UNL     1      -4.145 -11.475  17.532  0.00  0.00    +0.065 C 
ATOM     11  C   UNL     1      -6.669 -10.870  17.969  0.00  0.00    +0.008 A 
ATOM     12  C   UNL     1      -5.400 -11.438  18.336  0.00  0.00    -0.020 A 
ATOM     18  C   UNL     1      -7.520 -11.059  19.064  0.00  0.00    +0.047 A 
ATOM     21  C   UNL     1      -5.539 -11.971  19.603  0.00  0.00    +0.087 A 
ATOM     22  C   UNL     1      -8.480  -9.696  16.889  0.00  0.00    +0.006 A 
ATOM     26  C   UNL     1      -8.838 -10.600  19.102  0.00  0.00    +0.026 A 
ATOM     27  C   UNL     1      -9.301  -9.901  17.996  0.00  0.00    +0.002 A 
ATOM     28  H   UNL     1      -5.298 -11.676  15.318  0.00  0.00    +0.123 HD
ATOM     29  H   UNL     1      -7.185 -12.020  20.925  0.00  0.00    +0.165 HD
ENDROOT
BRANCH   7  20
ATOM      1  O   UNL     1      -1.727 -10.745  16.317  0.00  0.00    -0.274 OA
ATOM      5  N   UNL     1      -2.898 -10.339  14.347  0.00  0.00    -0.313 N 
ATOM     20  C   UNL     1      -2.774 -10.532  15.711  0.00  0.00    +0.230 C 
ATOM     30  H   UNL     1      -3.819 -10.184  13.945  0.00  0.00    +0.149 HD
BRANCH   5  23
ATOM     23  C   UNL     1      -1.774 -10.366  13.439  0.00  0.00    +0.119 C 
BRANCH  23  19
ATOM     19  C   UNL     1      -2.057 -11.256  12.238  0.00  0.00    +0.103 C 
BRANCH  19   3
ATOM      3  N   UNL     1      -3.074 -10.651  11.390  0.00  0.00    -0.301 NA
ATOM     14  C   UNL     1      -2.586  -9.460  10.696  0.00  0.00    +0.084 C 
ATOM     15  C   UNL     1      -3.523 -11.552  10.328  0.00  0.00    +0.084 C 
ATOM     16  C   UNL     1      -3.633  -9.243   9.614  0.00  0.00    +0.017 C 
ATOM     17  C   UNL     1      -4.251 -10.617   9.374  0.00  0.00    +0.017 C 
ENDBRANCH  19   3
ENDBRANCH  23  19
ENDBRANCH   5  23
ENDBRANCH   7  20
BRANCH   6   9
ATOM      9  C   UNL     1      -7.124 -10.175  14.257  0.00  0.00    +0.026 C 
BRANCH   9  13
ATOM     13  C   UNL     1      -6.225 -10.329  13.027  0.00  0.00    -0.015 C 
ATOM     24  C   UNL     1      -6.261  -9.035  12.211  0.00  0.00    +0.007 C 
ATOM     25  C   UNL     1      -6.632 -11.509  12.144  0.00  0.00    +0.007 C 
ENDBRANCH   9  13
ENDBRANCH   6   9
TORSDOF 6
ENDMDL
MODEL 5
REMARK VINA RESULT:      -6.6     26.333     29.579
REMARK  Name = 51137946
REMARK  8 active torsions:
REMARK  status: ('A' for Active; 'I' for Inactive)
REMARK    1  A    between atoms: N_3  and  C_19
REMARK    2  A    between atoms: N_5  and  C_23
REMARK    3  A    between atoms: C_6  and  C_9
REMARK    4  A    between atoms: C_7  and  C_20
REMARK    5  A    between atoms: C_9  and  C_13
REMARK    6  A    between atoms: C_13  and  C_24
REMARK    7  A    between atoms: C_13  and  C_25
REMARK    8  A    between atoms: C_19  and  C_23
REMARK                            x       y       z     vdW  Elec       q    Type
REMARK                         _______ _______ _______ _____ _____    ______ ____
ROOT
ATOM      2  N   UNL     1      -4.801 -10.504  14.934  0.00  0.00    -0.299 NA
ATOM      4  N   UNL     1      -8.237  -9.694  18.545  0.00  0.00    -0.360 N 
ATOM      6  C   UNL     1      -4.353 -11.288  16.093  0.00  0.00    +0.085 C 
ATOM      7  C   UNL     1      -6.149 -10.810  14.477  0.00  0.00    +0.145 C 
ATOM      8  C   UNL     1      -5.134 -11.068  17.392  0.00  0.00    -0.021 A 
ATOM     10  C   UNL     1      -7.170  -9.824  15.042  0.00  0.00    +0.065 C 
ATOM     11  C   UNL     1      -6.417 -10.455  17.484  0.00  0.00    +0.008 A 
ATOM     12  C   UNL     1      -7.334  -9.906  16.522  0.00  0.00    -0.020 A 
ATOM     18  C   UNL     1      -7.031 -10.327  18.736  0.00  0.00    +0.047 A 
ATOM     21  C   UNL     1      -8.432  -9.442  17.219  0.00  0.00    +0.087 A 
ATOM     22  C   UNL     1      -4.594 -11.572  18.602  0.00  0.00    +0.006 A 
ATOM     26  C   UNL     1      -6.461 -10.788  19.923  0.00  0.00    +0.026 A 
ATOM     27  C   UNL     1      -5.232 -11.428  19.833  0.00  0.00    +0.002 A 
ATOM     28  H   UNL     1      -4.687  -9.506  15.104  0.00  0.00    +0.123 HD
ATOM     29  H   UNL     1      -8.892  -9.467  19.281  0.00  0.00    +0.165 HD
ENDROOT
BRANCH   7  20
ATOM      1  O   UNL     1      -6.154  -9.567  12.439  0.00  0.00    -0.274 OA
ATOM      5  N   UNL     1      -6.015 -11.889  12.344  0.00  0.00    -0.313 N 
ATOM     20  C   UNL     1      -6.100 -10.666  12.986  0.00  0.00    +0.230 C 
ATOM     30  H   UNL     1      -5.961 -12.741  12.897  0.00  0.00    +0.149 HD
BRANCH   5  23
ATOM     23  C   UNL     1      -5.976 -12.027  10.906  0.00  0.00    +0.119 C 
BRANCH  23  19
ATOM     19  C   UNL     1      -4.599 -12.467  10.432  0.00  0.00    +0.103 C 
BRANCH  19   3
ATOM      3  N   UNL     1      -3.825 -11.315   9.991  0.00  0.00    -0.301 NA
ATOM     14  C   UNL     1      -4.672 -10.235   9.484  0.00  0.00    +0.084 C 
ATOM     15  C   UNL     1      -3.053 -10.713  11.078  0.00  0.00    +0.084 C 
ATOM     16  C   UNL     1      -3.727  -9.043   9.462  0.00  0.00    +0.017 C 
ATOM     17  C   UNL     1      -2.661  -9.358  10.507  0.00  0.00    +0.017 C 
ENDBRANCH  19   3
ENDBRANCH  23  19
ENDBRANCH   5  23
ENDBRANCH   7  20
BRANCH   6   9
ATOM      9  C   UNL     1      -2.858 -10.950  16.237  0.00  0.00    +0.026 C 
BRANCH   9  13
ATOM     13  C   UNL     1      -2.168 -10.703  14.893  0.00  0.00    -0.015 C 
ATOM     24  C   UNL     1      -1.566 -12.016  14.386  0.00  0.00    +0.007 C 
ATOM     25  C   UNL     1      -1.077  -9.635  14.979  0.00  0.00    +0.007 C 
ENDBRANCH   9  13
ENDBRANCH   6   9
TORSDOF 6
ENDMDL
MODEL 6
REMARK VINA RESULT:      -6.5     28.668     32.089
REMARK  Name = 51137946
REMARK  8 active torsions:
REMARK  status: ('A' for Active; 'I' for Inactive)
REMARK    1  A    between atoms: N_3  and  C_19
REMARK    2  A    between atoms: N_5  and  C_23
REMARK    3  A    between atoms: C_6  and  C_9
REMARK    4  A    between atoms: C_7  and  C_20
REMARK    5  A    between atoms: C_9  and  C_13
REMARK    6  A    between atoms: C_13  and  C_24
REMARK    7  A    between atoms: C_13  and  C_25
REMARK    8  A    between atoms: C_19  and  C_23
REMARK                            x       y       z     vdW  Elec       q    Type
REMARK                         _______ _______ _______ _____ _____    ______ ____
ROOT
ATOM      2  N   UNL     1     -16.578   3.774  28.920  0.00  0.00    -0.299 NA
ATOM      4  N   UNL     1     -14.920  -0.031  31.797  0.00  0.00    -0.360 N 
ATOM      6  C   UNL     1     -15.832   4.402  30.019  0.00  0.00    +0.085 C 
ATOM      7  C   UNL     1     -15.820   2.801  28.147  0.00  0.00    +0.145 C 
ATOM      8  C   UNL     1     -15.376   3.463  31.140  0.00  0.00    -0.021 A 
ATOM     10  C   UNL     1     -16.089   1.374  28.621  0.00  0.00    +0.065 C 
ATOM     11  C   UNL     1     -15.315   2.042  31.046  0.00  0.00    +0.008 A 
ATOM     12  C   UNL     1     -15.604   1.096  30.004  0.00  0.00    -0.020 A 
ATOM     18  C   UNL     1     -14.865   1.298  32.144  0.00  0.00    +0.047 A 
ATOM     21  C   UNL     1     -15.357  -0.165  30.512  0.00  0.00    +0.087 A 
ATOM     22  C   UNL     1     -14.901   4.031  32.350  0.00  0.00    +0.006 A 
ATOM     26  C   UNL     1     -14.446   1.875  33.344  0.00  0.00    +0.026 A 
ATOM     27  C   UNL     1     -14.459   3.260  33.424  0.00  0.00    +0.002 A 
ATOM     28  H   UNL     1     -17.454   3.376  29.256  0.00  0.00    +0.123 HD
ATOM     29  H   UNL     1     -14.658  -0.797  32.402  0.00  0.00    +0.165 HD
ENDROOT
BRANCH   7  20
ATOM      1  O   UNL     1     -16.898   2.044  26.157  0.00  0.00    -0.274 OA
ATOM      5  N   UNL     1     -15.997   4.190  26.204  0.00  0.00    -0.313 N 
ATOM     20  C   UNL     1     -16.309   2.952  26.738  0.00  0.00    +0.230 C 
ATOM     30  H   UNL     1     -15.519   4.877  26.782  0.00  0.00    +0.149 HD
BRANCH   5  23
ATOM     23  C   UNL     1     -16.337   4.578  24.855  0.00  0.00    +0.119 C 
BRANCH  23  19
ATOM     19  C   UNL     1     -15.261   4.147  23.870  0.00  0.00    +0.103 C 
BRANCH  19   3
ATOM      3  N   UNL     1     -14.529   5.307  23.382  0.00  0.00    -0.301 NA
ATOM     14  C   UNL     1     -13.838   5.042  22.121  0.00  0.00    +0.084 C 
ATOM     15  C   UNL     1     -15.408   6.443  23.101  0.00  0.00    +0.084 C 
ATOM     16  C   UNL     1     -13.495   6.436  21.619  0.00  0.00    +0.017 C 
ATOM     17  C   UNL     1     -14.524   7.358  22.266  0.00  0.00    +0.017 C 
ENDBRANCH  19   3
ENDBRANCH  23  19
ENDBRANCH   5  23
ENDBRANCH   7  20
BRANCH   6   9
ATOM      9  C   UNL     1     -16.755   5.523  30.526  0.00  0.00    +0.026 C 
BRANCH   9  13
ATOM     13  C   UNL     1     -18.223   5.095  30.618  0.00  0.00    -0.015 C 
ATOM     24  C   UNL     1     -19.112   6.226  30.098  0.00  0.00    +0.007 C 
ATOM     25  C   UNL     1     -18.639   4.724  32.043  0.00  0.00    +0.007 C 
ENDBRANCH   9  13
ENDBRANCH   6   9
TORSDOF 6
ENDMDL
MODEL 7
REMARK VINA RESULT:      -6.5     27.208     29.195
REMARK  Name = 51137946
REMARK  8 active torsions:
REMARK  status: ('A' for Active; 'I' for Inactive)
REMARK    1  A    between atoms: N_3  and  C_19
REMARK    2  A    between atoms: N_5  and  C_23
REMARK    3  A    between atoms: C_6  and  C_9
REMARK    4  A    between atoms: C_7  and  C_20
REMARK    5  A    between atoms: C_9  and  C_13
REMARK    6  A    between atoms: C_13  and  C_24
REMARK    7  A    between atoms: C_13  and  C_25
REMARK    8  A    between atoms: C_19  and  C_23
REMARK                            x       y       z     vdW  Elec       q    Type
REMARK                         _______ _______ _______ _____ _____    ______ ____
ROOT
ATOM      2  N   UNL     1      -6.137  -9.503  14.872  0.00  0.00    -0.299 NA
ATOM      4  N   UNL     1      -1.477 -11.387  15.370  0.00  0.00    -0.360 N 
ATOM      6  C   UNL     1      -5.855 -10.206  13.614  0.00  0.00    +0.085 C 
ATOM      7  C   UNL     1      -6.009 -10.322  16.069  0.00  0.00    +0.145 C 
ATOM      8  C   UNL     1      -4.421 -10.716  13.439  0.00  0.00    -0.021 A 
ATOM     10  C   UNL     1      -4.644 -10.141  16.730  0.00  0.00    +0.065 C 
ATOM     11  C   UNL     1      -3.470 -10.866  14.489  0.00  0.00    +0.008 A 
ATOM     12  C   UNL     1      -3.503 -10.638  15.908  0.00  0.00    -0.020 A 
ATOM     18  C   UNL     1      -2.192 -11.358  14.196  0.00  0.00    +0.047 A 
ATOM     21  C   UNL     1      -2.256 -10.962  16.406  0.00  0.00    +0.087 A 
ATOM     22  C   UNL     1      -4.009 -11.153  12.154  0.00  0.00    +0.006 A 
ATOM     26  C   UNL     1      -1.790 -11.738  12.915  0.00  0.00    +0.026 A 
ATOM     27  C   UNL     1      -2.728 -11.639  11.896  0.00  0.00    +0.002 A 
ATOM     28  H   UNL     1      -5.580  -8.653  14.946  0.00  0.00    +0.123 HD
ATOM     29  H   UNL     1      -0.519 -11.695  15.454  0.00  0.00    +0.165 HD
ENDROOT
BRANCH   7  20
ATOM      1  O   UNL     1      -7.130 -10.190  18.172  0.00  0.00    -0.274 OA
ATOM      5  N   UNL     1      -7.959  -8.967  16.373  0.00  0.00    -0.313 N 
ATOM     20  C   UNL     1      -7.075  -9.828  16.999  0.00  0.00    +0.230 C 
ATOM     30  H   UNL     1      -7.810  -8.720  15.398  0.00  0.00    +0.149 HD
BRANCH   5  23
ATOM     23  C   UNL     1      -9.090  -8.369  17.045  0.00  0.00    +0.119 C 
BRANCH  23  19
ATOM     19  C   UNL     1     -10.398  -8.997  16.586  0.00  0.00    +0.103 C 
BRANCH  19   3
ATOM      3  N   UNL     1     -11.171  -8.041  15.806  0.00  0.00    -0.301 NA
ATOM     14  C   UNL     1     -12.538  -7.892  16.303  0.00  0.00    +0.084 C 
ATOM     15  C   UNL     1     -10.602  -6.694  15.852  0.00  0.00    +0.084 C 
ATOM     16  C   UNL     1     -13.009  -6.613  15.627  0.00  0.00    +0.017 C 
ATOM     17  C   UNL     1     -11.737  -5.827  15.327  0.00  0.00    +0.017 C 
ENDBRANCH  19   3
ENDBRANCH  23  19
ENDBRANCH   5  23
ENDBRANCH   7  20
BRANCH   6   9
ATOM      9  C   UNL     1      -6.268  -9.214  12.513  0.00  0.00    +0.026 C 
BRANCH   9  13
ATOM     13  C   UNL     1      -7.577  -9.599  11.818  0.00  0.00    -0.015 C 
ATOM     24  C   UNL     1      -7.810 -11.103  11.979  0.00  0.00    +0.007 C 
ATOM     25  C   UNL     1      -7.587  -9.231  10.334  0.00  0.00    +0.007 C 
ENDBRANCH   9  13
ENDBRANCH   6   9
TORSDOF 6
ENDMDL
MODEL 8
REMARK VINA RESULT:      -6.4     27.135     29.281
REMARK  Name = 51137946
REMARK  8 active torsions:
REMARK  status: ('A' for Active; 'I' for Inactive)
REMARK    1  A    between atoms: N_3  and  C_19
REMARK    2  A    between atoms: N_5  and  C_23
REMARK    3  A    between atoms: C_6  and  C_9
REMARK    4  A    between atoms: C_7  and  C_20
REMARK    5  A    between atoms: C_9  and  C_13
REMARK    6  A    between atoms: C_13  and  C_24
REMARK    7  A    between atoms: C_13  and  C_25
REMARK    8  A    between atoms: C_19  and  C_23
REMARK                            x       y       z     vdW  Elec       q    Type
REMARK                         _______ _______ _______ _____ _____    ______ ____
ROOT
ATOM      2  N   UNL     1      -6.461 -10.964  15.765  0.00  0.00    -0.299 NA
ATOM      4  N   UNL     1      -2.985 -10.387  12.147  0.00  0.00    -0.360 N 
ATOM      6  C   UNL     1      -5.187 -10.759  16.467  0.00  0.00    +0.085 C 
ATOM      7  C   UNL     1      -6.820  -9.905  14.833  0.00  0.00    +0.145 C 
ATOM      8  C   UNL     1      -3.933 -10.739  15.586  0.00  0.00    -0.021 A 
ATOM     10  C   UNL     1      -6.426 -10.260  13.401  0.00  0.00    +0.065 C 
ATOM     11  C   UNL     1      -3.927 -10.564  14.172  0.00  0.00    +0.008 A 
ATOM     12  C   UNL     1      -4.953 -10.356  13.186  0.00  0.00    -0.020 A 
ATOM     18  C   UNL     1      -2.708 -10.552  13.484  0.00  0.00    +0.047 A 
ATOM     21  C   UNL     1      -4.329 -10.262  11.957  0.00  0.00    +0.087 A 
ATOM     22  C   UNL     1      -2.663 -10.823  16.211  0.00  0.00    +0.006 A 
ATOM     26  C   UNL     1      -1.469 -10.683  14.114  0.00  0.00    +0.026 A 
ATOM     27  C   UNL     1      -1.467 -10.806  15.496  0.00  0.00    +0.002 A 
ATOM     28  H   UNL     1      -6.484 -11.877  15.312  0.00  0.00    +0.123 HD
ATOM     29  H   UNL     1      -2.290 -10.345  11.415  0.00  0.00    +0.165 HD
ENDROOT
BRANCH   7  20
ATOM      1  O   UNL     1      -9.037 -10.061  13.964  0.00  0.00    -0.274 OA
ATOM      5  N   UNL     1      -8.734  -9.351  16.160  0.00  0.00    -0.313 N 
ATOM     20  C   UNL     1      -8.312  -9.795  14.920  0.00  0.00    +0.230 C 
ATOM     30  H   UNL     1      -8.047  -9.175  16.888  0.00  0.00    +0.149 HD
BRANCH   5  23
ATOM     23  C   UNL     1     -10.124  -9.139  16.494  0.00  0.00    +0.119 C 
BRANCH  23  19
ATOM     19  C   UNL     1     -10.300  -7.897  17.356  0.00  0.00    +0.103 C 
BRANCH  19   3
ATOM      3  N   UNL     1     -11.227  -6.970  16.722  0.00  0.00    -0.301 NA
ATOM     14  C   UNL     1     -10.636  -6.293  15.568  0.00  0.00    +0.084 C 
ATOM     15  C   UNL     1     -12.418  -7.641  16.200  0.00  0.00    +0.084 C 
ATOM     16  C   UNL     1     -11.848  -5.710  14.857  0.00  0.00    +0.017 C 
ATOM     17  C   UNL     1     -13.020  -6.593  15.276  0.00  0.00    +0.017 C 
ENDBRANCH  19   3
ENDBRANCH  23  19
ENDBRANCH   5  23
ENDBRANCH   7  20
BRANCH   6   9
ATOM      9  C   UNL     1      -5.144 -11.871  17.530  0.00  0.00    +0.026 C 
BRANCH   9  13
ATOM     13  C   UNL     1      -4.798 -11.350  18.928  0.00  0.00    -0.015 C 
ATOM     24  C   UNL     1      -3.677 -12.207  19.522  0.00  0.00    +0.007 C 
ATOM     25  C   UNL     1      -6.003 -11.349  19.870  0.00  0.00    +0.007 C 
ENDBRANCH   9  13
ENDBRANCH   6   9
TORSDOF 6
ENDMDL
MODEL 9
REMARK VINA RESULT:      -6.3     27.229     29.443
REMARK  Name = 51137946
REMARK  8 active torsions:
REMARK  status: ('A' for Active; 'I' for Inactive)
REMARK    1  A    between atoms: N_3  and  C_19
REMARK    2  A    between atoms: N_5  and  C_23
REMARK    3  A    between atoms: C_6  and  C_9
REMARK    4  A    between atoms: C_7  and  C_20
REMARK    5  A    between atoms: C_9  and  C_13
REMARK    6  A    between atoms: C_13  and  C_24
REMARK    7  A    between atoms: C_13  and  C_25
REMARK    8  A    between atoms: C_19  and  C_23
REMARK                            x       y       z     vdW  Elec       q    Type
REMARK                         _______ _______ _______ _____ _____    ______ ____
ROOT
ATOM      2  N   UNL     1      -6.151  -9.447  14.763  0.00  0.00    -0.299 NA
ATOM      4  N   UNL     1      -1.544 -11.421  15.385  0.00  0.00    -0.360 N 
ATOM      6  C   UNL     1      -5.873 -10.205  13.536  0.00  0.00    +0.085 C 
ATOM      7  C   UNL     1      -6.055 -10.223  15.992  0.00  0.00    +0.145 C 
ATOM      8  C   UNL     1      -4.451 -10.755  13.396  0.00  0.00    -0.021 A 
ATOM     10  C   UNL     1      -4.693 -10.049  16.661  0.00  0.00    +0.065 C 
ATOM     11  C   UNL     1      -3.514 -10.887  14.462  0.00  0.00    +0.008 A 
ATOM     12  C   UNL     1      -3.556 -10.605  15.871  0.00  0.00    -0.020 A 
ATOM     18  C   UNL     1      -2.246 -11.421  14.203  0.00  0.00    +0.047 A 
ATOM     21  C   UNL     1      -2.323 -10.939  16.395  0.00  0.00    +0.087 A 
ATOM     22  C   UNL     1      -4.035 -11.250  12.134  0.00  0.00    +0.006 A 
ATOM     26  C   UNL     1      -1.839 -11.859  12.941  0.00  0.00    +0.026 A 
ATOM     27  C   UNL     1      -2.764 -11.776  11.909  0.00  0.00    +0.002 A 
ATOM     28  H   UNL     1      -5.574  -8.609  14.812  0.00  0.00    +0.123 HD
ATOM     29  H   UNL     1      -0.594 -11.749  15.492  0.00  0.00    +0.165 HD
ENDROOT
BRANCH   7  20
ATOM      1  O   UNL     1      -7.109  -9.864  18.103  0.00  0.00    -0.274 OA
ATOM      5  N   UNL     1      -8.079  -8.960  16.190  0.00  0.00    -0.313 N 
ATOM     20  C   UNL     1      -7.119  -9.669  16.890  0.00  0.00    +0.230 C 
ATOM     30  H   UNL     1      -7.981  -8.845  15.185  0.00  0.00    +0.149 HD
BRANCH   5  23
ATOM     23  C   UNL     1      -9.224  -8.343  16.821  0.00  0.00    +0.119 C 
BRANCH  23  19
ATOM     19  C   UNL     1     -10.400  -9.307  16.891  0.00  0.00    +0.103 C 
BRANCH  19   3
ATOM      3  N   UNL     1     -11.041  -9.227  18.195  0.00  0.00    -0.301 NA
ATOM     14  C   UNL     1     -12.480  -9.477  18.126  0.00  0.00    +0.084 C 
ATOM     15  C   UNL     1     -10.526 -10.225  19.133  0.00  0.00    +0.084 C 
ATOM     16  C   UNL     1     -12.853  -9.731  19.579  0.00  0.00    +0.017 C 
ATOM     17  C   UNL     1     -11.568 -10.219  20.242  0.00  0.00    +0.017 C 
ENDBRANCH  19   3
ENDBRANCH  23  19
ENDBRANCH   5  23
ENDBRANCH   7  20
BRANCH   6   9
ATOM      9  C   UNL     1      -6.250  -9.246  12.393  0.00  0.00    +0.026 C 
BRANCH   9  13
ATOM     13  C   UNL     1      -7.404  -9.765  11.531  0.00  0.00    -0.015 C 
ATOM     24  C   UNL     1      -7.883 -11.109  12.084  0.00  0.00    +0.007 C 
ATOM     25  C   UNL     1      -7.015  -9.921  10.059  0.00  0.00    +0.007 C 
ENDBRANCH   9  13
ENDBRANCH   6   9
TORSDOF 6
ENDMDL
MODEL 10
REMARK VINA RESULT:      -6.3     27.759     29.276
REMARK  Name = 51137946
REMARK  8 active torsions:
REMARK  status: ('A' for Active; 'I' for Inactive)
REMARK    1  A    between atoms: N_3  and  C_19
REMARK    2  A    between atoms: N_5  and  C_23
REMARK    3  A    between atoms: C_6  and  C_9
REMARK    4  A    between atoms: C_7  and  C_20
REMARK    5  A    between atoms: C_9  and  C_13
REMARK    6  A    between atoms: C_13  and  C_24
REMARK    7  A    between atoms: C_13  and  C_25
REMARK    8  A    between atoms: C_19  and  C_23
REMARK                            x       y       z     vdW  Elec       q    Type
REMARK                         _______ _______ _______ _____ _____    ______ ____
ROOT
ATOM      2  N   UNL     1      -6.353  -9.345  13.346  0.00  0.00    -0.299 NA
ATOM      4  N   UNL     1      -2.627 -11.273  16.157  0.00  0.00    -0.360 N 
ATOM      6  C   UNL     1      -5.449 -10.016  12.402  0.00  0.00    +0.085 C 
ATOM      7  C   UNL     1      -6.864 -10.199  14.410  0.00  0.00    +0.145 C 
ATOM      8  C   UNL     1      -4.131 -10.530  12.990  0.00  0.00    -0.021 A 
ATOM     10  C   UNL     1      -6.048 -10.045  15.692  0.00  0.00    +0.065 C 
ATOM     11  C   UNL     1      -3.868 -10.715  14.378  0.00  0.00    +0.008 A 
ATOM     12  C   UNL     1      -4.642 -10.527  15.575  0.00  0.00    -0.020 A 
ATOM     18  C   UNL     1      -2.622 -11.207  14.784  0.00  0.00    +0.047 A 
ATOM     21  C   UNL     1      -3.837 -10.872  16.643  0.00  0.00    +0.087 A 
ATOM     22  C   UNL     1      -3.103 -10.933  12.100  0.00  0.00    +0.006 A 
ATOM     26  C   UNL     1      -1.605 -11.554  13.893  0.00  0.00    +0.026 A 
ATOM     27  C   UNL     1      -1.873 -11.421  12.537  0.00  0.00    +0.002 A 
ATOM     28  H   UNL     1      -5.925  -8.502  13.723  0.00  0.00    +0.123 HD
ATOM     29  H   UNL     1      -1.852 -11.590  16.722  0.00  0.00    +0.165 HD
ENDROOT
BRANCH   7  20
ATOM      1  O   UNL     1      -8.980  -9.318  13.745  0.00  0.00    -0.274 OA
ATOM      5  N   UNL     1      -8.607  -9.781  15.996  0.00  0.00    -0.313 N 
ATOM     20  C   UNL     1      -8.263  -9.723  14.657  0.00  0.00    +0.230 C 
ATOM     30  H   UNL     1      -7.940 -10.150  16.668  0.00  0.00    +0.149 HD
BRANCH   5  23
ATOM     23  C   UNL     1      -9.894  -9.358  16.501  0.00  0.00    +0.119 C 
BRANCH  23  19
ATOM     19  C   UNL     1      -9.783  -8.044  17.260  0.00  0.00    +0.103 C 
BRANCH  19   3
ATOM      3  N   UNL     1     -10.827  -7.124  16.833  0.00  0.00    -0.301 NA
ATOM     14  C   UNL     1     -10.458  -6.381  15.629  0.00  0.00    +0.084 C 
ATOM     15  C   UNL     1     -12.070  -7.814  16.487  0.00  0.00    +0.084 C 
ATOM     16  C   UNL     1     -11.788  -5.812  15.158  0.00  0.00    +0.017 C 
ATOM     17  C   UNL     1     -12.848  -6.751  15.725  0.00  0.00    +0.017 C 
ENDBRANCH  19   3
ENDBRANCH  23  19
ENDBRANCH   5  23
ENDBRANCH   7  20
BRANCH   6   9
ATOM      9  C   UNL     1      -5.233  -8.990  11.275  0.00  0.00    +0.026 C 
BRANCH   9  13
ATOM     13  C   UNL     1      -5.709  -9.492   9.909  0.00  0.00    -0.015 C 
ATOM     24  C   UNL     1      -6.269 -10.908  10.059  0.00  0.00    +0.007 C 
ATOM     25  C   UNL     1      -4.596  -9.484   8.859  0.00  0.00    +0.007 C 
ENDBRANCH   9  13
ENDBRANCH   6   9
TORSDOF 6
ENDMDL
