MODEL 1
REMARK VINA RESULT:      -5.7      0.000      0.000
REMARK  Name = 26745453
REMARK  6 active torsions:
REMARK  status: ('A' for Active; 'I' for Inactive)
REMARK    1  A    between atoms: O_2  and  C_15
REMARK    2  A    between atoms: O_2  and  C_22
REMARK    3  A    between atoms: N_6  and  C_13
REMARK    4  A    between atoms: C_8  and  C_15
REMARK    5  A    between atoms: C_13  and  C_17
REMARK    6  A    between atoms: C_16  and  C_18
REMARK                            x       y       z     vdW  Elec       q    Type
REMARK                         _______ _______ _______ _____ _____    ______ ____
ROOT
ATOM      4  O   UNL     1      10.175   9.097  22.525  0.00  0.00    -0.269 OA
ATOM      5  N   UNL     1      12.138  10.378  22.438  0.00  0.00    -0.277 N 
ATOM      6  N   UNL     1      15.685  11.580  22.516  0.00  0.00    -0.328 N 
ATOM      7  N   UNL     1      15.188  12.267  24.583  0.00  0.00    -0.240 NA
ATOM      8  C   UNL     1      11.685  11.290  23.520  0.00  0.00    +0.191 C 
ATOM      9  C   UNL     1      12.751  11.586  24.597  0.00  0.00    +0.091 C 
ATOM     10  C   UNL     1      14.367  11.289  22.711  0.00  0.00    +0.059 A 
ATOM     11  C   UNL     1      13.435  10.661  21.756  0.00  0.00    +0.164 C 
ATOM     12  C   UNL     1      14.087  11.723  23.982  0.00  0.00    +0.066 A 
ATOM     14  C   UNL     1      16.136  12.167  23.672  0.00  0.00    +0.200 A 
ATOM     16  C   UNL     1      11.254   9.375  22.005  0.00  0.00    +0.254 C 
ENDROOT
BRANCH  16  18
ATOM      1  S   UNL     1      12.477   7.107  21.052  0.00  0.00    -0.092 S 
ATOM     18  C   UNL     1      11.631   8.580  20.827  0.00  0.00    +0.074 A 
ATOM     21  C   UNL     1      11.400   8.844  19.496  0.00  0.00    +0.021 A 
ATOM     25  C   UNL     1      11.923   7.825  18.649  0.00  0.00    +0.008 A 
ATOM     26  C   UNL     1      12.535   6.821  19.366  0.00  0.00    +0.046 A 
ENDBRANCH  16  18
BRANCH   8  15
ATOM      3  O   UNL     1      10.924  12.605  21.648  0.00  0.00    -0.249 OA
ATOM     15  C   UNL     1      11.209  12.541  22.836  0.00  0.00    +0.328 C 
BRANCH  15   2
ATOM      2  O   UNL     1      11.152  13.560  23.739  0.00  0.00    -0.467 OA
ATOM     22  C   UNL     1       9.984  14.384  23.662  0.00  0.00    +0.280 C 
ENDBRANCH  15   2
ENDBRANCH   8  15
BRANCH   6  13
ATOM     13  C   UNL     1      16.468  11.331  21.331  0.00  0.00    +0.158 C 
BRANCH  13  17
ATOM     17  C   UNL     1      16.917   9.897  21.201  0.00  0.00    -0.028 A 
ATOM     19  C   UNL     1      16.156   8.991  20.461  0.00  0.00    +0.005 A 
ATOM     20  C   UNL     1      18.093   9.475  21.821  0.00  0.00    +0.005 A 
ATOM     23  C   UNL     1      16.571   7.665  20.341  0.00  0.00    +0.000 A 
ATOM     24  C   UNL     1      18.508   8.149  21.702  0.00  0.00    +0.000 A 
ATOM     27  C   UNL     1      17.748   7.244  20.961  0.00  0.00    +0.000 A 
ENDBRANCH  13  17
ENDBRANCH   6  13
TORSDOF 5
ENDMDL
MODEL 2
REMARK VINA RESULT:      -5.7     27.351     29.859
REMARK  Name = 26745453
REMARK  6 active torsions:
REMARK  status: ('A' for Active; 'I' for Inactive)
REMARK    1  A    between atoms: O_2  and  C_15
REMARK    2  A    between atoms: O_2  and  C_22
REMARK    3  A    between atoms: N_6  and  C_13
REMARK    4  A    between atoms: C_8  and  C_15
REMARK    5  A    between atoms: C_13  and  C_17
REMARK    6  A    between atoms: C_16  and  C_18
REMARK                            x       y       z     vdW  Elec       q    Type
REMARK                         _______ _______ _______ _____ _____    ______ ____
ROOT
ATOM      4  O   UNL     1      -7.035 -13.783  17.358  0.00  0.00    -0.269 OA
ATOM      5  N   UNL     1      -5.348 -12.664  16.174  0.00  0.00    -0.277 N 
ATOM      6  N   UNL     1      -2.157 -11.678  14.479  0.00  0.00    -0.328 N 
ATOM      7  N   UNL     1      -1.750 -10.545  16.361  0.00  0.00    -0.240 NA
ATOM      8  C   UNL     1      -5.331 -11.521  17.123  0.00  0.00    +0.191 C 
ATOM      9  C   UNL     1      -3.920 -11.067  17.554  0.00  0.00    +0.091 C 
ATOM     10  C   UNL     1      -3.252 -11.846  15.272  0.00  0.00    +0.059 A 
ATOM     11  C   UNL     1      -4.478 -12.605  14.963  0.00  0.00    +0.164 C 
ATOM     12  C   UNL     1      -2.981 -11.139  16.417  0.00  0.00    +0.066 A 
ATOM     14  C   UNL     1      -1.279 -10.888  15.179  0.00  0.00    +0.200 A 
ATOM     16  C   UNL     1      -6.293 -13.683  16.383  0.00  0.00    +0.254 C 
ENDROOT
BRANCH  16  18
ATOM      1  S   UNL     1      -5.479 -16.152  15.493  0.00  0.00    -0.092 S 
ATOM     18  C   UNL     1      -6.423 -14.729  15.357  0.00  0.00    +0.074 A 
ATOM     21  C   UNL     1      -7.230 -14.748  14.241  0.00  0.00    +0.021 A 
ATOM     25  C   UNL     1      -7.071 -15.946  13.487  0.00  0.00    +0.008 A 
ATOM     26  C   UNL     1      -6.149 -16.797  14.056  0.00  0.00    +0.046 A 
ENDBRANCH  16  18
BRANCH   8  15
ATOM      3  O   UNL     1      -5.596  -9.574  15.725  0.00  0.00    -0.249 OA
ATOM     15  C   UNL     1      -6.101 -10.417  16.455  0.00  0.00    +0.328 C 
BRANCH  15   2
ATOM      2  O   UNL     1      -7.419 -10.512  16.792  0.00  0.00    -0.467 OA
ATOM     22  C   UNL     1      -8.002  -9.321  17.331  0.00  0.00    +0.280 C 
ENDBRANCH  15   2
ENDBRANCH   8  15
BRANCH   6  13
ATOM     13  C   UNL     1      -1.944 -12.214  13.157  0.00  0.00    +0.158 C 
BRANCH  13  17
ATOM     17  C   UNL     1      -2.450 -11.313  12.058  0.00  0.00    -0.028 A 
ATOM     19  C   UNL     1      -3.588 -11.666  11.333  0.00  0.00    +0.005 A 
ATOM     20  C   UNL     1      -1.778 -10.125  11.767  0.00  0.00    +0.005 A 
ATOM     23  C   UNL     1      -4.055 -10.832  10.317  0.00  0.00    +0.000 A 
ATOM     24  C   UNL     1      -2.245  -9.292  10.750  0.00  0.00    +0.000 A 
ATOM     27  C   UNL     1      -3.384  -9.645  10.026  0.00  0.00    +0.000 A 
ENDBRANCH  13  17
ENDBRANCH   6  13
TORSDOF 5
ENDMDL
MODEL 3
REMARK VINA RESULT:      -5.6     27.696     29.889
REMARK  Name = 26745453
REMARK  6 active torsions:
REMARK  status: ('A' for Active; 'I' for Inactive)
REMARK    1  A    between atoms: O_2  and  C_15
REMARK    2  A    between atoms: O_2  and  C_22
REMARK    3  A    between atoms: N_6  and  C_13
REMARK    4  A    between atoms: C_8  and  C_15
REMARK    5  A    between atoms: C_13  and  C_17
REMARK    6  A    between atoms: C_16  and  C_18
REMARK                            x       y       z     vdW  Elec       q    Type
REMARK                         _______ _______ _______ _____ _____    ______ ____
ROOT
ATOM      4  O   UNL     1      -1.627 -10.260  11.703  0.00  0.00    -0.269 OA
ATOM      5  N   UNL     1      -3.314 -10.658  13.284  0.00  0.00    -0.277 N 
ATOM      6  N   UNL     1      -6.142 -10.343  15.719  0.00  0.00    -0.328 N 
ATOM      7  N   UNL     1      -4.532 -10.322  17.268  0.00  0.00    -0.240 NA
ATOM      8  C   UNL     1      -2.356 -11.186  14.289  0.00  0.00    +0.191 C 
ATOM      9  C   UNL     1      -2.557 -10.636  15.717  0.00  0.00    +0.091 C 
ATOM     10  C   UNL     1      -4.965 -10.506  15.051  0.00  0.00    +0.059 A 
ATOM     11  C   UNL     1      -4.772 -10.680  13.600  0.00  0.00    +0.164 C 
ATOM     12  C   UNL     1      -3.995 -10.494  16.022  0.00  0.00    +0.066 A 
ATOM     14  C   UNL     1      -5.830 -10.236  17.051  0.00  0.00    +0.200 A 
ATOM     16  C   UNL     1      -2.814 -10.296  12.021  0.00  0.00    +0.254 C 
ENDROOT
BRANCH  16  18
ATOM      1  S   UNL     1      -4.376 -11.149   9.928  0.00  0.00    -0.092 S 
ATOM     18  C   UNL     1      -3.779  -9.930  10.973  0.00  0.00    +0.074 A 
ATOM     21  C   UNL     1      -4.310  -8.694  10.681  0.00  0.00    +0.021 A 
ATOM     25  C   UNL     1      -5.219  -8.746   9.586  0.00  0.00    +0.008 A 
ATOM     26  C   UNL     1      -5.348 -10.022   9.082  0.00  0.00    +0.046 A 
ENDBRANCH  16  18
BRANCH   8  15
ATOM      3  O   UNL     1      -3.336 -13.318  14.841  0.00  0.00    -0.249 OA
ATOM     15  C   UNL     1      -2.484 -12.683  14.237  0.00  0.00    +0.328 C 
BRANCH  15   2
ATOM      2  O   UNL     1      -1.516 -13.194  13.425  0.00  0.00    -0.467 OA
ATOM     22  C   UNL     1      -1.446 -14.623  13.377  0.00  0.00    +0.280 C 
ENDBRANCH  15   2
ENDBRANCH   8  15
BRANCH   6  13
ATOM     13  C   UNL     1      -7.468 -10.295  15.154  0.00  0.00    +0.158 C 
BRANCH  13  17
ATOM     17  C   UNL     1      -8.537  -9.962  16.165  0.00  0.00    -0.028 A 
ATOM     19  C   UNL     1      -8.861  -8.631  16.428  0.00  0.00    +0.005 A 
ATOM     20  C   UNL     1      -9.203 -10.987  16.837  0.00  0.00    +0.005 A 
ATOM     23  C   UNL     1      -9.849  -8.324  17.362  0.00  0.00    +0.000 A 
ATOM     24  C   UNL     1     -10.192 -10.681  17.773  0.00  0.00    +0.000 A 
ATOM     27  C   UNL     1     -10.515  -9.349  18.035  0.00  0.00    +0.000 A 
ENDBRANCH  13  17
ENDBRANCH   6  13
TORSDOF 5
ENDMDL
MODEL 4
REMARK VINA RESULT:      -5.6     16.017     18.312
REMARK  Name = 26745453
REMARK  6 active torsions:
REMARK  status: ('A' for Active; 'I' for Inactive)
REMARK    1  A    between atoms: O_2  and  C_15
REMARK    2  A    between atoms: O_2  and  C_22
REMARK    3  A    between atoms: N_6  and  C_13
REMARK    4  A    between atoms: C_8  and  C_15
REMARK    5  A    between atoms: C_13  and  C_17
REMARK    6  A    between atoms: C_16  and  C_18
REMARK                            x       y       z     vdW  Elec       q    Type
REMARK                         _______ _______ _______ _____ _____    ______ ____
ROOT
ATOM      4  O   UNL     1       9.803   5.689   1.087  0.00  0.00    -0.269 OA
ATOM      5  N   UNL     1      10.362   6.434   3.240  0.00  0.00    -0.277 N 
ATOM      6  N   UNL     1      11.238   6.679   6.874  0.00  0.00    -0.328 N 
ATOM      7  N   UNL     1       9.067   7.127   7.154  0.00  0.00    -0.240 NA
ATOM      8  C   UNL     1       9.123   7.244   3.367  0.00  0.00    +0.191 C 
ATOM      9  C   UNL     1       8.389   7.086   4.716  0.00  0.00    +0.091 C 
ATOM     10  C   UNL     1      10.687   6.700   5.627  0.00  0.00    +0.059 A 
ATOM     11  C   UNL     1      11.371   6.488   4.338  0.00  0.00    +0.164 C 
ATOM     12  C   UNL     1       9.358   6.981   5.825  0.00  0.00    +0.066 A 
ATOM     14  C   UNL     1      10.223   6.941   7.760  0.00  0.00    +0.200 A 
ATOM     16  C   UNL     1      10.595   5.767   2.025  0.00  0.00    +0.254 C 
ENDROOT
BRANCH  16  18
ATOM      1  S   UNL     1      13.245   6.036   1.352  0.00  0.00    -0.092 S 
ATOM     18  C   UNL     1      11.892   5.103   1.837  0.00  0.00    +0.074 A 
ATOM     21  C   UNL     1      12.214   3.773   1.999  0.00  0.00    +0.021 A 
ATOM     25  C   UNL     1      13.587   3.517   1.721  0.00  0.00    +0.008 A 
ATOM     26  C   UNL     1      14.264   4.660   1.357  0.00  0.00    +0.046 A 
ENDBRANCH  16  18
BRANCH   8  15
ATOM      3  O   UNL     1      10.390   8.997   2.302  0.00  0.00    -0.249 OA
ATOM     15  C   UNL     1       9.530   8.667   3.107  0.00  0.00    +0.328 C 
BRANCH  15   2
ATOM      2  O   UNL     1       8.799   9.502   3.900  0.00  0.00    -0.467 OA
ATOM     22  C   UNL     1       9.523  10.596   4.471  0.00  0.00    +0.280 C 
ENDBRANCH  15   2
ENDBRANCH   8  15
BRANCH   6  13
ATOM     13  C   UNL     1      12.618   6.436   7.215  0.00  0.00    +0.158 C 
BRANCH  13  17
ATOM     17  C   UNL     1      13.533   7.582   6.860  0.00  0.00    -0.028 A 
ATOM     19  C   UNL     1      14.830   7.328   6.414  0.00  0.00    +0.005 A 
ATOM     20  C   UNL     1      13.080   8.896   6.977  0.00  0.00    +0.005 A 
ATOM     23  C   UNL     1      15.675   8.388   6.086  0.00  0.00    +0.000 A 
ATOM     24  C   UNL     1      13.926   9.957   6.650  0.00  0.00    +0.000 A 
ATOM     27  C   UNL     1      15.223   9.702   6.203  0.00  0.00    +0.000 A 
ENDBRANCH  13  17
ENDBRANCH   6  13
TORSDOF 5
ENDMDL
MODEL 5
REMARK VINA RESULT:      -5.2     23.575     26.038
REMARK  Name = 26745453
REMARK  6 active torsions:
REMARK  status: ('A' for Active; 'I' for Inactive)
REMARK    1  A    between atoms: O_2  and  C_15
REMARK    2  A    between atoms: O_2  and  C_22
REMARK    3  A    between atoms: N_6  and  C_13
REMARK    4  A    between atoms: C_8  and  C_15
REMARK    5  A    between atoms: C_13  and  C_17
REMARK    6  A    between atoms: C_16  and  C_18
REMARK                            x       y       z     vdW  Elec       q    Type
REMARK                         _______ _______ _______ _____ _____    ______ ____
ROOT
ATOM      4  O   UNL     1      -2.659  10.626   6.291  0.00  0.00    -0.269 OA
ATOM      5  N   UNL     1      -2.130  10.643   4.005  0.00  0.00    -0.277 N 
ATOM      6  N   UNL     1      -0.832   9.850   0.583  0.00  0.00    -0.328 N 
ATOM      7  N   UNL     1       0.792  11.297   1.090  0.00  0.00    -0.240 NA
ATOM      8  C   UNL     1      -1.417  11.942   4.099  0.00  0.00    +0.191 C 
ATOM      9  C   UNL     1      -0.055  11.980   3.375  0.00  0.00    +0.091 C 
ATOM     10  C   UNL     1      -1.127  10.339   1.820  0.00  0.00    +0.059 A 
ATOM     11  C   UNL     1      -2.288  10.005   2.665  0.00  0.00    +0.164 C 
ATOM     12  C   UNL     1      -0.120  11.226   2.106  0.00  0.00    +0.066 A 
ATOM     14  C   UNL     1       0.333  10.456   0.185  0.00  0.00    +0.200 A 
ATOM     16  C   UNL     1      -2.752  10.144   5.163  0.00  0.00    +0.254 C 
ENDROOT
BRANCH  16  18
ATOM      1  S   UNL     1      -5.222   9.122   4.529  0.00  0.00    -0.092 S 
ATOM     18  C   UNL     1      -3.595   8.946   5.036  0.00  0.00    +0.074 A 
ATOM     21  C   UNL     1      -3.267   7.630   5.272  0.00  0.00    +0.021 A 
ATOM     25  C   UNL     1      -4.364   6.753   5.034  0.00  0.00    +0.008 A 
ATOM     26  C   UNL     1      -5.490   7.434   4.625  0.00  0.00    +0.046 A 
ENDBRANCH  16  18
BRANCH   8  15
ATOM      3  O   UNL     1      -2.380  13.366   2.408  0.00  0.00    -0.249 OA
ATOM     15  C   UNL     1      -2.369  12.977   3.568  0.00  0.00    +0.328 C 
BRANCH  15   2
ATOM      2  O   UNL     1      -3.194  13.395   4.570  0.00  0.00    -0.467 OA
ATOM     22  C   UNL     1      -4.595  13.262   4.308  0.00  0.00    +0.280 C 
ENDBRANCH  15   2
ENDBRANCH   8  15
BRANCH   6  13
ATOM     13  C   UNL     1      -1.588   8.885  -0.178  0.00  0.00    +0.158 C 
BRANCH  13  17
ATOM     17  C   UNL     1      -2.476   9.513  -1.224  0.00  0.00    -0.028 A 
ATOM     19  C   UNL     1      -1.916  10.076  -2.370  0.00  0.00    +0.005 A 
ATOM     20  C   UNL     1      -3.860   9.528  -1.045  0.00  0.00    +0.005 A 
ATOM     23  C   UNL     1      -2.737  10.656  -3.336  0.00  0.00    +0.000 A 
ATOM     24  C   UNL     1      -4.682  10.108  -2.011  0.00  0.00    +0.000 A 
ATOM     27  C   UNL     1      -4.121  10.671  -3.157  0.00  0.00    +0.000 A 
ENDBRANCH  13  17
ENDBRANCH   6  13
TORSDOF 5
ENDMDL
MODEL 6
REMARK VINA RESULT:      -5.2     28.652     30.567
REMARK  Name = 26745453
REMARK  6 active torsions:
REMARK  status: ('A' for Active; 'I' for Inactive)
REMARK    1  A    between atoms: O_2  and  C_15
REMARK    2  A    between atoms: O_2  and  C_22
REMARK    3  A    between atoms: N_6  and  C_13
REMARK    4  A    between atoms: C_8  and  C_15
REMARK    5  A    between atoms: C_13  and  C_17
REMARK    6  A    between atoms: C_16  and  C_18
REMARK                            x       y       z     vdW  Elec       q    Type
REMARK                         _______ _______ _______ _____ _____    ______ ____
ROOT
ATOM      4  O   UNL     1      -3.219 -10.336  12.944  0.00  0.00    -0.269 OA
ATOM      5  N   UNL     1      -5.254 -10.363  14.111  0.00  0.00    -0.277 N 
ATOM      6  N   UNL     1      -8.495  -9.467  15.760  0.00  0.00    -0.328 N 
ATOM      7  N   UNL     1      -7.284  -9.405  17.637  0.00  0.00    -0.240 NA
ATOM      8  C   UNL     1      -4.619 -10.849  15.364  0.00  0.00    +0.191 C 
ATOM      9  C   UNL     1      -5.066 -10.104  16.639  0.00  0.00    +0.091 C 
ATOM     10  C   UNL     1      -7.228  -9.827  15.411  0.00  0.00    +0.059 A 
ATOM     11  C   UNL     1      -6.737 -10.203  14.072  0.00  0.00    +0.164 C 
ATOM     12  C   UNL     1      -6.507  -9.786  16.578  0.00  0.00    +0.066 A 
ATOM     14  C   UNL     1      -8.479  -9.221  17.110  0.00  0.00    +0.200 A 
ATOM     16  C   UNL     1      -4.443 -10.216  12.973  0.00  0.00    +0.254 C 
ENDROOT
BRANCH  16  18
ATOM      1  S   UNL     1      -5.629 -11.173  10.687  0.00  0.00    -0.092 S 
ATOM     18  C   UNL     1      -5.094  -9.895  11.695  0.00  0.00    +0.074 A 
ATOM     21  C   UNL     1      -5.360  -8.659  11.146  0.00  0.00    +0.021 A 
ATOM     25  C   UNL     1      -6.009  -8.763   9.883  0.00  0.00    +0.008 A 
ATOM     26  C   UNL     1      -6.216 -10.074   9.514  0.00  0.00    +0.046 A 
ENDBRANCH  16  18
BRANCH   8  15
ATOM      3  O   UNL     1      -4.895 -13.070  14.468  0.00  0.00    -0.249 OA
ATOM     15  C   UNL     1      -4.917 -12.321  15.434  0.00  0.00    +0.328 C 
BRANCH  15   2
ATOM      2  O   UNL     1      -5.207 -12.666  16.721  0.00  0.00    -0.467 OA
ATOM     22  C   UNL     1      -4.983 -14.040  17.053  0.00  0.00    +0.280 C 
ENDBRANCH  15   2
ENDBRANCH   8  15
BRANCH   6  13
ATOM     13  C   UNL     1      -9.643  -9.362  14.894  0.00  0.00    +0.158 C 
BRANCH  13  17
ATOM     17  C   UNL     1     -10.629  -8.307  15.334  0.00  0.00    -0.028 A 
ATOM     19  C   UNL     1     -11.937  -8.667  15.661  0.00  0.00    +0.005 A 
ATOM     20  C   UNL     1     -10.232  -6.972  15.414  0.00  0.00    +0.005 A 
ATOM     23  C   UNL     1     -12.848  -7.692  16.068  0.00  0.00    +0.000 A 
ATOM     24  C   UNL     1     -11.143  -5.997  15.820  0.00  0.00    +0.000 A 
ATOM     27  C   UNL     1     -12.451  -6.357  16.148  0.00  0.00    +0.000 A 
ENDBRANCH  13  17
ENDBRANCH   6  13
TORSDOF 5
ENDMDL
MODEL 7
REMARK VINA RESULT:      -5.2     28.225     29.789
REMARK  Name = 26745453
REMARK  6 active torsions:
REMARK  status: ('A' for Active; 'I' for Inactive)
REMARK    1  A    between atoms: O_2  and  C_15
REMARK    2  A    between atoms: O_2  and  C_22
REMARK    3  A    between atoms: N_6  and  C_13
REMARK    4  A    between atoms: C_8  and  C_15
REMARK    5  A    between atoms: C_13  and  C_17
REMARK    6  A    between atoms: C_16  and  C_18
REMARK                            x       y       z     vdW  Elec       q    Type
REMARK                         _______ _______ _______ _____ _____    ______ ____
ROOT
ATOM      4  O   UNL     1      -2.428 -11.039  16.837  0.00  0.00    -0.269 OA
ATOM      5  N   UNL     1      -4.662 -11.034  16.121  0.00  0.00    -0.277 N 
ATOM      6  N   UNL     1      -7.925 -10.287  14.442  0.00  0.00    -0.328 N 
ATOM      7  N   UNL     1      -8.402  -9.180  16.323  0.00  0.00    -0.240 NA
ATOM      8  C   UNL     1      -5.183 -10.799  17.493  0.00  0.00    +0.191 C 
ATOM      9  C   UNL     1      -6.275  -9.713  17.586  0.00  0.00    +0.091 C 
ATOM     10  C   UNL     1      -6.860 -10.465  15.273  0.00  0.00    +0.059 A 
ATOM     11  C   UNL     1      -5.635 -11.243  15.009  0.00  0.00    +0.164 C 
ATOM     12  C   UNL     1      -7.178  -9.781  16.419  0.00  0.00    +0.066 A 
ATOM     14  C   UNL     1      -8.828  -9.505  15.118  0.00  0.00    +0.200 A 
ATOM     16  C   UNL     1      -3.275 -11.196  15.960  0.00  0.00    +0.254 C 
ENDROOT
BRANCH  16  18
ATOM      1  S   UNL     1      -2.368 -10.374  13.501  0.00  0.00    -0.092 S 
ATOM     18  C   UNL     1      -2.774 -11.591  14.636  0.00  0.00    +0.074 A 
ATOM     21  C   UNL     1      -2.564 -12.856  14.133  0.00  0.00    +0.021 A 
ATOM     25  C   UNL     1      -2.065 -12.827  12.799  0.00  0.00    +0.008 A 
ATOM     26  C   UNL     1      -1.912 -11.539  12.333  0.00  0.00    +0.046 A 
ENDBRANCH  16  18
BRANCH   8  15
ATOM      3  O   UNL     1      -6.844 -12.475  17.988  0.00  0.00    -0.249 OA
ATOM     15  C   UNL     1      -5.670 -12.134  17.985  0.00  0.00    +0.328 C 
BRANCH  15   2
ATOM      2  O   UNL     1      -4.609 -12.874  18.416  0.00  0.00    -0.467 OA
ATOM     22  C   UNL     1      -3.884 -12.325  19.521  0.00  0.00    +0.280 C 
ENDBRANCH  15   2
ENDBRANCH   8  15
BRANCH   6  13
ATOM     13  C   UNL     1      -8.092 -10.813  13.109  0.00  0.00    +0.158 C 
BRANCH  13  17
ATOM     17  C   UNL     1      -6.974 -10.430  12.171  0.00  0.00    -0.028 A 
ATOM     19  C   UNL     1      -6.292 -11.415  11.458  0.00  0.00    +0.005 A 
ATOM     20  C   UNL     1      -6.623  -9.088  12.017  0.00  0.00    +0.005 A 
ATOM     23  C   UNL     1      -5.259 -11.061  10.591  0.00  0.00    +0.000 A 
ATOM     24  C   UNL     1      -5.589  -8.733  11.151  0.00  0.00    +0.000 A 
ATOM     27  C   UNL     1      -4.908  -9.719  10.436  0.00  0.00    +0.000 A 
ENDBRANCH  13  17
ENDBRANCH   6  13
TORSDOF 5
ENDMDL
MODEL 8
REMARK VINA RESULT:      -5.1     16.322     19.157
REMARK  Name = 26745453
REMARK  6 active torsions:
REMARK  status: ('A' for Active; 'I' for Inactive)
REMARK    1  A    between atoms: O_2  and  C_15
REMARK    2  A    between atoms: O_2  and  C_22
REMARK    3  A    between atoms: N_6  and  C_13
REMARK    4  A    between atoms: C_8  and  C_15
REMARK    5  A    between atoms: C_13  and  C_17
REMARK    6  A    between atoms: C_16  and  C_18
REMARK                            x       y       z     vdW  Elec       q    Type
REMARK                         _______ _______ _______ _____ _____    ______ ____
ROOT
ATOM      4  O   UNL     1       7.403  10.515   5.061  0.00  0.00    -0.269 OA
ATOM      5  N   UNL     1       8.781   8.655   4.677  0.00  0.00    -0.277 N 
ATOM      6  N   UNL     1      10.162   5.306   3.727  0.00  0.00    -0.328 N 
ATOM      7  N   UNL     1       9.907   4.818   5.892  0.00  0.00    -0.240 NA
ATOM      8  C   UNL     1       9.133   8.520   6.114  0.00  0.00    +0.191 C 
ATOM      9  C   UNL     1       9.063   7.078   6.658  0.00  0.00    +0.091 C 
ATOM     10  C   UNL     1       9.699   6.441   4.324  0.00  0.00    +0.059 A 
ATOM     11  C   UNL     1       9.430   7.744   3.689  0.00  0.00    +0.164 C 
ATOM     12  C   UNL     1       9.556   6.117   5.650  0.00  0.00    +0.066 A 
ATOM     14  C   UNL     1      10.269   4.356   4.711  0.00  0.00    +0.200 A 
ATOM     16  C   UNL     1       7.963   9.733   4.295  0.00  0.00    +0.254 C 
ENDROOT
BRANCH  16  18
ATOM      1  S   UNL     1       8.862  10.940   1.997  0.00  0.00    -0.092 S 
ATOM     18  C   UNL     1       7.748   9.964   2.859  0.00  0.00    +0.074 A 
ATOM     21  C   UNL     1       6.738   9.495   2.049  0.00  0.00    +0.021 A 
ATOM     25  C   UNL     1       6.879   9.942   0.704  0.00  0.00    +0.008 A 
ATOM     26  C   UNL     1       7.992  10.736   0.536  0.00  0.00    +0.046 A 
ENDBRANCH  16  18
BRANCH   8  15
ATOM      3  O   UNL     1      10.894  10.099   5.648  0.00  0.00    -0.249 OA
ATOM     15  C   UNL     1      10.505   9.115   6.262  0.00  0.00    +0.328 C 
BRANCH  15   2
ATOM      2  O   UNL     1      11.220   8.391   7.169  0.00  0.00    -0.467 OA
ATOM     22  C   UNL     1      12.601   8.195   6.848  0.00  0.00    +0.280 C 
ENDBRANCH  15   2
ENDBRANCH   8  15
BRANCH   6  13
ATOM     13  C   UNL     1      10.484   5.121   2.333  0.00  0.00    +0.158 C 
BRANCH  13  17
ATOM     17  C   UNL     1      11.947   4.843   2.090  0.00  0.00    -0.028 A 
ATOM     19  C   UNL     1      12.371   3.550   1.783  0.00  0.00    +0.005 A 
ATOM     20  C   UNL     1      12.876   5.881   2.172  0.00  0.00    +0.005 A 
ATOM     23  C   UNL     1      13.723   3.294   1.558  0.00  0.00    +0.000 A 
ATOM     24  C   UNL     1      14.229   5.625   1.947  0.00  0.00    +0.000 A 
ATOM     27  C   UNL     1      14.653   4.332   1.639  0.00  0.00    +0.000 A 
ENDBRANCH  13  17
ENDBRANCH   6  13
TORSDOF 5
ENDMDL
MODEL 9
REMARK VINA RESULT:      -5.1      3.822      5.235
REMARK  Name = 26745453
REMARK  6 active torsions:
REMARK  status: ('A' for Active; 'I' for Inactive)
REMARK    1  A    between atoms: O_2  and  C_15
REMARK    2  A    between atoms: O_2  and  C_22
REMARK    3  A    between atoms: N_6  and  C_13
REMARK    4  A    between atoms: C_8  and  C_15
REMARK    5  A    between atoms: C_13  and  C_17
REMARK    6  A    between atoms: C_16  and  C_18
REMARK                            x       y       z     vdW  Elec       q    Type
REMARK                         _______ _______ _______ _____ _____    ______ ____
ROOT
ATOM      4  O   UNL     1      13.797   6.245  20.369  0.00  0.00    -0.269 OA
ATOM      5  N   UNL     1      14.224   8.410  19.574  0.00  0.00    -0.277 N 
ATOM      6  N   UNL     1      15.202  12.007  19.209  0.00  0.00    -0.328 N 
ATOM      7  N   UNL     1      13.023  12.412  19.487  0.00  0.00    -0.240 NA
ATOM      8  C   UNL     1      12.803   8.640  19.206  0.00  0.00    +0.191 C 
ATOM      9  C   UNL     1      12.242  10.010  19.644  0.00  0.00    +0.091 C 
ATOM     10  C   UNL     1      14.596  10.790  19.314  0.00  0.00    +0.059 A 
ATOM     11  C   UNL     1      15.231   9.461  19.245  0.00  0.00    +0.164 C 
ATOM     12  C   UNL     1      13.262  11.065  19.480  0.00  0.00    +0.066 A 
ATOM     14  C   UNL     1      14.214  12.952  19.320  0.00  0.00    +0.200 A 
ATOM     16  C   UNL     1      14.580   7.148  20.081  0.00  0.00    +0.254 C 
ENDROOT
BRANCH  16  18
ATOM      1  S   UNL     1      16.876   6.027  19.073  0.00  0.00    -0.092 S 
ATOM     18  C   UNL     1      16.007   6.862  20.290  0.00  0.00    +0.074 A 
ATOM     21  C   UNL     1      16.803   7.178  21.369  0.00  0.00    +0.021 A 
ATOM     25  C   UNL     1      18.143   6.728  21.196  0.00  0.00    +0.008 A 
ATOM     26  C   UNL     1      18.321   6.086  19.990  0.00  0.00    +0.046 A 
ENDBRANCH  16  18
BRANCH   8  15
ATOM      3  O   UNL     1      13.600   8.784  16.936  0.00  0.00    -0.249 OA
ATOM     15  C   UNL     1      12.723   8.445  17.718  0.00  0.00    +0.328 C 
BRANCH  15   2
ATOM      2  O   UNL     1      11.541   7.845  17.400  0.00  0.00    -0.467 OA
ATOM     22  C   UNL     1      10.673   8.607  16.556  0.00  0.00    +0.280 C 
ENDBRANCH  15   2
ENDBRANCH   8  15
BRANCH   6  13
ATOM     13  C   UNL     1      16.607  12.269  19.014  0.00  0.00    +0.158 C 
BRANCH  13  17
ATOM     17  C   UNL     1      17.418  12.152  20.280  0.00  0.00    -0.028 A 
ATOM     19  C   UNL     1      18.244  11.046  20.481  0.00  0.00    +0.005 A 
ATOM     20  C   UNL     1      17.343  13.151  21.251  0.00  0.00    +0.005 A 
ATOM     23  C   UNL     1      18.994  10.938  21.652  0.00  0.00    +0.000 A 
ATOM     24  C   UNL     1      18.093  13.043  22.423  0.00  0.00    +0.000 A 
ATOM     27  C   UNL     1      18.919  11.937  22.623  0.00  0.00    +0.000 A 
ENDBRANCH  13  17
ENDBRANCH   6  13
TORSDOF 5
ENDMDL
MODEL 10
REMARK VINA RESULT:      -5.1     15.580     18.528
REMARK  Name = 26745453
REMARK  6 active torsions:
REMARK  status: ('A' for Active; 'I' for Inactive)
REMARK    1  A    between atoms: O_2  and  C_15
REMARK    2  A    between atoms: O_2  and  C_22
REMARK    3  A    between atoms: N_6  and  C_13
REMARK    4  A    between atoms: C_8  and  C_15
REMARK    5  A    between atoms: C_13  and  C_17
REMARK    6  A    between atoms: C_16  and  C_18
REMARK                            x       y       z     vdW  Elec       q    Type
REMARK                         _______ _______ _______ _____ _____    ______ ____
ROOT
ATOM      4  O   UNL     1      14.067   7.286   1.160  0.00  0.00    -0.269 OA
ATOM      5  N   UNL     1      12.803   7.592   3.112  0.00  0.00    -0.277 N 
ATOM      6  N   UNL     1      10.154   8.467   5.611  0.00  0.00    -0.328 N 
ATOM      7  N   UNL     1      11.409  10.274   5.999  0.00  0.00    -0.240 NA
ATOM      8  C   UNL     1      13.843   8.442   3.746  0.00  0.00    +0.191 C 
ATOM      9  C   UNL     1      13.303   9.725   4.413  0.00  0.00    +0.091 C 
ATOM     10  C   UNL     1      11.257   8.345   4.820  0.00  0.00    +0.059 A 
ATOM     11  C   UNL     1      11.584   7.241   3.898  0.00  0.00    +0.164 C 
ATOM     12  C   UNL     1      12.012   9.461   5.079  0.00  0.00    +0.066 A 
ATOM     14  C   UNL     1      10.290   9.645   6.301  0.00  0.00    +0.200 A 
ATOM     16  C   UNL     1      13.082   7.035   1.852  0.00  0.00    +0.254 C 
ENDROOT
BRANCH  16  18
ATOM      1  S   UNL     1      12.314   4.404   1.673  0.00  0.00    -0.092 S 
ATOM     18  C   UNL     1      12.128   6.064   1.297  0.00  0.00    +0.074 A 
ATOM     21  C   UNL     1      11.044   6.289   0.476  0.00  0.00    +0.021 A 
ATOM     25  C   UNL     1      10.359   5.084   0.151  0.00  0.00    +0.008 A 
ATOM     26  C   UNL     1      10.945   3.982   0.736  0.00  0.00    +0.046 A 
ENDBRANCH  16  18
BRANCH   8  15
ATOM      3  O   UNL     1      15.253   6.600   4.401  0.00  0.00    -0.249 OA
ATOM     15  C   UNL     1      14.562   7.556   4.724  0.00  0.00    +0.328 C 
BRANCH  15   2
ATOM      2  O   UNL     1      14.320   7.988   5.994  0.00  0.00    -0.467 OA
ATOM     22  C   UNL     1      13.926   6.973   6.923  0.00  0.00    +0.280 C 
ENDBRANCH  15   2
ENDBRANCH   8  15
BRANCH   6  13
ATOM     13  C   UNL     1       9.049   7.546   5.718  0.00  0.00    +0.158 C 
BRANCH  13  17
ATOM     17  C   UNL     1       9.278   6.453   6.733  0.00  0.00    -0.028 A 
ATOM     19  C   UNL     1       9.050   6.699   8.087  0.00  0.00    +0.005 A 
ATOM     20  C   UNL     1       9.718   5.196   6.316  0.00  0.00    +0.005 A 
ATOM     23  C   UNL     1       9.262   5.688   9.025  0.00  0.00    +0.000 A 
ATOM     24  C   UNL     1       9.931   4.186   7.254  0.00  0.00    +0.000 A 
ATOM     27  C   UNL     1       9.702   4.432   8.608  0.00  0.00    +0.000 A 
ENDBRANCH  13  17
ENDBRANCH   6  13
TORSDOF 5
ENDMDL
