MODEL 1
REMARK VINA RESULT:      -7.1      0.000      0.000
REMARK  Name = 28962854
REMARK  11 active torsions:
REMARK  status: ('A' for Active; 'I' for Inactive)
REMARK    1  A    between atoms: O_1  and  C_10
REMARK    2  A    between atoms: O_4  and  C_26
REMARK    3  A    between atoms: O_4  and  C_29
REMARK    4  A    between atoms: N_5  and  C_14
REMARK    5  A    between atoms: N_6  and  C_23
REMARK    6  A    between atoms: C_7  and  C_17
REMARK    7  A    between atoms: C_9  and  C_19
REMARK    8  A    between atoms: C_12  and  C_18
REMARK    9  A    between atoms: C_18  and  C_20
REMARK   10  A    between atoms: C_18  and  C_21
REMARK   11  A    between atoms: C_22  and  C_26
REMARK                            x       y       z     vdW  Elec       q    Type
REMARK                         _______ _______ _______ _____ _____    ______ ____
ROOT
ATOM      7  C   UNL     1      15.818  10.158  21.391  0.00  0.00    -0.027 C 
ATOM      8  C   UNL     1      15.523   8.649  21.686  0.00  0.00    +0.028 C 
ATOM      9  C   UNL     1      16.643   7.732  21.075  0.00  0.00    +0.012 C 
ATOM     10  C   UNL     1      14.064   8.273  21.298  0.00  0.00    +0.122 C 
ATOM     11  C   UNL     1      14.762  11.038  22.101  0.00  0.00    +0.007 C 
ATOM     12  C   UNL     1      13.018   9.222  21.928  0.00  0.00    +0.029 C 
ATOM     13  C   UNL     1      17.203  10.524  21.972  0.00  0.00    +0.009 C 
ATOM     14  C   UNL     1      18.040   8.158  21.609  0.00  0.00    +0.076 C 
ATOM     15  C   UNL     1      13.334  10.699  21.693  0.00  0.00    +0.007 C 
ATOM     16  C   UNL     1      18.327   9.649  21.436  0.00  0.00    +0.023 C 
ATOM     17  C   UNL     1      15.799  10.482  19.876  0.00  0.00    +0.011 C 
ATOM     19  C   UNL     1      16.430   6.234  21.353  0.00  0.00    +0.010 C 
ENDROOT
BRANCH  14   5
ATOM      3  O   UNL     1      19.868   6.313  22.882  0.00  0.00    -0.273 OA
ATOM      5  N   UNL     1      19.105   7.408  20.978  0.00  0.00    -0.310 N 
ATOM     22  C   UNL     1      19.931   6.546  21.677  0.00  0.00    +0.239 C 
ATOM     30  H   UNL     1      19.288   7.576  19.992  0.00  0.00    +0.149 HD
BRANCH  22  26
ATOM     26  C   UNL     1      20.955   5.897  20.771  0.00  0.00    +0.255 C 
BRANCH  26   4
ATOM      4  O   UNL     1      20.586   4.567  20.474  0.00  0.00    -0.374 OA
ATOM     29  C   UNL     1      21.453   3.623  21.096  0.00  0.00    +0.194 C 
ENDBRANCH  26   4
ENDBRANCH  22  26
ENDBRANCH  14   5
BRANCH  10   1
ATOM      1  O   UNL     1      13.766   6.961  21.776  0.00  0.00    -0.391 OA
ATOM     31  H   UNL     1      13.442   6.432  21.028  0.00  0.00    +0.210 HD
ENDBRANCH  10   1
BRANCH  12  18
ATOM     18  C   UNL     1      11.600   8.916  21.429  0.00  0.00    +0.077 C 
ATOM     20  C   UNL     1      10.781   8.268  22.539  0.00  0.00    +0.017 C 
BRANCH  18  21
ATOM      2  O   UNL     1      11.467   6.812  20.238  0.00  0.00    -0.276 OA
ATOM      6  N   UNL     1      11.972   8.733  19.041  0.00  0.00    -0.312 N 
ATOM     21  C   UNL     1      11.666   8.024  20.193  0.00  0.00    +0.216 C 
ATOM     32  H   UNL     1      12.098   9.739  19.089  0.00  0.00    +0.149 HD
BRANCH   6  23
ATOM     23  C   UNL     1      12.091   8.106  17.748  0.00  0.00    +0.073 C 
ATOM     24  C   UNL     1      13.529   7.701  17.449  0.00  0.00    +0.022 C 
ATOM     25  C   UNL     1      11.770   9.073  16.615  0.00  0.00    +0.022 C 
ATOM     27  C   UNL     1      14.192   8.982  16.949  0.00  0.00    +0.002 C 
ATOM     28  C   UNL     1      13.067   9.845  16.375  0.00  0.00    +0.002 C 
ENDBRANCH   6  23
ENDBRANCH  18  21
ENDBRANCH  12  18
TORSDOF 7
ENDMDL
MODEL 2
REMARK VINA RESULT:      -6.7     25.696     29.636
REMARK  Name = 28962854
REMARK  11 active torsions:
REMARK  status: ('A' for Active; 'I' for Inactive)
REMARK    1  A    between atoms: O_1  and  C_10
REMARK    2  A    between atoms: O_4  and  C_26
REMARK    3  A    between atoms: O_4  and  C_29
REMARK    4  A    between atoms: N_5  and  C_14
REMARK    5  A    between atoms: N_6  and  C_23
REMARK    6  A    between atoms: C_7  and  C_17
REMARK    7  A    between atoms: C_9  and  C_19
REMARK    8  A    between atoms: C_12  and  C_18
REMARK    9  A    between atoms: C_18  and  C_20
REMARK   10  A    between atoms: C_18  and  C_21
REMARK   11  A    between atoms: C_22  and  C_26
REMARK                            x       y       z     vdW  Elec       q    Type
REMARK                         _______ _______ _______ _____ _____    ______ ____
ROOT
ATOM      7  C   UNL     1     -15.186   7.329  20.427  0.00  0.00    -0.027 C 
ATOM      8  C   UNL     1     -13.968   6.483  20.930  0.00  0.00    +0.028 C 
ATOM      9  C   UNL     1     -14.307   5.770  22.288  0.00  0.00    +0.012 C 
ATOM     10  C   UNL     1     -12.658   7.321  20.922  0.00  0.00    +0.122 C 
ATOM     11  C   UNL     1     -14.861   7.923  19.036  0.00  0.00    +0.007 C 
ATOM     12  C   UNL     1     -12.393   7.999  19.558  0.00  0.00    +0.029 C 
ATOM     13  C   UNL     1     -16.412   6.401  20.268  0.00  0.00    +0.009 C 
ATOM     14  C   UNL     1     -15.586   4.899  22.137  0.00  0.00    +0.076 C 
ATOM     15  C   UNL     1     -13.600   8.777  19.035  0.00  0.00    +0.007 C 
ATOM     16  C   UNL     1     -16.773   5.661  21.549  0.00  0.00    +0.023 C 
ATOM     17  C   UNL     1     -15.543   8.487  21.393  0.00  0.00    +0.011 C 
ATOM     19  C   UNL     1     -13.160   4.896  22.827  0.00  0.00    +0.010 C 
ENDROOT
BRANCH  14   5
ATOM      3  O   UNL     1     -16.667   2.252  22.575  0.00  0.00    -0.273 OA
ATOM      5  N   UNL     1     -15.992   4.320  23.399  0.00  0.00    -0.310 N 
ATOM     22  C   UNL     1     -16.501   3.037  23.506  0.00  0.00    +0.239 C 
ATOM     30  H   UNL     1     -15.958   4.907  24.228  0.00  0.00    +0.149 HD
BRANCH  22  26
ATOM     26  C   UNL     1     -16.842   2.690  24.940  0.00  0.00    +0.255 C 
BRANCH  26   4
ATOM      4  O   UNL     1     -16.400   1.387  25.256  0.00  0.00    -0.374 OA
ATOM     29  C   UNL     1     -16.861   0.966  26.536  0.00  0.00    +0.194 C 
ENDBRANCH  26   4
ENDBRANCH  22  26
ENDBRANCH  14   5
BRANCH  10   1
ATOM      1  O   UNL     1     -11.543   6.466  21.176  0.00  0.00    -0.391 OA
ATOM     31  H   UNL     1     -11.883   5.585  21.409  0.00  0.00    +0.210 HD
ENDBRANCH  10   1
BRANCH  12  18
ATOM     18  C   UNL     1     -11.171   8.924  19.610  0.00  0.00    +0.077 C 
ATOM     20  C   UNL     1     -11.542  10.249  20.266  0.00  0.00    +0.017 C 
BRANCH  18  21
ATOM      2  O   UNL     1     -10.416   8.207  17.423  0.00  0.00    -0.276 OA
ATOM      6  N   UNL     1     -10.380  10.472  17.921  0.00  0.00    -0.312 N 
ATOM     21  C   UNL     1     -10.619   9.135  18.203  0.00  0.00    +0.216 C 
ATOM     32  H   UNL     1     -10.599  11.178  18.616  0.00  0.00    +0.149 HD
BRANCH   6  23
ATOM     23  C   UNL     1      -9.856  10.921  16.654  0.00  0.00    +0.073 C 
ATOM     24  C   UNL     1      -9.216  12.298  16.767  0.00  0.00    +0.022 C 
ATOM     25  C   UNL     1     -10.961  11.144  15.629  0.00  0.00    +0.022 C 
ATOM     27  C   UNL     1     -10.387  13.274  16.688  0.00  0.00    +0.002 C 
ATOM     28  C   UNL     1     -11.492  12.547  15.920  0.00  0.00    +0.002 C 
ENDBRANCH   6  23
ENDBRANCH  18  21
ENDBRANCH  12  18
TORSDOF 7
ENDMDL
MODEL 3
REMARK VINA RESULT:      -6.7     27.105     29.971
REMARK  Name = 28962854
REMARK  11 active torsions:
REMARK  status: ('A' for Active; 'I' for Inactive)
REMARK    1  A    between atoms: O_1  and  C_10
REMARK    2  A    between atoms: O_4  and  C_26
REMARK    3  A    between atoms: O_4  and  C_29
REMARK    4  A    between atoms: N_5  and  C_14
REMARK    5  A    between atoms: N_6  and  C_23
REMARK    6  A    between atoms: C_7  and  C_17
REMARK    7  A    between atoms: C_9  and  C_19
REMARK    8  A    between atoms: C_12  and  C_18
REMARK    9  A    between atoms: C_18  and  C_20
REMARK   10  A    between atoms: C_18  and  C_21
REMARK   11  A    between atoms: C_22  and  C_26
REMARK                            x       y       z     vdW  Elec       q    Type
REMARK                         _______ _______ _______ _____ _____    ______ ____
ROOT
ATOM      7  C   UNL     1      -3.712 -10.543  10.426  0.00  0.00    -0.027 C 
ATOM      8  C   UNL     1      -5.036 -10.266  11.215  0.00  0.00    +0.028 C 
ATOM      9  C   UNL     1      -5.877  -9.139  10.514  0.00  0.00    +0.012 C 
ATOM     10  C   UNL     1      -4.755 -10.048  12.729  0.00  0.00    +0.122 C 
ATOM     11  C   UNL     1      -2.965 -11.732  11.076  0.00  0.00    +0.007 C 
ATOM     12  C   UNL     1      -3.917 -11.191  13.349  0.00  0.00    +0.029 C 
ATOM     13  C   UNL     1      -4.064 -10.944   8.976  0.00  0.00    +0.009 C 
ATOM     14  C   UNL     1      -6.160  -9.519   9.034  0.00  0.00    +0.076 C 
ATOM     15  C   UNL     1      -2.653 -11.505  12.549  0.00  0.00    +0.007 C 
ATOM     16  C   UNL     1      -4.903  -9.899   8.253  0.00  0.00    +0.023 C 
ATOM     17  C   UNL     1      -2.767  -9.314  10.402  0.00  0.00    +0.011 C 
ATOM     19  C   UNL     1      -7.209  -8.835  11.223  0.00  0.00    +0.010 C 
ENDROOT
BRANCH  14   5
ATOM      3  O   UNL     1      -8.512  -9.742   7.364  0.00  0.00    -0.273 OA
ATOM      5  N   UNL     1      -6.834  -8.451   8.326  0.00  0.00    -0.310 N 
ATOM     22  C   UNL     1      -7.959  -8.660   7.548  0.00  0.00    +0.239 C 
ATOM     30  H   UNL     1      -6.421  -7.523   8.357  0.00  0.00    +0.149 HD
BRANCH  22  26
ATOM     26  C   UNL     1      -8.455  -7.372   6.926  0.00  0.00    +0.255 C 
BRANCH  26   4
ATOM      4  O   UNL     1      -8.119  -6.266   7.737  0.00  0.00    -0.374 OA
ATOM     29  C   UNL     1      -9.269  -5.680   8.341  0.00  0.00    +0.194 C 
ENDBRANCH  26   4
ENDBRANCH  22  26
ENDBRANCH  14   5
BRANCH  10   1
ATOM      1  O   UNL     1      -5.992 -10.015  13.443  0.00  0.00    -0.391 OA
ATOM     31  H   UNL     1      -6.413 -10.887  13.360  0.00  0.00    +0.210 HD
ENDBRANCH  10   1
BRANCH  12  18
ATOM     18  C   UNL     1      -3.541 -10.894  14.806  0.00  0.00    +0.077 C 
ATOM     20  C   UNL     1      -2.041 -10.649  14.922  0.00  0.00    +0.017 C 
BRANCH  18  21
ATOM      2  O   UNL     1      -3.987 -13.216  15.329  0.00  0.00    -0.276 OA
ATOM      6  N   UNL     1      -4.384 -11.616  16.960  0.00  0.00    -0.312 N 
ATOM     21  C   UNL     1      -3.987 -12.045  15.702  0.00  0.00    +0.216 C 
ATOM     32  H   UNL     1      -4.329 -10.631  17.195  0.00  0.00    +0.149 HD
BRANCH   6  23
ATOM     23  C   UNL     1      -4.848 -12.522  17.983  0.00  0.00    +0.073 C 
ATOM     24  C   UNL     1      -6.361 -12.693  17.937  0.00  0.00    +0.022 C 
ATOM     25  C   UNL     1      -4.613 -11.968  19.383  0.00  0.00    +0.022 C 
ATOM     27  C   UNL     1      -6.908 -11.480  18.687  0.00  0.00    +0.002 C 
ATOM     28  C   UNL     1      -5.799 -11.042  19.646  0.00  0.00    +0.002 C 
ENDBRANCH   6  23
ENDBRANCH  18  21
ENDBRANCH  12  18
TORSDOF 7
ENDMDL
MODEL 4
REMARK VINA RESULT:      -6.7     27.195     29.519
REMARK  Name = 28962854
REMARK  11 active torsions:
REMARK  status: ('A' for Active; 'I' for Inactive)
REMARK    1  A    between atoms: O_1  and  C_10
REMARK    2  A    between atoms: O_4  and  C_26
REMARK    3  A    between atoms: O_4  and  C_29
REMARK    4  A    between atoms: N_5  and  C_14
REMARK    5  A    between atoms: N_6  and  C_23
REMARK    6  A    between atoms: C_7  and  C_17
REMARK    7  A    between atoms: C_9  and  C_19
REMARK    8  A    between atoms: C_12  and  C_18
REMARK    9  A    between atoms: C_18  and  C_20
REMARK   10  A    between atoms: C_18  and  C_21
REMARK   11  A    between atoms: C_22  and  C_26
REMARK                            x       y       z     vdW  Elec       q    Type
REMARK                         _______ _______ _______ _____ _____    ______ ____
ROOT
ATOM      7  C   UNL     1      -4.699 -11.025  16.826  0.00  0.00    -0.027 C 
ATOM      8  C   UNL     1      -5.541 -10.431  15.648  0.00  0.00    +0.028 C 
ATOM      9  C   UNL     1      -7.079 -10.570  15.935  0.00  0.00    +0.012 C 
ATOM     10  C   UNL     1      -5.063 -10.989  14.276  0.00  0.00    +0.122 C 
ATOM     11  C   UNL     1      -3.195 -10.770  16.565  0.00  0.00    +0.007 C 
ATOM     12  C   UNL     1      -3.540 -10.825  14.065  0.00  0.00    +0.029 C 
ATOM     13  C   UNL     1      -5.079 -10.297  18.135  0.00  0.00    +0.009 C 
ATOM     14  C   UNL     1      -7.437  -9.899  17.291  0.00  0.00    +0.076 C 
ATOM     15  C   UNL     1      -2.716 -11.350  15.241  0.00  0.00    +0.007 C 
ATOM     16  C   UNL     1      -6.566 -10.375  18.453  0.00  0.00    +0.023 C 
ATOM     17  C   UNL     1      -4.922 -12.548  17.006  0.00  0.00    +0.011 C 
ATOM     19  C   UNL     1      -7.968  -9.979  14.827  0.00  0.00    +0.010 C 
ENDROOT
BRANCH  14   5
ATOM      3  O   UNL     1      -9.517  -7.896  17.463  0.00  0.00    -0.273 OA
ATOM      5  N   UNL     1      -8.826 -10.110  17.643  0.00  0.00    -0.310 N 
ATOM     22  C   UNL     1      -9.749  -9.080  17.697  0.00  0.00    +0.239 C 
ATOM     30  H   UNL     1      -9.112 -11.044  17.920  0.00  0.00    +0.149 HD
BRANCH  22  26
ATOM     26  C   UNL     1     -11.122  -9.583  18.090  0.00  0.00    +0.255 C 
BRANCH  26   4
ATOM      4  O   UNL     1     -11.133 -10.002  19.438  0.00  0.00    -0.374 OA
ATOM     29  C   UNL     1     -12.436  -9.922  20.009  0.00  0.00    +0.194 C 
ENDBRANCH  26   4
ENDBRANCH  22  26
ENDBRANCH  14   5
BRANCH  10   1
ATOM      1  O   UNL     1      -5.701 -10.269  13.221  0.00  0.00    -0.391 OA
ATOM     31  H   UNL     1      -5.149  -9.500  13.001  0.00  0.00    +0.210 HD
ENDBRANCH  10   1
BRANCH  12  18
ATOM     18  C   UNL     1      -3.070 -11.496  12.769  0.00  0.00    +0.077 C 
ATOM     20  C   UNL     1      -1.833 -12.346  13.037  0.00  0.00    +0.017 C 
BRANCH  18  21
ATOM      2  O   UNL     1      -1.705  -9.888  11.579  0.00  0.00    -0.276 OA
ATOM      6  N   UNL     1      -3.909 -10.178  10.917  0.00  0.00    -0.312 N 
ATOM     21  C   UNL     1      -2.797 -10.438  11.705  0.00  0.00    +0.216 C 
ATOM     32  H   UNL     1      -4.767 -10.695  11.074  0.00  0.00    +0.149 HD
BRANCH   6  23
ATOM     23  C   UNL     1      -3.897  -9.213   9.845  0.00  0.00    +0.073 C 
ATOM     24  C   UNL     1      -4.834  -8.047  10.127  0.00  0.00    +0.022 C 
ATOM     25  C   UNL     1      -4.457  -9.793   8.552  0.00  0.00    +0.022 C 
ATOM     27  C   UNL     1      -6.215  -8.557   9.723  0.00  0.00    +0.002 C 
ATOM     28  C   UNL     1      -5.973  -9.650   8.680  0.00  0.00    +0.002 C 
ENDBRANCH   6  23
ENDBRANCH  18  21
ENDBRANCH  12  18
TORSDOF 7
ENDMDL
MODEL 5
REMARK VINA RESULT:      -6.5     24.081     28.289
REMARK  Name = 28962854
REMARK  11 active torsions:
REMARK  status: ('A' for Active; 'I' for Inactive)
REMARK    1  A    between atoms: O_1  and  C_10
REMARK    2  A    between atoms: O_4  and  C_26
REMARK    3  A    between atoms: O_4  and  C_29
REMARK    4  A    between atoms: N_5  and  C_14
REMARK    5  A    between atoms: N_6  and  C_23
REMARK    6  A    between atoms: C_7  and  C_17
REMARK    7  A    between atoms: C_9  and  C_19
REMARK    8  A    between atoms: C_12  and  C_18
REMARK    9  A    between atoms: C_18  and  C_20
REMARK   10  A    between atoms: C_18  and  C_21
REMARK   11  A    between atoms: C_22  and  C_26
REMARK                            x       y       z     vdW  Elec       q    Type
REMARK                         _______ _______ _______ _____ _____    ______ ____
ROOT
ATOM      7  C   UNL     1     -11.414   8.278  19.578  0.00  0.00    -0.027 C 
ATOM      8  C   UNL     1     -12.696   9.175  19.585  0.00  0.00    +0.028 C 
ATOM      9  C   UNL     1     -13.992   8.296  19.719  0.00  0.00    +0.012 C 
ATOM     10  C   UNL     1     -12.689  10.179  18.396  0.00  0.00    +0.122 C 
ATOM     11  C   UNL     1     -10.155   9.177  19.560  0.00  0.00    +0.007 C 
ATOM     12  C   UNL     1     -11.382  11.003  18.322  0.00  0.00    +0.029 C 
ATOM     13  C   UNL     1     -11.376   7.442  20.878  0.00  0.00    +0.009 C 
ATOM     14  C   UNL     1     -13.909   7.404  20.990  0.00  0.00    +0.076 C 
ATOM     15  C   UNL     1     -10.126  10.134  18.375  0.00  0.00    +0.007 C 
ATOM     16  C   UNL     1     -12.621   6.588  21.076  0.00  0.00    +0.023 C 
ATOM     17  C   UNL     1     -11.362   7.325  18.357  0.00  0.00    +0.011 C 
ATOM     19  C   UNL     1     -15.291   9.119  19.761  0.00  0.00    +0.010 C 
ENDROOT
BRANCH  14   5
ATOM      3  O   UNL     1     -15.681   7.045  23.248  0.00  0.00    -0.273 OA
ATOM      5  N   UNL     1     -15.034   6.498  21.082  0.00  0.00    -0.310 N 
ATOM     22  C   UNL     1     -15.826   6.399  22.213  0.00  0.00    +0.239 C 
ATOM     30  H   UNL     1     -15.205   5.867  20.304  0.00  0.00    +0.149 HD
BRANCH  22  26
ATOM     26  C   UNL     1     -16.928   5.376  22.034  0.00  0.00    +0.255 C 
BRANCH  26   4
ATOM      4  O   UNL     1     -16.402   4.066  22.074  0.00  0.00    -0.374 OA
ATOM     29  C   UNL     1     -16.013   3.690  23.392  0.00  0.00    +0.194 C 
ENDBRANCH  26   4
ENDBRANCH  22  26
ENDBRANCH  14   5
BRANCH  10   1
ATOM      1  O   UNL     1     -13.754  11.116  18.557  0.00  0.00    -0.391 OA
ATOM     31  H   UNL     1     -14.461  10.881  17.933  0.00  0.00    +0.210 HD
ENDBRANCH  10   1
BRANCH  12  18
ATOM     18  C   UNL     1     -11.339  11.889  17.072  0.00  0.00    +0.077 C 
ATOM     20  C   UNL     1     -10.769  11.108  15.893  0.00  0.00    +0.017 C 
BRANCH  18  21
ATOM      2  O   UNL     1     -10.778  13.912  18.280  0.00  0.00    -0.276 OA
ATOM      6  N   UNL     1      -9.476  13.312  16.456  0.00  0.00    -0.312 N 
ATOM     21  C   UNL     1     -10.521  13.146  17.354  0.00  0.00    +0.216 C 
ATOM     32  H   UNL     1      -9.320  12.617  15.734  0.00  0.00    +0.149 HD
BRANCH   6  23
ATOM     23  C   UNL     1      -8.564  14.427  16.519  0.00  0.00    +0.073 C 
ATOM     24  C   UNL     1      -8.178  14.917  15.130  0.00  0.00    +0.022 C 
ATOM     25  C   UNL     1      -7.222  14.032  17.123  0.00  0.00    +0.022 C 
ATOM     27  C   UNL     1      -7.069  13.967  14.682  0.00  0.00    +0.002 C 
ATOM     28  C   UNL     1      -6.428  13.432  15.963  0.00  0.00    +0.002 C 
ENDBRANCH   6  23
ENDBRANCH  18  21
ENDBRANCH  12  18
TORSDOF 7
ENDMDL
MODEL 6
REMARK VINA RESULT:      -6.3     15.034     17.672
REMARK  Name = 28962854
REMARK  11 active torsions:
REMARK  status: ('A' for Active; 'I' for Inactive)
REMARK    1  A    between atoms: O_1  and  C_10
REMARK    2  A    between atoms: O_4  and  C_26
REMARK    3  A    between atoms: O_4  and  C_29
REMARK    4  A    between atoms: N_5  and  C_14
REMARK    5  A    between atoms: N_6  and  C_23
REMARK    6  A    between atoms: C_7  and  C_17
REMARK    7  A    between atoms: C_9  and  C_19
REMARK    8  A    between atoms: C_12  and  C_18
REMARK    9  A    between atoms: C_18  and  C_20
REMARK   10  A    between atoms: C_18  and  C_21
REMARK   11  A    between atoms: C_22  and  C_26
REMARK                            x       y       z     vdW  Elec       q    Type
REMARK                         _______ _______ _______ _____ _____    ______ ____
ROOT
ATOM      7  C   UNL     1       9.850   6.445   6.132  0.00  0.00    -0.027 C 
ATOM      8  C   UNL     1      10.036   7.349   4.867  0.00  0.00    +0.028 C 
ATOM      9  C   UNL     1      11.097   6.728   3.888  0.00  0.00    +0.012 C 
ATOM     10  C   UNL     1      10.282   8.832   5.266  0.00  0.00    +0.122 C 
ATOM     11  C   UNL     1       8.721   7.024   7.017  0.00  0.00    +0.007 C 
ATOM     12  C   UNL     1       9.205   9.374   6.235  0.00  0.00    +0.029 C 
ATOM     13  C   UNL     1       9.418   5.031   5.681  0.00  0.00    +0.009 C 
ATOM     14  C   UNL     1      10.690   5.278   3.501  0.00  0.00    +0.076 C 
ATOM     15  C   UNL     1       8.978   8.463   7.442  0.00  0.00    +0.007 C 
ATOM     16  C   UNL     1      10.396   4.388   4.708  0.00  0.00    +0.023 C 
ATOM     17  C   UNL     1      11.143   6.337   6.980  0.00  0.00    +0.011 C 
ATOM     19  C   UNL     1      11.309   7.553   2.607  0.00  0.00    +0.010 C 
ENDROOT
BRANCH  14   5
ATOM      3  O   UNL     1      10.316   3.970   0.949  0.00  0.00    -0.273 OA
ATOM      5  N   UNL     1      11.704   4.635   2.693  0.00  0.00    -0.310 N 
ATOM     22  C   UNL     1      11.423   4.034   1.478  0.00  0.00    +0.239 C 
ATOM     30  H   UNL     1      12.646   4.572   3.068  0.00  0.00    +0.149 HD
BRANCH  22  26
ATOM     26  C   UNL     1      12.667   3.442   0.849  0.00  0.00    +0.255 C 
BRANCH  26   4
ATOM      4  O   UNL     1      13.580   3.029   1.843  0.00  0.00    -0.374 OA
ATOM     29  C   UNL     1      14.893   3.526   1.599  0.00  0.00    +0.194 C 
ENDBRANCH  26   4
ENDBRANCH  22  26
ENDBRANCH  14   5
BRANCH  10   1
ATOM      1  O   UNL     1      10.231   9.655   4.099  0.00  0.00    -0.391 OA
ATOM     31  H   UNL     1      10.704   9.196   3.385  0.00  0.00    +0.210 HD
ENDBRANCH  10   1
BRANCH  12  18
ATOM     18  C   UNL     1       9.536  10.791   6.718  0.00  0.00    +0.077 C 
ATOM     20  C   UNL     1       9.501  10.849   8.241  0.00  0.00    +0.017 C 
BRANCH  18  21
ATOM      2  O   UNL     1       8.550  12.981   6.406  0.00  0.00    -0.276 OA
ATOM      6  N   UNL     1       7.710  11.201   5.178  0.00  0.00    -0.312 N 
ATOM     21  C   UNL     1       8.561  11.790   6.102  0.00  0.00    +0.216 C 
ATOM     32  H   UNL     1       7.804  10.213   4.968  0.00  0.00    +0.149 HD
BRANCH   6  23
ATOM     23  C   UNL     1       6.700  11.943   4.464  0.00  0.00    +0.073 C 
ATOM     24  C   UNL     1       5.388  11.175   4.386  0.00  0.00    +0.022 C 
ATOM     25  C   UNL     1       7.067  12.138   2.998  0.00  0.00    +0.022 C 
ATOM     27  C   UNL     1       5.578  10.208   3.219  0.00  0.00    +0.002 C 
ATOM     28  C   UNL     1       6.626  10.848   2.307  0.00  0.00    +0.002 C 
ENDBRANCH   6  23
ENDBRANCH  18  21
ENDBRANCH  12  18
TORSDOF 7
ENDMDL
MODEL 7
REMARK VINA RESULT:      -6.3     27.364     30.194
REMARK  Name = 28962854
REMARK  11 active torsions:
REMARK  status: ('A' for Active; 'I' for Inactive)
REMARK    1  A    between atoms: O_1  and  C_10
REMARK    2  A    between atoms: O_4  and  C_26
REMARK    3  A    between atoms: O_4  and  C_29
REMARK    4  A    between atoms: N_5  and  C_14
REMARK    5  A    between atoms: N_6  and  C_23
REMARK    6  A    between atoms: C_7  and  C_17
REMARK    7  A    between atoms: C_9  and  C_19
REMARK    8  A    between atoms: C_12  and  C_18
REMARK    9  A    between atoms: C_18  and  C_20
REMARK   10  A    between atoms: C_18  and  C_21
REMARK   11  A    between atoms: C_22  and  C_26
REMARK                            x       y       z     vdW  Elec       q    Type
REMARK                         _______ _______ _______ _____ _____    ______ ____
ROOT
ATOM      7  C   UNL     1      -4.967 -11.196  17.794  0.00  0.00    -0.027 C 
ATOM      8  C   UNL     1      -5.821 -12.135  16.878  0.00  0.00    +0.028 C 
ATOM      9  C   UNL     1      -6.546 -13.238  17.732  0.00  0.00    +0.012 C 
ATOM     10  C   UNL     1      -4.986 -12.661  15.675  0.00  0.00    +0.122 C 
ATOM     11  C   UNL     1      -4.360 -10.057  16.940  0.00  0.00    +0.007 C 
ATOM     12  C   UNL     1      -4.297 -11.523  14.887  0.00  0.00    +0.029 C 
ATOM     13  C   UNL     1      -5.889 -10.550  18.853  0.00  0.00    +0.009 C 
ATOM     14  C   UNL     1      -7.411 -12.578  18.842  0.00  0.00    +0.076 C 
ATOM     15  C   UNL     1      -3.510 -10.568  15.784  0.00  0.00    +0.007 C 
ATOM     16  C   UNL     1      -6.639 -11.572  19.695  0.00  0.00    +0.023 C 
ATOM     17  C   UNL     1      -3.816 -11.949  18.509  0.00  0.00    +0.011 C 
ATOM     19  C   UNL     1      -7.428 -14.181  16.896  0.00  0.00    +0.010 C 
ENDROOT
BRANCH  14   5
ATOM      3  O   UNL     1      -9.942 -12.392  20.230  0.00  0.00    -0.273 OA
ATOM      5  N   UNL     1      -8.001 -13.567  19.719  0.00  0.00    -0.310 N 
ATOM     22  C   UNL     1      -9.224 -13.383  20.339  0.00  0.00    +0.239 C 
ATOM     30  H   UNL     1      -7.460 -14.400  19.933  0.00  0.00    +0.149 HD
BRANCH  22  26
ATOM     26  C   UNL     1      -9.598 -14.573  21.198  0.00  0.00    +0.255 C 
BRANCH  26   4
ATOM      4  O   UNL     1     -10.721 -14.276  22.000  0.00  0.00    -0.374 OA
ATOM     29  C   UNL     1     -10.622 -14.866  23.293  0.00  0.00    +0.194 C 
ENDBRANCH  26   4
ENDBRANCH  22  26
ENDBRANCH  14   5
BRANCH  10   1
ATOM      1  O   UNL     1      -5.848 -13.332  14.754  0.00  0.00    -0.391 OA
ATOM     31  H   UNL     1      -6.467 -12.678  14.388  0.00  0.00    +0.210 HD
ENDBRANCH  10   1
BRANCH  12  18
ATOM     18  C   UNL     1      -3.376 -12.069  13.789  0.00  0.00    +0.077 C 
ATOM     20  C   UNL     1      -2.119 -12.670  14.407  0.00  0.00    +0.017 C 
BRANCH  18  21
ATOM      2  O   UNL     1      -1.898 -10.505  12.679  0.00  0.00    -0.276 OA
ATOM      6  N   UNL     1      -4.136 -10.537  12.072  0.00  0.00    -0.312 N 
ATOM     21  C   UNL     1      -3.033 -10.959  12.800  0.00  0.00    +0.216 C 
ATOM     32  H   UNL     1      -5.035 -10.984  12.217  0.00  0.00    +0.149 HD
BRANCH   6  23
ATOM     23  C   UNL     1      -4.061  -9.496  11.076  0.00  0.00    +0.073 C 
ATOM     24  C   UNL     1      -5.350  -8.686  11.010  0.00  0.00    +0.022 C 
ATOM     25  C   UNL     1      -3.946 -10.063   9.667  0.00  0.00    +0.022 C 
ATOM     27  C   UNL     1      -6.285  -9.523  10.142  0.00  0.00    +0.002 C 
ATOM     28  C   UNL     1      -5.382 -10.377   9.249  0.00  0.00    +0.002 C 
ENDBRANCH   6  23
ENDBRANCH  18  21
ENDBRANCH  12  18
TORSDOF 7
ENDMDL
MODEL 8
REMARK VINA RESULT:      -6.1     27.573     30.131
REMARK  Name = 28962854
REMARK  11 active torsions:
REMARK  status: ('A' for Active; 'I' for Inactive)
REMARK    1  A    between atoms: O_1  and  C_10
REMARK    2  A    between atoms: O_4  and  C_26
REMARK    3  A    between atoms: O_4  and  C_29
REMARK    4  A    between atoms: N_5  and  C_14
REMARK    5  A    between atoms: N_6  and  C_23
REMARK    6  A    between atoms: C_7  and  C_17
REMARK    7  A    between atoms: C_9  and  C_19
REMARK    8  A    between atoms: C_12  and  C_18
REMARK    9  A    between atoms: C_18  and  C_20
REMARK   10  A    between atoms: C_18  and  C_21
REMARK   11  A    between atoms: C_22  and  C_26
REMARK                            x       y       z     vdW  Elec       q    Type
REMARK                         _______ _______ _______ _____ _____    ______ ____
ROOT
ATOM      7  C   UNL     1      -3.247 -10.294  11.331  0.00  0.00    -0.027 C 
ATOM      8  C   UNL     1      -3.301 -11.737  10.727  0.00  0.00    +0.028 C 
ATOM      9  C   UNL     1      -4.510 -11.882   9.734  0.00  0.00    +0.012 C 
ATOM     10  C   UNL     1      -3.217 -12.818  11.842  0.00  0.00    +0.122 C 
ATOM     11  C   UNL     1      -1.984 -10.151  12.213  0.00  0.00    +0.007 C 
ATOM     12  C   UNL     1      -2.009 -12.609  12.784  0.00  0.00    +0.029 C 
ATOM     13  C   UNL     1      -3.136  -9.269  10.179  0.00  0.00    +0.009 C 
ATOM     14  C   UNL     1      -4.428 -10.798   8.622  0.00  0.00    +0.076 C 
ATOM     15  C   UNL     1      -1.919 -11.184  13.330  0.00  0.00    +0.007 C 
ATOM     16  C   UNL     1      -4.269  -9.379   9.168  0.00  0.00    +0.023 C 
ATOM     17  C   UNL     1      -4.495  -9.963  12.190  0.00  0.00    +0.011 C 
ATOM     19  C   UNL     1      -4.606 -13.271   9.080  0.00  0.00    +0.010 C 
ENDROOT
BRANCH  14   5
ATOM      3  O   UNL     1      -4.472 -11.330   5.779  0.00  0.00    -0.273 OA
ATOM      5  N   UNL     1      -5.588 -10.829   7.757  0.00  0.00    -0.310 N 
ATOM     22  C   UNL     1      -5.505 -11.095   6.402  0.00  0.00    +0.239 C 
ATOM     30  H   UNL     1      -6.490 -10.583   8.157  0.00  0.00    +0.149 HD
BRANCH  22  26
ATOM     26  C   UNL     1      -6.868 -11.064   5.743  0.00  0.00    +0.255 C 
BRANCH  26   4
ATOM      4  O   UNL     1      -7.540  -9.860   6.044  0.00  0.00    -0.374 OA
ATOM     29  C   UNL     1      -7.125  -8.793   5.196  0.00  0.00    +0.194 C 
ENDBRANCH  26   4
ENDBRANCH  22  26
ENDBRANCH  14   5
BRANCH  10   1
ATOM      1  O   UNL     1      -3.052 -14.106  11.246  0.00  0.00    -0.391 OA
ATOM     31  H   UNL     1      -2.099 -14.275  11.150  0.00  0.00    +0.210 HD
ENDBRANCH  10   1
BRANCH  12  18
ATOM     18  C   UNL     1      -2.019 -13.604  13.951  0.00  0.00    +0.077 C 
ATOM     20  C   UNL     1      -1.487 -14.957  13.491  0.00  0.00    +0.017 C 
BRANCH  18  21
ATOM      2  O   UNL     1      -4.240 -14.556  14.111  0.00  0.00    -0.276 OA
ATOM      6  N   UNL     1      -3.679 -12.804  15.525  0.00  0.00    -0.312 N 
ATOM     21  C   UNL     1      -3.430 -13.726  14.518  0.00  0.00    +0.216 C 
ATOM     32  H   UNL     1      -2.944 -12.169  15.817  0.00  0.00    +0.149 HD
BRANCH   6  23
ATOM     23  C   UNL     1      -4.944 -12.724  16.213  0.00  0.00    +0.073 C 
ATOM     24  C   UNL     1      -5.513 -11.312  16.181  0.00  0.00    +0.022 C 
ATOM     25  C   UNL     1      -4.798 -12.996  17.705  0.00  0.00    +0.022 C 
ATOM     27  C   UNL     1      -4.792 -10.581  17.311  0.00  0.00    +0.002 C 
ATOM     28  C   UNL     1      -4.370 -11.660  18.310  0.00  0.00    +0.002 C 
ENDBRANCH   6  23
ENDBRANCH  18  21
ENDBRANCH  12  18
TORSDOF 7
ENDMDL
MODEL 9
REMARK VINA RESULT:      -6.0     27.289     30.270
REMARK  Name = 28962854
REMARK  11 active torsions:
REMARK  status: ('A' for Active; 'I' for Inactive)
REMARK    1  A    between atoms: O_1  and  C_10
REMARK    2  A    between atoms: O_4  and  C_26
REMARK    3  A    between atoms: O_4  and  C_29
REMARK    4  A    between atoms: N_5  and  C_14
REMARK    5  A    between atoms: N_6  and  C_23
REMARK    6  A    between atoms: C_7  and  C_17
REMARK    7  A    between atoms: C_9  and  C_19
REMARK    8  A    between atoms: C_12  and  C_18
REMARK    9  A    between atoms: C_18  and  C_20
REMARK   10  A    between atoms: C_18  and  C_21
REMARK   11  A    between atoms: C_22  and  C_26
REMARK                            x       y       z     vdW  Elec       q    Type
REMARK                         _______ _______ _______ _____ _____    ______ ____
ROOT
ATOM      7  C   UNL     1      -6.727 -11.454  18.794  0.00  0.00    -0.027 C 
ATOM      8  C   UNL     1      -7.052 -10.979  17.339  0.00  0.00    +0.028 C 
ATOM      9  C   UNL     1      -5.764 -10.425  16.631  0.00  0.00    +0.012 C 
ATOM     10  C   UNL     1      -8.287 -10.033  17.318  0.00  0.00    +0.122 C 
ATOM     11  C   UNL     1      -7.987 -12.097  19.421  0.00  0.00    +0.007 C 
ATOM     12  C   UNL     1      -9.514 -10.639  18.038  0.00  0.00    +0.029 C 
ATOM     13  C   UNL     1      -5.625 -12.537  18.736  0.00  0.00    +0.009 C 
ATOM     14  C   UNL     1      -4.638 -11.497  16.645  0.00  0.00    +0.076 C 
ATOM     15  C   UNL     1      -9.186 -11.159  19.438  0.00  0.00    +0.007 C 
ATOM     16  C   UNL     1      -4.359 -12.066  18.036  0.00  0.00    +0.023 C 
ATOM     17  C   UNL     1      -6.254 -10.293  19.706  0.00  0.00    +0.011 C 
ATOM     19  C   UNL     1      -6.007  -9.966  15.183  0.00  0.00    +0.010 C 
ENDROOT
BRANCH  14   5
ATOM      3  O   UNL     1      -2.851 -12.823  14.796  0.00  0.00    -0.273 OA
ATOM      5  N   UNL     1      -3.399 -10.979  16.104  0.00  0.00    -0.310 N 
ATOM     22  C   UNL     1      -2.610 -11.695  15.220  0.00  0.00    +0.239 C 
ATOM     30  H   UNL     1      -3.070 -10.078  16.440  0.00  0.00    +0.149 HD
BRANCH  22  26
ATOM     26  C   UNL     1      -1.377 -10.915  14.817  0.00  0.00    +0.255 C 
BRANCH  26   4
ATOM      4  O   UNL     1      -1.712  -9.885  13.912  0.00  0.00    -0.374 OA
ATOM     29  C   UNL     1      -1.902 -10.379  12.589  0.00  0.00    +0.194 C 
ENDBRANCH  26   4
ENDBRANCH  22  26
ENDBRANCH  14   5
BRANCH  10   1
ATOM      1  O   UNL     1      -8.683  -9.796  15.966  0.00  0.00    -0.391 OA
ATOM     31  H   UNL     1      -8.524  -8.859  15.763  0.00  0.00    +0.210 HD
ENDBRANCH  10   1
BRANCH  12  18
ATOM     18  C   UNL     1     -10.675  -9.642  18.121  0.00  0.00    +0.077 C 
ATOM     20  C   UNL     1     -11.354  -9.737  19.482  0.00  0.00    +0.017 C 
BRANCH  18  21
ATOM      2  O   UNL     1     -11.590 -10.883  16.253  0.00  0.00    -0.276 OA
ATOM      6  N   UNL     1     -12.631  -8.911  16.890  0.00  0.00    -0.312 N 
ATOM     21  C   UNL     1     -11.663  -9.900  16.987  0.00  0.00    +0.216 C 
ATOM     32  H   UNL     1     -12.633  -8.144  17.554  0.00  0.00    +0.149 HD
BRANCH   6  23
ATOM     23  C   UNL     1     -13.674  -8.935  15.894  0.00  0.00    +0.073 C 
ATOM     24  C   UNL     1     -13.428  -7.908  14.797  0.00  0.00    +0.022 C 
ATOM     25  C   UNL     1     -15.018  -8.502  16.467  0.00  0.00    +0.022 C 
ATOM     27  C   UNL     1     -13.941  -6.593  15.379  0.00  0.00    +0.002 C 
ATOM     28  C   UNL     1     -14.993  -6.975  16.422  0.00  0.00    +0.002 C 
ENDBRANCH   6  23
ENDBRANCH  18  21
ENDBRANCH  12  18
TORSDOF 7
ENDMDL
MODEL 10
REMARK VINA RESULT:      -6.0     12.899     16.063
REMARK  Name = 28962854
REMARK  11 active torsions:
REMARK  status: ('A' for Active; 'I' for Inactive)
REMARK    1  A    between atoms: O_1  and  C_10
REMARK    2  A    between atoms: O_4  and  C_26
REMARK    3  A    between atoms: O_4  and  C_29
REMARK    4  A    between atoms: N_5  and  C_14
REMARK    5  A    between atoms: N_6  and  C_23
REMARK    6  A    between atoms: C_7  and  C_17
REMARK    7  A    between atoms: C_9  and  C_19
REMARK    8  A    between atoms: C_12  and  C_18
REMARK    9  A    between atoms: C_18  and  C_20
REMARK   10  A    between atoms: C_18  and  C_21
REMARK   11  A    between atoms: C_22  and  C_26
REMARK                            x       y       z     vdW  Elec       q    Type
REMARK                         _______ _______ _______ _____ _____    ______ ____
ROOT
ATOM      7  C   UNL     1      16.730  -3.558  30.638  0.00  0.00    -0.027 C 
ATOM      8  C   UNL     1      16.537  -4.331  29.290  0.00  0.00    +0.028 C 
ATOM      9  C   UNL     1      15.984  -5.778  29.551  0.00  0.00    +0.012 C 
ATOM     10  C   UNL     1      17.816  -4.252  28.407  0.00  0.00    +0.122 C 
ATOM     11  C   UNL     1      17.166  -2.104  30.340  0.00  0.00    +0.007 C 
ATOM     12  C   UNL     1      18.307  -2.800  28.200  0.00  0.00    +0.029 C 
ATOM     13  C   UNL     1      15.378  -3.501  31.384  0.00  0.00    +0.009 C 
ATOM     14  C   UNL     1      14.663  -5.712  30.367  0.00  0.00    +0.076 C 
ATOM     15  C   UNL     1      18.439  -2.023  29.509  0.00  0.00    +0.007 C 
ATOM     16  C   UNL     1      14.778  -4.876  31.642  0.00  0.00    +0.023 C 
ATOM     17  C   UNL     1      17.791  -4.218  31.554  0.00  0.00    +0.011 C 
ATOM     19  C   UNL     1      15.744  -6.586  28.264  0.00  0.00    +0.010 C 
ENDROOT
BRANCH  14   5
ATOM      3  O   UNL     1      11.924  -6.642  30.355  0.00  0.00    -0.273 OA
ATOM      5  N   UNL     1      14.187  -7.031  30.724  0.00  0.00    -0.310 N 
ATOM     22  C   UNL     1      12.848  -7.381  30.686  0.00  0.00    +0.239 C 
ATOM     30  H   UNL     1      14.862  -7.704  31.077  0.00  0.00    +0.149 HD
BRANCH  22  26
ATOM     26  C   UNL     1      12.635  -8.819  31.109  0.00  0.00    +0.255 C 
BRANCH  26   4
ATOM      4  O   UNL     1      11.400  -8.964  31.776  0.00  0.00    -0.374 OA
ATOM     29  C   UNL     1      11.530  -8.774  33.182  0.00  0.00    +0.194 C 
ENDBRANCH  26   4
ENDBRANCH  22  26
ENDBRANCH  14   5
BRANCH  10   1
ATOM      1  O   UNL     1      17.532  -4.776  27.110  0.00  0.00    -0.391 OA
ATOM     31  H   UNL     1      18.376  -4.990  26.678  0.00  0.00    +0.210 HD
ENDBRANCH  10   1
BRANCH  12  18
ATOM     18  C   UNL     1      19.638  -2.754  27.440  0.00  0.00    +0.077 C 
ATOM     20  C   UNL     1      20.721  -2.132  28.314  0.00  0.00    +0.017 C 
BRANCH  18  21
ATOM      2  O   UNL     1      19.948  -0.864  25.956  0.00  0.00    -0.276 OA
ATOM      6  N   UNL     1      18.709  -2.674  25.203  0.00  0.00    -0.312 N 
ATOM     21  C   UNL     1      19.464  -1.980  26.136  0.00  0.00    +0.216 C 
ATOM     32  H   UNL     1      18.366  -3.603  25.425  0.00  0.00    +0.149 HD
BRANCH   6  23
ATOM     23  C   UNL     1      18.407  -2.146  23.895  0.00  0.00    +0.073 C 
ATOM     24  C   UNL     1      17.072  -1.413  23.878  0.00  0.00    +0.022 C 
ATOM     25  C   UNL     1      18.199  -3.252  22.868  0.00  0.00    +0.022 C 
ATOM     27  C   UNL     1      16.029  -2.519  23.731  0.00  0.00    +0.002 C 
ATOM     28  C   UNL     1      16.743  -3.684  23.044  0.00  0.00    +0.002 C 
ENDBRANCH   6  23
ENDBRANCH  18  21
ENDBRANCH  12  18
TORSDOF 7
ENDMDL
