MODEL 1
REMARK VINA RESULT:      -8.8      0.000      0.000
REMARK  Name = 11884000
REMARK  8 active torsions:
REMARK  status: ('A' for Active; 'I' for Inactive)
REMARK    1  A    between atoms: O_3  and  C_12
REMARK    2  A    between atoms: O_3  and  C_16
REMARK    3  A    between atoms: N_6  and  C_11
REMARK    4  A    between atoms: N_7  and  C_17
REMARK    5  A    between atoms: N_8  and  C_18
REMARK    6  A    between atoms: C_22  and  C_23
REMARK    7  A    between atoms: C_23  and  C_30
REMARK    8  A    between atoms: C_23  and  C_31
REMARK                            x       y       z     vdW  Elec       q    Type
REMARK                         _______ _______ _______ _____ _____    ______ ____
ROOT
ATOM      1  O   UNL     1     -16.082   2.455  23.905  0.00  0.00    -0.368 OA
ATOM      2  O   UNL     1     -17.429   4.881  25.211  0.00  0.00    -0.368 OA
ATOM      9  C   UNL     1     -16.088   4.683  24.716  0.00  0.00    +0.173 C 
ATOM     10  C   UNL     1     -15.707   3.252  25.040  0.00  0.00    +0.192 C 
ATOM     11  C   UNL     1     -16.079   4.728  23.206  0.00  0.00    +0.131 C 
ATOM     12  C   UNL     1     -16.567   2.951  26.244  0.00  0.00    +0.235 C 
ATOM     13  C   UNL     1     -16.511   3.318  22.840  0.00  0.00    +0.185 C 
ATOM     14  C   UNL     1     -17.837   3.706  25.927  0.00  0.00    +0.207 C 
ENDROOT
BRANCH  11   6
ATOM      4  O   UNL     1     -15.315   6.996  21.631  0.00  0.00    -0.252 OA
ATOM      6  N   UNL     1     -14.761   5.021  22.699  0.00  0.00    -0.292 N 
ATOM      7  N   UNL     1     -13.116   6.175  21.585  0.00  0.00    -0.269 N 
ATOM     15  C   UNL     1     -14.469   6.157  21.933  0.00  0.00    +0.304 C 
ATOM     36  H   UNL     1     -13.994   4.409  22.963  0.00  0.00    +0.151 HD
ATOM     37  H   UNL     1     -12.549   5.398  21.917  0.00  0.00    +0.156 HD
BRANCH   7  17
ATOM     17  C   UNL     1     -12.429   7.147  20.821  0.00  0.00    +0.035 A 
ATOM     19  C   UNL     1     -12.444   8.484  21.217  0.00  0.00    +0.023 A 
ATOM     20  C   UNL     1     -11.737   6.768  19.670  0.00  0.00    +0.023 A 
ATOM     22  C   UNL     1     -11.074   9.063  19.313  0.00  0.00    -0.045 A 
ATOM     24  C   UNL     1     -11.767   9.442  20.463  0.00  0.00    +0.006 A 
ATOM     25  C   UNL     1     -11.059   7.726  18.917  0.00  0.00    +0.006 A 
BRANCH  22  23
ATOM     23  C   UNL     1     -10.350  10.087  18.506  0.00  0.00    +0.013 C 
ATOM     30  C   UNL     1     -11.078  11.445  18.487  0.00  0.00    +0.012 C 
ATOM     31  C   UNL     1     -10.083   9.619  17.063  0.00  0.00    +0.012 C 
ENDBRANCH  22  23
ENDBRANCH   7  17
ENDBRANCH  11   6
BRANCH  12   3
ATOM      3  O   UNL     1     -16.802   1.575  26.437  0.00  0.00    -0.442 OA
BRANCH   3  16
ATOM      5  O   UNL     1     -17.701   0.354  28.148  0.00  0.00    -0.226 OA
ATOM      8  N   UNL     1     -15.788   1.668  28.450  0.00  0.00    -0.251 N 
ATOM     16  C   UNL     1     -16.840   1.123  27.740  0.00  0.00    +0.405 C 
ATOM     38  H   UNL     1     -15.193   2.284  27.907  0.00  0.00    +0.158 HD
BRANCH   8  18
ATOM     18  C   UNL     1     -15.459   1.469  29.809  0.00  0.00    +0.044 A 
ATOM     21  C   UNL     1     -15.311   2.545  30.700  0.00  0.00    +0.003 A 
ATOM     26  C   UNL     1     -15.283   0.155  30.244  0.00  0.00    +0.024 A 
ATOM     27  C   UNL     1     -14.980   2.283  32.051  0.00  0.00    -0.016 A 
ATOM     28  C   UNL     1     -15.484   3.873  30.281  0.00  0.00    +0.010 A 
ATOM     29  C   UNL     1     -14.957  -0.103  31.573  0.00  0.00    +0.002 A 
ATOM     32  C   UNL     1     -14.806   0.954  32.472  0.00  0.00    +0.008 A 
ATOM     33  C   UNL     1     -14.832   3.358  32.943  0.00  0.00    +0.008 A 
ATOM     34  C   UNL     1     -15.332   4.929  31.179  0.00  0.00    +0.001 A 
ATOM     35  C   UNL     1     -15.007   4.672  32.508  0.00  0.00    +0.001 A 
ENDBRANCH   8  18
ENDBRANCH   3  16
ENDBRANCH  12   3
TORSDOF 6
ENDMDL
MODEL 2
REMARK VINA RESULT:      -8.1     16.615     19.129
REMARK  Name = 11884000
REMARK  8 active torsions:
REMARK  status: ('A' for Active; 'I' for Inactive)
REMARK    1  A    between atoms: O_3  and  C_12
REMARK    2  A    between atoms: O_3  and  C_16
REMARK    3  A    between atoms: N_6  and  C_11
REMARK    4  A    between atoms: N_7  and  C_17
REMARK    5  A    between atoms: N_8  and  C_18
REMARK    6  A    between atoms: C_22  and  C_23
REMARK    7  A    between atoms: C_23  and  C_30
REMARK    8  A    between atoms: C_23  and  C_31
REMARK                            x       y       z     vdW  Elec       q    Type
REMARK                         _______ _______ _______ _____ _____    ______ ____
ROOT
ATOM      1  O   UNL     1      -9.667  -9.308  15.266  0.00  0.00    -0.368 OA
ATOM      2  O   UNL     1     -10.454  -8.915  18.203  0.00  0.00    -0.368 OA
ATOM      9  C   UNL     1     -10.171  -7.966  17.155  0.00  0.00    +0.173 C 
ATOM     10  C   UNL     1      -9.049  -8.553  16.321  0.00  0.00    +0.192 C 
ATOM     11  C   UNL     1     -11.334  -7.889  16.194  0.00  0.00    +0.131 C 
ATOM     12  C   UNL     1      -8.344  -9.450  17.311  0.00  0.00    +0.235 C 
ATOM     13  C   UNL     1     -11.086  -9.086  15.292  0.00  0.00    +0.185 C 
ATOM     14  C   UNL     1      -9.493  -9.979  18.139  0.00  0.00    +0.207 C 
ENDROOT
BRANCH  11   6
ATOM      4  O   UNL     1     -13.208  -7.075  14.185  0.00  0.00    -0.252 OA
ATOM      6  N   UNL     1     -11.315  -6.656  15.446  0.00  0.00    -0.292 N 
ATOM      7  N   UNL     1     -12.000  -5.080  13.921  0.00  0.00    -0.269 N 
ATOM     15  C   UNL     1     -12.273  -6.332  14.477  0.00  0.00    +0.304 C 
ATOM     36  H   UNL     1     -10.612  -5.961  15.678  0.00  0.00    +0.151 HD
ATOM     37  H   UNL     1     -11.181  -4.591  14.276  0.00  0.00    +0.156 HD
BRANCH   7  17
ATOM     17  C   UNL     1     -12.726  -4.398  12.917  0.00  0.00    +0.035 A 
ATOM     19  C   UNL     1     -13.995  -3.891  13.196  0.00  0.00    +0.023 A 
ATOM     20  C   UNL     1     -12.173  -4.234  11.646  0.00  0.00    +0.023 A 
ATOM     22  C   UNL     1     -14.158  -3.055  10.935  0.00  0.00    -0.045 A 
ATOM     24  C   UNL     1     -14.711  -3.219  12.205  0.00  0.00    +0.006 A 
ATOM     25  C   UNL     1     -12.889  -3.561  10.656  0.00  0.00    +0.006 A 
BRANCH  22  23
ATOM     23  C   UNL     1     -14.923  -2.337   9.875  0.00  0.00    +0.013 C 
ATOM     30  C   UNL     1     -16.389  -2.086  10.274  0.00  0.00    +0.012 C 
ATOM     31  C   UNL     1     -14.869  -3.062   8.517  0.00  0.00    +0.012 C 
ENDBRANCH  22  23
ENDBRANCH   7  17
ENDBRANCH  11   6
BRANCH  12   3
ATOM      3  O   UNL     1      -7.606 -10.486  16.704  0.00  0.00    -0.442 OA
BRANCH   3  16
ATOM      5  O   UNL     1      -5.696 -10.321  17.948  0.00  0.00    -0.226 OA
ATOM      8  N   UNL     1      -5.628 -10.583  15.624  0.00  0.00    -0.251 N 
ATOM     16  C   UNL     1      -6.236 -10.451  16.857  0.00  0.00    +0.405 C 
ATOM     38  H   UNL     1      -6.274 -10.678  14.848  0.00  0.00    +0.158 HD
BRANCH   8  18
ATOM     18  C   UNL     1      -4.246 -10.597  15.331  0.00  0.00    +0.044 A 
ATOM     21  C   UNL     1      -3.768 -10.543  14.011  0.00  0.00    +0.003 A 
ATOM     26  C   UNL     1      -3.361 -10.669  16.407  0.00  0.00    +0.024 A 
ATOM     27  C   UNL     1      -2.372 -10.561  13.781  0.00  0.00    -0.016 A 
ATOM     28  C   UNL     1      -4.644 -10.470  12.917  0.00  0.00    +0.010 A 
ATOM     29  C   UNL     1      -1.987 -10.688  16.179  0.00  0.00    +0.002 A 
ATOM     32  C   UNL     1      -1.495 -10.634  14.875  0.00  0.00    +0.008 A 
ATOM     33  C   UNL     1      -1.893 -10.506  12.461  0.00  0.00    +0.008 A 
ATOM     34  C   UNL     1      -4.152 -10.417  11.613  0.00  0.00    +0.001 A 
ATOM     35  C   UNL     1      -2.779 -10.434  11.385  0.00  0.00    +0.001 A 
ENDBRANCH   8  18
ENDBRANCH   3  16
ENDBRANCH  12   3
TORSDOF 6
ENDMDL
MODEL 3
REMARK VINA RESULT:      -8.1     17.820     21.448
REMARK  Name = 11884000
REMARK  8 active torsions:
REMARK  status: ('A' for Active; 'I' for Inactive)
REMARK    1  A    between atoms: O_3  and  C_12
REMARK    2  A    between atoms: O_3  and  C_16
REMARK    3  A    between atoms: N_6  and  C_11
REMARK    4  A    between atoms: N_7  and  C_17
REMARK    5  A    between atoms: N_8  and  C_18
REMARK    6  A    between atoms: C_22  and  C_23
REMARK    7  A    between atoms: C_23  and  C_30
REMARK    8  A    between atoms: C_23  and  C_31
REMARK                            x       y       z     vdW  Elec       q    Type
REMARK                         _______ _______ _______ _____ _____    ______ ____
ROOT
ATOM      1  O   UNL     1      -6.393 -12.150  17.481  0.00  0.00    -0.368 OA
ATOM      2  O   UNL     1      -4.952 -11.623  20.136  0.00  0.00    -0.368 OA
ATOM      9  C   UNL     1      -5.966 -10.876  19.435  0.00  0.00    +0.173 C 
ATOM     10  C   UNL     1      -5.665 -11.005  17.955  0.00  0.00    +0.192 C 
ATOM     11  C   UNL     1      -7.310 -11.549  19.591  0.00  0.00    +0.131 C 
ATOM     12  C   UNL     1      -4.174 -11.248  17.947  0.00  0.00    +0.235 C 
ATOM     13  C   UNL     1      -7.253 -12.631  18.525  0.00  0.00    +0.185 C 
ATOM     14  C   UNL     1      -3.980 -12.090  19.188  0.00  0.00    +0.207 C 
ENDROOT
BRANCH  11   6
ATOM      4  O   UNL     1     -10.086 -11.970  20.158  0.00  0.00    -0.252 OA
ATOM      6  N   UNL     1      -8.390 -10.626  19.344  0.00  0.00    -0.292 N 
ATOM      7  N   UNL     1     -10.546  -9.833  19.302  0.00  0.00    -0.269 N 
ATOM     15  C   UNL     1      -9.726 -10.910  19.652  0.00  0.00    +0.304 C 
ATOM     36  H   UNL     1      -8.164  -9.701  18.989  0.00  0.00    +0.151 HD
ATOM     37  H   UNL     1     -10.087  -9.025  18.890  0.00  0.00    +0.156 HD
BRANCH   7  17
ATOM     17  C   UNL     1     -11.949  -9.726  19.451  0.00  0.00    +0.035 A 
ATOM     19  C   UNL     1     -12.513  -9.676  20.726  0.00  0.00    +0.023 A 
ATOM     20  C   UNL     1     -12.767  -9.669  18.323  0.00  0.00    +0.023 A 
ATOM     22  C   UNL     1     -14.715  -9.513  19.744  0.00  0.00    -0.045 A 
ATOM     24  C   UNL     1     -13.896  -9.570  20.873  0.00  0.00    +0.006 A 
ATOM     25  C   UNL     1     -14.150  -9.562  18.470  0.00  0.00    +0.006 A 
BRANCH  22  23
ATOM     23  C   UNL     1     -16.193  -9.400  19.900  0.00  0.00    +0.013 C 
ATOM     30  C   UNL     1     -16.796  -8.289  19.020  0.00  0.00    +0.012 C 
ATOM     31  C   UNL     1     -16.616  -9.190  21.367  0.00  0.00    +0.012 C 
ENDBRANCH  22  23
ENDBRANCH   7  17
ENDBRANCH  11   6
BRANCH  12   3
ATOM      3  O   UNL     1      -3.717 -11.903  16.785  0.00  0.00    -0.442 OA
BRANCH   3  16
ATOM      5  O   UNL     1      -2.259 -10.302  16.052  0.00  0.00    -0.226 OA
ATOM      8  N   UNL     1      -3.714 -11.402  14.586  0.00  0.00    -0.251 N 
ATOM     16  C   UNL     1      -3.142 -11.115  15.809  0.00  0.00    +0.405 C 
ATOM     38  H   UNL     1      -4.433 -12.117  14.618  0.00  0.00    +0.158 HD
BRANCH   8  18
ATOM     18  C   UNL     1      -3.418 -10.826  13.330  0.00  0.00    +0.044 A 
ATOM     21  C   UNL     1      -4.398 -10.166  12.569  0.00  0.00    +0.003 A 
ATOM     26  C   UNL     1      -2.108 -10.936  12.863  0.00  0.00    +0.024 A 
ATOM     27  C   UNL     1      -4.042  -9.609  11.318  0.00  0.00    -0.016 A 
ATOM     28  C   UNL     1      -5.721 -10.046  13.023  0.00  0.00    +0.010 A 
ATOM     29  C   UNL     1      -1.758 -10.388  11.631  0.00  0.00    +0.002 A 
ATOM     32  C   UNL     1      -2.718  -9.729  10.863  0.00  0.00    +0.008 A 
ATOM     33  C   UNL     1      -5.021  -8.949  10.557  0.00  0.00    +0.008 A 
ATOM     34  C   UNL     1      -6.681  -9.388  12.254  0.00  0.00    +0.001 A 
ATOM     35  C   UNL     1      -6.331  -8.839  11.023  0.00  0.00    +0.001 A 
ENDBRANCH   8  18
ENDBRANCH   3  16
ENDBRANCH  12   3
TORSDOF 6
ENDMDL
MODEL 4
REMARK VINA RESULT:      -7.9     17.648     20.704
REMARK  Name = 11884000
REMARK  8 active torsions:
REMARK  status: ('A' for Active; 'I' for Inactive)
REMARK    1  A    between atoms: O_3  and  C_12
REMARK    2  A    between atoms: O_3  and  C_16
REMARK    3  A    between atoms: N_6  and  C_11
REMARK    4  A    between atoms: N_7  and  C_17
REMARK    5  A    between atoms: N_8  and  C_18
REMARK    6  A    between atoms: C_22  and  C_23
REMARK    7  A    between atoms: C_23  and  C_30
REMARK    8  A    between atoms: C_23  and  C_31
REMARK                            x       y       z     vdW  Elec       q    Type
REMARK                         _______ _______ _______ _____ _____    ______ ____
ROOT
ATOM      1  O   UNL     1      -6.328 -11.234  16.613  0.00  0.00    -0.368 OA
ATOM      2  O   UNL     1      -5.698 -11.534  19.599  0.00  0.00    -0.368 OA
ATOM      9  C   UNL     1      -6.155 -10.404  18.828  0.00  0.00    +0.173 C 
ATOM     10  C   UNL     1      -5.464 -10.483  17.481  0.00  0.00    +0.192 C 
ATOM     11  C   UNL     1      -7.620 -10.561  18.492  0.00  0.00    +0.131 C 
ATOM     12  C   UNL     1      -4.201 -11.243  17.807  0.00  0.00    +0.235 C 
ATOM     13  C   UNL     1      -7.576 -11.477  17.281  0.00  0.00    +0.185 C 
ATOM     14  C   UNL     1      -4.678 -12.219  18.858  0.00  0.00    +0.207 C 
ENDROOT
BRANCH  11   6
ATOM      4  O   UNL     1      -9.899 -10.126  16.812  0.00  0.00    -0.252 OA
ATOM      6  N   UNL     1      -8.223  -9.292  18.169  0.00  0.00    -0.292 N 
ATOM      7  N   UNL     1      -9.700  -7.820  17.204  0.00  0.00    -0.269 N 
ATOM     15  C   UNL     1      -9.341  -9.165  17.336  0.00  0.00    +0.304 C 
ATOM     36  H   UNL     1      -7.859  -8.456  18.617  0.00  0.00    +0.151 HD
ATOM     37  H   UNL     1      -9.129  -7.144  17.706  0.00  0.00    +0.156 HD
BRANCH   7  17
ATOM     17  C   UNL     1     -10.767  -7.276  16.452  0.00  0.00    +0.035 A 
ATOM     19  C   UNL     1     -10.524  -6.257  15.530  0.00  0.00    +0.023 A 
ATOM     20  C   UNL     1     -12.064  -7.757  16.634  0.00  0.00    +0.023 A 
ATOM     22  C   UNL     1     -12.874  -6.203  14.971  0.00  0.00    -0.045 A 
ATOM     24  C   UNL     1     -11.577  -5.721  14.790  0.00  0.00    +0.006 A 
ATOM     25  C   UNL     1     -13.117  -7.221  15.892  0.00  0.00    +0.006 A 
BRANCH  22  23
ATOM     23  C   UNL     1     -14.000  -5.629  14.180  0.00  0.00    +0.013 C 
ATOM     30  C   UNL     1     -14.652  -6.666  13.245  0.00  0.00    +0.012 C 
ATOM     31  C   UNL     1     -13.578  -4.389  13.369  0.00  0.00    +0.012 C 
ENDBRANCH  22  23
ENDBRANCH   7  17
ENDBRANCH  11   6
BRANCH  12   3
ATOM      3  O   UNL     1      -3.634 -11.896  16.694  0.00  0.00    -0.442 OA
BRANCH   3  16
ATOM      5  O   UNL     1      -2.187 -10.298  15.934  0.00  0.00    -0.226 OA
ATOM      8  N   UNL     1      -3.711 -11.354  14.506  0.00  0.00    -0.251 N 
ATOM     16  C   UNL     1      -3.088 -11.097  15.711  0.00  0.00    +0.405 C 
ATOM     38  H   UNL     1      -4.436 -12.061  14.553  0.00  0.00    +0.158 HD
BRANCH   8  18
ATOM     18  C   UNL     1      -3.458 -10.758  13.250  0.00  0.00    +0.044 A 
ATOM     21  C   UNL     1      -4.476 -10.142  12.504  0.00  0.00    +0.003 A 
ATOM     26  C   UNL     1      -2.149 -10.801  12.769  0.00  0.00    +0.024 A 
ATOM     27  C   UNL     1      -4.162  -9.562  11.252  0.00  0.00    -0.016 A 
ATOM     28  C   UNL     1      -5.799 -10.089  12.973  0.00  0.00    +0.010 A 
ATOM     29  C   UNL     1      -1.840 -10.230  11.536  0.00  0.00    +0.002 A 
ATOM     32  C   UNL     1      -2.839  -9.614  10.782  0.00  0.00    +0.008 A 
ATOM     33  C   UNL     1      -5.180  -8.946  10.506  0.00  0.00    +0.008 A 
ATOM     34  C   UNL     1      -6.798  -9.474  12.219  0.00  0.00    +0.001 A 
ATOM     35  C   UNL     1      -6.489  -8.903  10.987  0.00  0.00    +0.001 A 
ENDBRANCH   8  18
ENDBRANCH   3  16
ENDBRANCH  12   3
TORSDOF 6
ENDMDL
MODEL 5
REMARK VINA RESULT:      -7.8     15.897     17.695
REMARK  Name = 11884000
REMARK  8 active torsions:
REMARK  status: ('A' for Active; 'I' for Inactive)
REMARK    1  A    between atoms: O_3  and  C_12
REMARK    2  A    between atoms: O_3  and  C_16
REMARK    3  A    between atoms: N_6  and  C_11
REMARK    4  A    between atoms: N_7  and  C_17
REMARK    5  A    between atoms: N_8  and  C_18
REMARK    6  A    between atoms: C_22  and  C_23
REMARK    7  A    between atoms: C_23  and  C_30
REMARK    8  A    between atoms: C_23  and  C_31
REMARK                            x       y       z     vdW  Elec       q    Type
REMARK                         _______ _______ _______ _____ _____    ______ ____
ROOT
ATOM      1  O   UNL     1      -9.707  -8.360  17.508  0.00  0.00    -0.368 OA
ATOM      2  O   UNL     1     -11.378 -10.631  16.302  0.00  0.00    -0.368 OA
ATOM      9  C   UNL     1     -11.653  -9.223  16.463  0.00  0.00    +0.173 C 
ATOM     10  C   UNL     1     -11.044  -8.806  17.787  0.00  0.00    +0.192 C 
ATOM     11  C   UNL     1     -10.880  -8.422  15.440  0.00  0.00    +0.131 C 
ATOM     12  C   UNL     1     -11.051 -10.097  18.570  0.00  0.00    +0.235 C 
ATOM     13  C   UNL     1      -9.509  -8.315  16.086  0.00  0.00    +0.185 C 
ATOM     14  C   UNL     1     -10.758 -11.122  17.499  0.00  0.00    +0.207 C 
ENDROOT
BRANCH  11   6
ATOM      4  O   UNL     1     -12.021  -7.415  13.013  0.00  0.00    -0.252 OA
ATOM      6  N   UNL     1     -11.470  -7.122  15.240  0.00  0.00    -0.292 N 
ATOM      7  N   UNL     1     -12.506  -5.403  14.121  0.00  0.00    -0.269 N 
ATOM     15  C   UNL     1     -12.008  -6.705  14.016  0.00  0.00    +0.304 C 
ATOM     36  H   UNL     1     -11.557  -6.502  16.040  0.00  0.00    +0.151 HD
ATOM     37  H   UNL     1     -12.415  -4.952  15.028  0.00  0.00    +0.156 HD
BRANCH   7  17
ATOM     17  C   UNL     1     -13.125  -4.627  13.114  0.00  0.00    +0.035 A 
ATOM     19  C   UNL     1     -12.373  -4.144  12.043  0.00  0.00    +0.023 A 
ATOM     20  C   UNL     1     -14.489  -4.343  13.193  0.00  0.00    +0.023 A 
ATOM     22  C   UNL     1     -14.348  -3.095  11.129  0.00  0.00    -0.045 A 
ATOM     24  C   UNL     1     -12.984  -3.379  11.051  0.00  0.00    +0.006 A 
ATOM     25  C   UNL     1     -15.100  -3.578  12.200  0.00  0.00    +0.006 A 
BRANCH  22  23
ATOM     23  C   UNL     1     -15.002  -2.276  10.069  0.00  0.00    +0.013 C 
ATOM     30  C   UNL     1     -16.539  -2.382  10.105  0.00  0.00    +0.012 C 
ATOM     31  C   UNL     1     -14.489  -2.621   8.657  0.00  0.00    +0.012 C 
ENDBRANCH  22  23
ENDBRANCH   7  17
ENDBRANCH  11   6
BRANCH  12   3
ATOM      3  O   UNL     1     -10.101 -10.129  19.610  0.00  0.00    -0.442 OA
BRANCH   3  16
ATOM      5  O   UNL     1      -9.127 -12.197  19.590  0.00  0.00    -0.226 OA
ATOM      8  N   UNL     1      -7.901 -10.258  19.127  0.00  0.00    -0.251 N 
ATOM     16  C   UNL     1      -9.030 -10.984  19.452  0.00  0.00    +0.405 C 
ATOM     38  H   UNL     1      -8.051  -9.258  19.065  0.00  0.00    +0.158 HD
BRANCH   8  18
ATOM     18  C   UNL     1      -6.596 -10.742  18.881  0.00  0.00    +0.044 A 
ATOM     21  C   UNL     1      -5.991 -10.628  17.618  0.00  0.00    +0.003 A 
ATOM     26  C   UNL     1      -5.920 -11.343  19.942  0.00  0.00    +0.024 A 
ATOM     27  C   UNL     1      -4.682 -11.132  17.431  0.00  0.00    -0.016 A 
ATOM     28  C   UNL     1      -6.656 -10.026  16.537  0.00  0.00    +0.010 A 
ATOM     29  C   UNL     1      -4.632 -11.839  19.758  0.00  0.00    +0.002 A 
ATOM     32  C   UNL     1      -4.016 -11.734  18.511  0.00  0.00    +0.008 A 
ATOM     33  C   UNL     1      -4.076 -11.018  16.168  0.00  0.00    +0.008 A 
ATOM     34  C   UNL     1      -6.041  -9.923  15.290  0.00  0.00    +0.001 A 
ATOM     35  C   UNL     1      -4.752 -10.417  15.106  0.00  0.00    +0.001 A 
ENDBRANCH   8  18
ENDBRANCH   3  16
ENDBRANCH  12   3
TORSDOF 6
ENDMDL
MODEL 6
REMARK VINA RESULT:      -7.7     16.675     19.363
REMARK  Name = 11884000
REMARK  8 active torsions:
REMARK  status: ('A' for Active; 'I' for Inactive)
REMARK    1  A    between atoms: O_3  and  C_12
REMARK    2  A    between atoms: O_3  and  C_16
REMARK    3  A    between atoms: N_6  and  C_11
REMARK    4  A    between atoms: N_7  and  C_17
REMARK    5  A    between atoms: N_8  and  C_18
REMARK    6  A    between atoms: C_22  and  C_23
REMARK    7  A    between atoms: C_23  and  C_30
REMARK    8  A    between atoms: C_23  and  C_31
REMARK                            x       y       z     vdW  Elec       q    Type
REMARK                         _______ _______ _______ _____ _____    ______ ____
ROOT
ATOM      1  O   UNL     1      -9.498  -9.241  15.225  0.00  0.00    -0.368 OA
ATOM      2  O   UNL     1     -10.394  -8.938  18.142  0.00  0.00    -0.368 OA
ATOM      9  C   UNL     1     -10.119  -7.958  17.120  0.00  0.00    +0.173 C 
ATOM     10  C   UNL     1      -8.948  -8.481  16.313  0.00  0.00    +0.192 C 
ATOM     11  C   UNL     1     -11.254  -7.913  16.124  0.00  0.00    +0.131 C 
ATOM     12  C   UNL     1      -8.235  -9.365  17.308  0.00  0.00    +0.235 C 
ATOM     13  C   UNL     1     -10.925  -9.081  15.209  0.00  0.00    +0.185 C 
ATOM     14  C   UNL     1      -9.385  -9.959  18.090  0.00  0.00    +0.207 C 
ENDROOT
BRANCH  11   6
ATOM      4  O   UNL     1     -13.136  -7.116  14.117  0.00  0.00    -0.252 OA
ATOM      6  N   UNL     1     -11.266  -6.666  15.399  0.00  0.00    -0.292 N 
ATOM      7  N   UNL     1     -11.985  -5.082  13.898  0.00  0.00    -0.269 N 
ATOM     15  C   UNL     1     -12.226  -6.353  14.429  0.00  0.00    +0.304 C 
ATOM     36  H   UNL     1     -10.584  -5.956  15.649  0.00  0.00    +0.151 HD
ATOM     37  H   UNL     1     -11.183  -4.578  14.268  0.00  0.00    +0.156 HD
BRANCH   7  17
ATOM     17  C   UNL     1     -12.723  -4.404  12.901  0.00  0.00    +0.035 A 
ATOM     19  C   UNL     1     -12.174  -4.216  11.632  0.00  0.00    +0.023 A 
ATOM     20  C   UNL     1     -14.001  -3.922  13.186  0.00  0.00    +0.023 A 
ATOM     22  C   UNL     1     -14.181  -3.064  10.935  0.00  0.00    -0.045 A 
ATOM     24  C   UNL     1     -12.903  -3.546  10.650  0.00  0.00    +0.006 A 
ATOM     25  C   UNL     1     -14.730  -3.253  12.203  0.00  0.00    +0.006 A 
BRANCH  22  23
ATOM     23  C   UNL     1     -14.960  -2.348   9.885  0.00  0.00    +0.013 C 
ATOM     30  C   UNL     1     -16.458  -2.709   9.912  0.00  0.00    +0.012 C 
ATOM     31  C   UNL     1     -14.394  -2.580   8.471  0.00  0.00    +0.012 C 
ENDBRANCH  22  23
ENDBRANCH   7  17
ENDBRANCH  11   6
BRANCH  12   3
ATOM      3  O   UNL     1      -7.435 -10.358  16.707  0.00  0.00    -0.442 OA
BRANCH   3  16
ATOM      5  O   UNL     1      -5.510  -9.172  16.364  0.00  0.00    -0.226 OA
ATOM      8  N   UNL     1      -6.473 -10.468  14.670  0.00  0.00    -0.251 N 
ATOM     16  C   UNL     1      -6.376  -9.924  15.936  0.00  0.00    +0.405 C 
ATOM     38  H   UNL     1      -7.278 -11.069  14.534  0.00  0.00    +0.158 HD
BRANCH   8  18
ATOM     18  C   UNL     1      -5.600 -10.283  13.574  0.00  0.00    +0.044 A 
ATOM     21  C   UNL     1      -4.345 -10.913  13.513  0.00  0.00    +0.003 A 
ATOM     26  C   UNL     1      -6.027  -9.445  12.544  0.00  0.00    +0.024 A 
ATOM     27  C   UNL     1      -3.514 -10.689  12.390  0.00  0.00    -0.016 A 
ATOM     28  C   UNL     1      -3.899 -11.760  14.540  0.00  0.00    +0.010 A 
ATOM     29  C   UNL     1      -5.208  -9.225  11.439  0.00  0.00    +0.002 A 
ATOM     32  C   UNL     1      -3.959  -9.842  11.362  0.00  0.00    +0.008 A 
ATOM     33  C   UNL     1      -2.259 -11.319  12.328  0.00  0.00    +0.008 A 
ATOM     34  C   UNL     1      -2.651 -12.377  14.463  0.00  0.00    +0.001 A 
ATOM     35  C   UNL     1      -1.833 -12.157  13.358  0.00  0.00    +0.001 A 
ENDBRANCH   8  18
ENDBRANCH   3  16
ENDBRANCH  12   3
TORSDOF 6
ENDMDL
MODEL 7
REMARK VINA RESULT:      -7.4     19.909     21.838
REMARK  Name = 11884000
REMARK  8 active torsions:
REMARK  status: ('A' for Active; 'I' for Inactive)
REMARK    1  A    between atoms: O_3  and  C_12
REMARK    2  A    between atoms: O_3  and  C_16
REMARK    3  A    between atoms: N_6  and  C_11
REMARK    4  A    between atoms: N_7  and  C_17
REMARK    5  A    between atoms: N_8  and  C_18
REMARK    6  A    between atoms: C_22  and  C_23
REMARK    7  A    between atoms: C_23  and  C_30
REMARK    8  A    between atoms: C_23  and  C_31
REMARK                            x       y       z     vdW  Elec       q    Type
REMARK                         _______ _______ _______ _____ _____    ______ ____
ROOT
ATOM      1  O   UNL     1      -2.365 -10.126  12.743  0.00  0.00    -0.368 OA
ATOM      2  O   UNL     1      -3.162 -12.740  11.351  0.00  0.00    -0.368 OA
ATOM      9  C   UNL     1      -3.912 -11.541  11.635  0.00  0.00    +0.173 C 
ATOM     10  C   UNL     1      -3.446 -11.040  12.988  0.00  0.00    +0.192 C 
ATOM     11  C   UNL     1      -3.510 -10.438  10.683  0.00  0.00    +0.131 C 
ATOM     12  C   UNL     1      -2.967 -12.307  13.656  0.00  0.00    +0.235 C 
ATOM     13  C   UNL     1      -2.245  -9.900  11.330  0.00  0.00    +0.185 C 
ATOM     14  C   UNL     1      -2.366 -13.072  12.499  0.00  0.00    +0.207 C 
ENDROOT
BRANCH  11   6
ATOM      4  O   UNL     1      -5.658 -10.321   8.790  0.00  0.00    -0.252 OA
ATOM      6  N   UNL     1      -4.530  -9.422  10.598  0.00  0.00    -0.292 N 
ATOM      7  N   UNL     1      -6.387  -8.331   9.800  0.00  0.00    -0.269 N 
ATOM     15  C   UNL     1      -5.550  -9.438   9.639  0.00  0.00    +0.304 C 
ATOM     36  H   UNL     1      -4.548  -8.695  11.307  0.00  0.00    +0.151 HD
ATOM     37  H   UNL     1      -6.157  -7.690  10.556  0.00  0.00    +0.156 HD
BRANCH   7  17
ATOM     17  C   UNL     1      -7.527  -7.985   9.036  0.00  0.00    +0.035 A 
ATOM     19  C   UNL     1      -7.408  -7.095   7.969  0.00  0.00    +0.023 A 
ATOM     20  C   UNL     1      -8.770  -8.535   9.350  0.00  0.00    +0.023 A 
ATOM     22  C   UNL     1      -9.774  -7.305   7.530  0.00  0.00    -0.045 A 
ATOM     24  C   UNL     1      -8.531  -6.755   7.216  0.00  0.00    +0.006 A 
ATOM     25  C   UNL     1      -9.893  -8.196   8.597  0.00  0.00    +0.006 A 
BRANCH  22  23
ATOM     23  C   UNL     1     -10.976  -6.941   6.726  0.00  0.00    +0.013 C 
ATOM     30  C   UNL     1     -12.245  -6.806   7.590  0.00  0.00    +0.012 C 
ATOM     31  C   UNL     1     -11.233  -7.929   5.572  0.00  0.00    +0.012 C 
ENDBRANCH  22  23
ENDBRANCH   7  17
ENDBRANCH  11   6
BRANCH  12   3
ATOM      3  O   UNL     1      -2.032 -12.080  14.685  0.00  0.00    -0.442 OA
BRANCH   3  16
ATOM      5  O   UNL     1      -1.874 -10.480  16.310  0.00  0.00    -0.226 OA
ATOM      8  N   UNL     1      -3.679 -11.967  16.223  0.00  0.00    -0.251 N 
ATOM     16  C   UNL     1      -2.484 -11.415  15.806  0.00  0.00    +0.405 C 
ATOM     38  H   UNL     1      -4.003 -12.740  15.652  0.00  0.00    +0.158 HD
BRANCH   8  18
ATOM     18  C   UNL     1      -4.476 -11.587  17.325  0.00  0.00    +0.044 A 
ATOM     21  C   UNL     1      -5.655 -10.840  17.164  0.00  0.00    +0.003 A 
ATOM     26  C   UNL     1      -4.051 -11.981  18.594  0.00  0.00    +0.024 A 
ATOM     27  C   UNL     1      -6.412 -10.488  18.306  0.00  0.00    -0.016 A 
ATOM     28  C   UNL     1      -6.098 -10.435  15.895  0.00  0.00    +0.010 A 
ATOM     29  C   UNL     1      -4.796 -11.634  19.719  0.00  0.00    +0.002 A 
ATOM     32  C   UNL     1      -5.969 -10.892  19.577  0.00  0.00    +0.008 A 
ATOM     33  C   UNL     1      -7.591  -9.741  18.146  0.00  0.00    +0.008 A 
ATOM     34  C   UNL     1      -7.270  -9.693  15.753  0.00  0.00    +0.001 A 
ATOM     35  C   UNL     1      -8.016  -9.347  16.877  0.00  0.00    +0.001 A 
ENDBRANCH   8  18
ENDBRANCH   3  16
ENDBRANCH  12   3
TORSDOF 6
ENDMDL
MODEL 8
REMARK VINA RESULT:      -7.4     13.383     17.769
REMARK  Name = 11884000
REMARK  8 active torsions:
REMARK  status: ('A' for Active; 'I' for Inactive)
REMARK    1  A    between atoms: O_3  and  C_12
REMARK    2  A    between atoms: O_3  and  C_16
REMARK    3  A    between atoms: N_6  and  C_11
REMARK    4  A    between atoms: N_7  and  C_17
REMARK    5  A    between atoms: N_8  and  C_18
REMARK    6  A    between atoms: C_22  and  C_23
REMARK    7  A    between atoms: C_23  and  C_30
REMARK    8  A    between atoms: C_23  and  C_31
REMARK                            x       y       z     vdW  Elec       q    Type
REMARK                         _______ _______ _______ _____ _____    ______ ____
ROOT
ATOM      1  O   UNL     1      -7.961   5.591  42.578  0.00  0.00    -0.368 OA
ATOM      2  O   UNL     1      -8.413   8.534  43.313  0.00  0.00    -0.368 OA
ATOM      9  C   UNL     1      -8.476   7.845  42.047  0.00  0.00    +0.173 C 
ATOM     10  C   UNL     1      -7.378   6.799  42.062  0.00  0.00    +0.192 C 
ATOM     11  C   UNL     1      -9.747   7.033  41.959  0.00  0.00    +0.131 C 
ATOM     12  C   UNL     1      -6.376   7.392  43.023  0.00  0.00    +0.235 C 
ATOM     13  C   UNL     1      -9.378   5.772  42.723  0.00  0.00    +0.185 C 
ATOM     14  C   UNL     1      -7.269   8.065  44.041  0.00  0.00    +0.207 C 
ENDROOT
BRANCH  11   6
ATOM      4  O   UNL     1     -10.401   8.925  39.909  0.00  0.00    -0.252 OA
ATOM      6  N   UNL     1     -10.085   6.737  40.589  0.00  0.00    -0.292 N 
ATOM      7  N   UNL     1     -10.680   7.143  38.407  0.00  0.00    -0.269 N 
ATOM     15  C   UNL     1     -10.394   7.725  39.645  0.00  0.00    +0.304 C 
ATOM     36  H   UNL     1     -10.035   5.772  40.277  0.00  0.00    +0.151 HD
ATOM     37  H   UNL     1     -10.629   6.128  38.357  0.00  0.00    +0.156 HD
BRANCH   7  17
ATOM     17  C   UNL     1     -11.035   7.794  37.203  0.00  0.00    +0.035 A 
ATOM     19  C   UNL     1     -12.258   7.515  36.592  0.00  0.00    +0.023 A 
ATOM     20  C   UNL     1     -10.161   8.715  36.625  0.00  0.00    +0.023 A 
ATOM     22  C   UNL     1     -11.733   9.079  34.827  0.00  0.00    -0.045 A 
ATOM     24  C   UNL     1     -12.607   8.157  35.405  0.00  0.00    +0.006 A 
ATOM     25  C   UNL     1     -10.511   9.358  35.438  0.00  0.00    +0.006 A 
BRANCH  22  23
ATOM     23  C   UNL     1     -12.106   9.765  33.557  0.00  0.00    +0.013 C 
ATOM     30  C   UNL     1     -13.632   9.865  33.366  0.00  0.00    +0.012 C 
ATOM     31  C   UNL     1     -11.468   9.104  32.321  0.00  0.00    +0.012 C 
ENDBRANCH  22  23
ENDBRANCH   7  17
ENDBRANCH  11   6
BRANCH  12   3
ATOM      3  O   UNL     1      -5.527   6.434  43.613  0.00  0.00    -0.442 OA
BRANCH   3  16
ATOM      5  O   UNL     1      -4.800   4.517  42.602  0.00  0.00    -0.226 OA
ATOM      8  N   UNL     1      -3.796   6.587  42.174  0.00  0.00    -0.251 N 
ATOM     16  C   UNL     1      -4.700   5.726  42.766  0.00  0.00    +0.405 C 
ATOM     38  H   UNL     1      -3.895   7.556  42.458  0.00  0.00    +0.158 HD
BRANCH   8  18
ATOM     18  C   UNL     1      -2.777   6.277  41.246  0.00  0.00    +0.044 A 
ATOM     21  C   UNL     1      -2.703   6.903  39.991  0.00  0.00    +0.003 A 
ATOM     26  C   UNL     1      -1.836   5.317  41.620  0.00  0.00    +0.024 A 
ATOM     27  C   UNL     1      -1.660   6.550  39.103  0.00  0.00    -0.016 A 
ATOM     28  C   UNL     1      -3.642   7.870  39.598  0.00  0.00    +0.010 A 
ATOM     29  C   UNL     1      -0.809   4.970  40.745  0.00  0.00    +0.002 A 
ATOM     32  C   UNL     1      -0.721   5.582  39.495  0.00  0.00    +0.008 A 
ATOM     33  C   UNL     1      -1.585   7.175  37.847  0.00  0.00    +0.008 A 
ATOM     34  C   UNL     1      -3.554   8.481  38.347  0.00  0.00    +0.001 A 
ATOM     35  C   UNL     1      -2.527   8.135  37.473  0.00  0.00    +0.001 A 
ENDBRANCH   8  18
ENDBRANCH   3  16
ENDBRANCH  12   3
TORSDOF 6
ENDMDL
MODEL 9
REMARK VINA RESULT:      -7.4     27.997     31.902
REMARK  Name = 11884000
REMARK  8 active torsions:
REMARK  status: ('A' for Active; 'I' for Inactive)
REMARK    1  A    between atoms: O_3  and  C_12
REMARK    2  A    between atoms: O_3  and  C_16
REMARK    3  A    between atoms: N_6  and  C_11
REMARK    4  A    between atoms: N_7  and  C_17
REMARK    5  A    between atoms: N_8  and  C_18
REMARK    6  A    between atoms: C_22  and  C_23
REMARK    7  A    between atoms: C_23  and  C_30
REMARK    8  A    between atoms: C_23  and  C_31
REMARK                            x       y       z     vdW  Elec       q    Type
REMARK                         _______ _______ _______ _____ _____    ______ ____
ROOT
ATOM      1  O   UNL     1      -3.260 -12.704   1.957  0.00  0.00    -0.368 OA
ATOM      2  O   UNL     1      -2.639 -15.138   3.717  0.00  0.00    -0.368 OA
ATOM      9  C   UNL     1      -2.750 -13.734   4.031  0.00  0.00    +0.173 C 
ATOM     10  C   UNL     1      -2.171 -12.973   2.855  0.00  0.00    +0.192 C 
ATOM     11  C   UNL     1      -4.203 -13.318   4.051  0.00  0.00    +0.131 C 
ATOM     12  C   UNL     1      -1.197 -13.968   2.271  0.00  0.00    +0.235 C 
ATOM     13  C   UNL     1      -4.494 -13.097   2.577  0.00  0.00    +0.185 C 
ATOM     14  C   UNL     1      -1.914 -15.282   2.487  0.00  0.00    +0.207 C 
ENDROOT
BRANCH  11   6
ATOM      4  O   UNL     1      -6.692 -12.014   4.608  0.00  0.00    -0.252 OA
ATOM      6  N   UNL     1      -4.390 -12.107   4.811  0.00  0.00    -0.292 N 
ATOM      7  N   UNL     1      -5.519 -10.369   5.802  0.00  0.00    -0.269 N 
ATOM     15  C   UNL     1      -5.647 -11.532   5.038  0.00  0.00    +0.304 C 
ATOM     36  H   UNL     1      -3.580 -11.685   5.256  0.00  0.00    +0.151 HD
ATOM     37  H   UNL     1      -4.576 -10.106   6.079  0.00  0.00    +0.156 HD
BRANCH   7  17
ATOM     17  C   UNL     1      -6.546  -9.502   6.244  0.00  0.00    +0.035 A 
ATOM     19  C   UNL     1      -6.986  -9.558   7.567  0.00  0.00    +0.023 A 
ATOM     20  C   UNL     1      -7.120  -8.592   5.356  0.00  0.00    +0.023 A 
ATOM     22  C   UNL     1      -8.573  -7.794   7.114  0.00  0.00    -0.045 A 
ATOM     24  C   UNL     1      -7.999  -8.704   8.001  0.00  0.00    +0.006 A 
ATOM     25  C   UNL     1      -8.132  -7.737   5.792  0.00  0.00    +0.006 A 
BRANCH  22  23
ATOM     23  C   UNL     1      -9.656  -6.880   7.578  0.00  0.00    +0.013 C 
ATOM     30  C   UNL     1      -9.110  -5.652   8.330  0.00  0.00    +0.012 C 
ATOM     31  C   UNL     1     -10.702  -7.602   8.449  0.00  0.00    +0.012 C 
ENDBRANCH  22  23
ENDBRANCH   7  17
ENDBRANCH  11   6
BRANCH  12   3
ATOM      3  O   UNL     1      -0.906 -13.740   0.911  0.00  0.00    -0.442 OA
BRANCH   3  16
ATOM      5  O   UNL     1       0.096 -15.257  -0.474  0.00  0.00    -0.226 OA
ATOM      8  N   UNL     1       1.342 -13.915   0.983  0.00  0.00    -0.251 N 
ATOM     16  C   UNL     1       0.191 -14.393   0.388  0.00  0.00    +0.405 C 
ATOM     38  H   UNL     1       1.184 -13.193   1.677  0.00  0.00    +0.158 HD
BRANCH   8  18
ATOM     18  C   UNL     1       2.676 -14.310   0.740  0.00  0.00    +0.044 A 
ATOM     21  C   UNL     1       3.288 -15.342   1.471  0.00  0.00    +0.003 A 
ATOM     26  C   UNL     1       3.376 -13.635  -0.261  0.00  0.00    +0.024 A 
ATOM     27  C   UNL     1       4.628 -15.693   1.183  0.00  0.00    -0.016 A 
ATOM     28  C   UNL     1       2.599 -16.032   2.482  0.00  0.00    +0.010 A 
ATOM     29  C   UNL     1       4.695 -13.982  -0.545  0.00  0.00    +0.002 A 
ATOM     32  C   UNL     1       5.317 -15.004   0.172  0.00  0.00    +0.008 A 
ATOM     33  C   UNL     1       5.240 -16.725   1.914  0.00  0.00    +0.008 A 
ATOM     34  C   UNL     1       3.222 -17.053   3.199  0.00  0.00    +0.001 A 
ATOM     35  C   UNL     1       4.540 -17.400   2.914  0.00  0.00    +0.001 A 
ENDBRANCH   8  18
ENDBRANCH   3  16
ENDBRANCH  12   3
TORSDOF 6
ENDMDL
MODEL 10
REMARK VINA RESULT:      -7.4     29.059     31.118
REMARK  Name = 11884000
REMARK  8 active torsions:
REMARK  status: ('A' for Active; 'I' for Inactive)
REMARK    1  A    between atoms: O_3  and  C_12
REMARK    2  A    between atoms: O_3  and  C_16
REMARK    3  A    between atoms: N_6  and  C_11
REMARK    4  A    between atoms: N_7  and  C_17
REMARK    5  A    between atoms: N_8  and  C_18
REMARK    6  A    between atoms: C_22  and  C_23
REMARK    7  A    between atoms: C_23  and  C_30
REMARK    8  A    between atoms: C_23  and  C_31
REMARK                            x       y       z     vdW  Elec       q    Type
REMARK                         _______ _______ _______ _____ _____    ______ ____
ROOT
ATOM      1  O   UNL     1       4.211  11.281   3.570  0.00  0.00    -0.368 OA
ATOM      2  O   UNL     1       5.924  11.396   1.030  0.00  0.00    -0.368 OA
ATOM      9  C   UNL     1       4.789  10.578   1.381  0.00  0.00    +0.173 C 
ATOM     10  C   UNL     1       4.919  10.255   2.856  0.00  0.00    +0.192 C 
ATOM     11  C   UNL     1       3.517  11.390   1.299  0.00  0.00    +0.131 C 
ATOM     12  C   UNL     1       6.410  10.346   3.079  0.00  0.00    +0.235 C 
ATOM     13  C   UNL     1       3.513  12.116   2.633  0.00  0.00    +0.185 C 
ATOM     14  C   UNL     1       6.802  11.483   2.162  0.00  0.00    +0.207 C 
ENDROOT
BRANCH  11   6
ATOM      4  O   UNL     1       1.137  11.965  -0.187  0.00  0.00    -0.252 OA
ATOM      6  N   UNL     1       2.361  10.539   1.160  0.00  0.00    -0.292 N 
ATOM      7  N   UNL     1       0.275   9.878   0.458  0.00  0.00    -0.269 N 
ATOM     15  C   UNL     1       1.233  10.896   0.411  0.00  0.00    +0.304 C 
ATOM     36  H   UNL     1       2.393   9.610   1.571  0.00  0.00    +0.151 HD
ATOM     37  H   UNL     1       0.513   9.053   1.003  0.00  0.00    +0.156 HD
BRANCH   7  17
ATOM     17  C   UNL     1      -0.995   9.852  -0.163  0.00  0.00    +0.035 A 
ATOM     19  C   UNL     1      -2.152   9.817   0.616  0.00  0.00    +0.023 A 
ATOM     20  C   UNL     1      -1.091   9.861  -1.555  0.00  0.00    +0.023 A 
ATOM     22  C   UNL     1      -3.500   9.800  -1.389  0.00  0.00    -0.045 A 
ATOM     24  C   UNL     1      -3.404   9.791   0.003  0.00  0.00    +0.006 A 
ATOM     25  C   UNL     1      -2.343   9.835  -2.167  0.00  0.00    +0.006 A 
BRANCH  22  23
ATOM     23  C   UNL     1      -4.839   9.771  -2.045  0.00  0.00    +0.013 C 
ATOM     30  C   UNL     1      -4.956  10.796  -3.190  0.00  0.00    +0.012 C 
ATOM     31  C   UNL     1      -5.990   9.976  -1.043  0.00  0.00    +0.012 C 
ENDBRANCH  22  23
ENDBRANCH   7  17
ENDBRANCH  11   6
BRANCH  12   3
ATOM      3  O   UNL     1       6.764  10.600   4.419  0.00  0.00    -0.442 OA
BRANCH   3  16
ATOM      5  O   UNL     1       8.849  10.426   5.341  0.00  0.00    -0.226 OA
ATOM      8  N   UNL     1       7.541   8.537   4.896  0.00  0.00    -0.251 N 
ATOM     16  C   UNL     1       7.828   9.887   4.931  0.00  0.00    +0.405 C 
ATOM     38  H   UNL     1       6.629   8.314   4.513  0.00  0.00    +0.158 HD
BRANCH   8  18
ATOM     18  C   UNL     1       8.354   7.463   5.322  0.00  0.00    +0.044 A 
ATOM     21  C   UNL     1       9.159   6.742   4.423  0.00  0.00    +0.003 A 
ATOM     26  C   UNL     1       8.333   7.136   6.678  0.00  0.00    +0.024 A 
ATOM     27  C   UNL     1       9.952   5.675   4.908  0.00  0.00    -0.016 A 
ATOM     28  C   UNL     1       9.193   7.057   3.055  0.00  0.00    +0.010 A 
ATOM     29  C   UNL     1       9.113   6.085   7.155  0.00  0.00    +0.002 A 
ATOM     32  C   UNL     1       9.918   5.359   6.276  0.00  0.00    +0.008 A 
ATOM     33  C   UNL     1      10.757   4.954   4.010  0.00  0.00    +0.008 A 
ATOM     34  C   UNL     1       9.997   6.330   2.177  0.00  0.00    +0.001 A 
ATOM     35  C   UNL     1      10.778   5.281   2.654  0.00  0.00    +0.001 A 
ENDBRANCH   8  18
ENDBRANCH   3  16
ENDBRANCH  12   3
TORSDOF 6
ENDMDL
