MODEL 1
REMARK VINA RESULT:      -7.9      0.000      0.000
REMARK  Name = 25338395
REMARK  7 active torsions:
REMARK  status: ('A' for Active; 'I' for Inactive)
REMARK    1  A    between atoms: O_4  and  C_25
REMARK    2  A    between atoms: O_4  and  C_29
REMARK    3  A    between atoms: N_5  and  C_14
REMARK    4  A    between atoms: N_6  and  C_9
REMARK    5  A    between atoms: C_10  and  C_13
REMARK    6  A    between atoms: C_15  and  C_17
REMARK    7  A    between atoms: C_16  and  C_18
REMARK                            x       y       z     vdW  Elec       q    Type
REMARK                         _______ _______ _______ _____ _____    ______ ____
ROOT
ATOM      5  N   UNL     1      11.449   6.962  21.654  0.00  0.00    -0.293 NA
ATOM      9  C   UNL     1      10.664   9.151  21.815  0.00  0.00    +0.089 C 
ATOM     10  C   UNL     1      11.711   7.529  20.317  0.00  0.00    +0.147 C 
ATOM     11  C   UNL     1      11.339   9.019  20.450  0.00  0.00    +0.052 C 
ATOM     12  C   UNL     1      10.318   7.720  22.198  0.00  0.00    +0.107 C 
ATOM     14  C   UNL     1      11.181   5.529  21.628  0.00  0.00    +0.105 C 
ENDROOT
BRANCH  10  13
ATOM      2  O   UNL     1      13.372   7.557  18.525  0.00  0.00    -0.336 OA
ATOM      7  N   UNL     1      14.189   6.949  20.520  0.00  0.00    -0.190 NA
ATOM      8  N   UNL     1      14.735   7.306  18.327  0.00  0.00    -0.056 NA
ATOM     13  C   UNL     1      13.133   7.325  19.843  0.00  0.00    +0.245 A 
ATOM     16  C   UNL     1      15.147   6.952  19.548  0.00  0.00    +0.202 A 
BRANCH  16  18
ATOM      1 CL   UNL     1      20.785   5.481  20.725  0.00  0.00    -0.084 Cl
ATOM     18  C   UNL     1      16.508   6.598  19.832  0.00  0.00    +0.023 A 
ATOM     21  C   UNL     1      17.191   5.722  18.988  0.00  0.00    +0.013 A 
ATOM     22  C   UNL     1      17.148   7.128  20.952  0.00  0.00    +0.013 A 
ATOM     26  C   UNL     1      18.514   5.377  19.264  0.00  0.00    +0.021 A 
ATOM     27  C   UNL     1      18.470   6.783  21.228  0.00  0.00    +0.021 A 
ATOM     28  C   UNL     1      19.153   5.908  20.384  0.00  0.00    +0.041 A 
ENDBRANCH  16  18
ENDBRANCH  10  13
BRANCH   9   6
ATOM      3  O   UNL     1      11.022  11.960  22.289  0.00  0.00    -0.270 OA
ATOM      6  N   UNL     1      11.545   9.757  22.786  0.00  0.00    -0.307 N 
ATOM     15  C   UNL     1      11.649  11.130  22.942  0.00  0.00    +0.244 C 
ATOM     30  H   UNL     1      12.174   9.136  23.285  0.00  0.00    +0.149 HD
BRANCH  15  17
ATOM     17  C   UNL     1      12.619  11.594  23.966  0.00  0.00    +0.037 A 
ATOM     19  C   UNL     1      13.966  11.247  23.859  0.00  0.00    +0.016 A 
ATOM     20  C   UNL     1      12.183  12.375  25.036  0.00  0.00    +0.016 A 
ATOM     23  C   UNL     1      14.877  11.682  24.823  0.00  0.00    +0.046 A 
ATOM     24  C   UNL     1      13.095  12.810  26.000  0.00  0.00    +0.046 A 
ATOM     25  C   UNL     1      14.442  12.463  25.893  0.00  0.00    +0.120 A 
BRANCH  25   4
ATOM      4  O   UNL     1      15.330  12.887  26.832  0.00  0.00    -0.495 OA
ATOM     29  C   UNL     1      14.896  12.869  28.191  0.00  0.00    +0.277 C 
ENDBRANCH  25   4
ENDBRANCH  15  17
ENDBRANCH   9   6
TORSDOF 5
ENDMDL
MODEL 2
REMARK VINA RESULT:      -7.7      3.833      7.893
REMARK  Name = 25338395
REMARK  7 active torsions:
REMARK  status: ('A' for Active; 'I' for Inactive)
REMARK    1  A    between atoms: O_4  and  C_25
REMARK    2  A    between atoms: O_4  and  C_29
REMARK    3  A    between atoms: N_5  and  C_14
REMARK    4  A    between atoms: N_6  and  C_9
REMARK    5  A    between atoms: C_10  and  C_13
REMARK    6  A    between atoms: C_15  and  C_17
REMARK    7  A    between atoms: C_16  and  C_18
REMARK                            x       y       z     vdW  Elec       q    Type
REMARK                         _______ _______ _______ _____ _____    ______ ____
ROOT
ATOM      5  N   UNL     1      13.369   9.057  18.370  0.00  0.00    -0.293 NA
ATOM      9  C   UNL     1      14.388   6.966  18.525  0.00  0.00    +0.089 C 
ATOM     10  C   UNL     1      12.371   8.229  19.074  0.00  0.00    +0.147 C 
ATOM     11  C   UNL     1      13.085   6.886  19.320  0.00  0.00    +0.052 C 
ATOM     12  C   UNL     1      14.168   8.126  17.566  0.00  0.00    +0.107 C 
ATOM     14  C   UNL     1      12.773  10.108  17.554  0.00  0.00    +0.105 C 
ENDROOT
BRANCH  10  13
ATOM      2  O   UNL     1      11.230   8.029  21.225  0.00  0.00    -0.336 OA
ATOM      7  N   UNL     1      11.926  10.104  20.749  0.00  0.00    -0.190 NA
ATOM      8  N   UNL     1      10.850   8.826  22.312  0.00  0.00    -0.056 NA
ATOM     13  C   UNL     1      11.857   8.858  20.351  0.00  0.00    +0.245 A 
ATOM     16  C   UNL     1      11.294  10.035  21.957  0.00  0.00    +0.202 A 
BRANCH  16  18
ATOM      1 CL   UNL     1      10.594  14.835  25.393  0.00  0.00    -0.084 Cl
ATOM     18  C   UNL     1      11.126  11.194  22.786  0.00  0.00    +0.023 A 
ATOM     21  C   UNL     1      11.047  11.054  24.171  0.00  0.00    +0.013 A 
ATOM     22  C   UNL     1      11.042  12.460  22.207  0.00  0.00    +0.013 A 
ATOM     26  C   UNL     1      10.882  12.180  24.978  0.00  0.00    +0.021 A 
ATOM     27  C   UNL     1      10.878  13.585  23.013  0.00  0.00    +0.021 A 
ATOM     28  C   UNL     1      10.798  13.445  24.398  0.00  0.00    +0.041 A 
ENDBRANCH  16  18
ENDBRANCH  10  13
BRANCH   9   6
ATOM      3  O   UNL     1      16.855   5.497  18.558  0.00  0.00    -0.270 OA
ATOM      6  N   UNL     1      15.523   7.204  19.387  0.00  0.00    -0.307 N 
ATOM     15  C   UNL     1      16.676   6.438  19.328  0.00  0.00    +0.244 C 
ATOM     30  H   UNL     1      15.403   7.894  20.122  0.00  0.00    +0.149 HD
BRANCH  15  17
ATOM     17  C   UNL     1      17.741   6.794  20.299  0.00  0.00    +0.037 A 
ATOM     19  C   UNL     1      18.858   5.970  20.441  0.00  0.00    +0.016 A 
ATOM     20  C   UNL     1      17.624   7.950  21.070  0.00  0.00    +0.016 A 
ATOM     23  C   UNL     1      19.859   6.303  21.356  0.00  0.00    +0.046 A 
ATOM     24  C   UNL     1      18.625   8.283  21.984  0.00  0.00    +0.046 A 
ATOM     25  C   UNL     1      19.742   7.459  22.127  0.00  0.00    +0.120 A 
BRANCH  25   4
ATOM      4  O   UNL     1      20.717   7.784  23.018  0.00  0.00    -0.495 OA
ATOM     29  C   UNL     1      22.052   7.405  22.686  0.00  0.00    +0.277 C 
ENDBRANCH  25   4
ENDBRANCH  15  17
ENDBRANCH   9   6
TORSDOF 5
ENDMDL
MODEL 3
REMARK VINA RESULT:      -7.3      4.369      5.618
REMARK  Name = 25338395
REMARK  7 active torsions:
REMARK  status: ('A' for Active; 'I' for Inactive)
REMARK    1  A    between atoms: O_4  and  C_25
REMARK    2  A    between atoms: O_4  and  C_29
REMARK    3  A    between atoms: N_5  and  C_14
REMARK    4  A    between atoms: N_6  and  C_9
REMARK    5  A    between atoms: C_10  and  C_13
REMARK    6  A    between atoms: C_15  and  C_17
REMARK    7  A    between atoms: C_16  and  C_18
REMARK                            x       y       z     vdW  Elec       q    Type
REMARK                         _______ _______ _______ _____ _____    ______ ____
ROOT
ATOM      5  N   UNL     1      14.951   7.624  19.991  0.00  0.00    -0.293 NA
ATOM      9  C   UNL     1      12.919   7.364  21.104  0.00  0.00    +0.089 C 
ATOM     10  C   UNL     1      14.018   7.210  18.927  0.00  0.00    +0.147 C 
ATOM     11  C   UNL     1      12.637   7.181  19.612  0.00  0.00    +0.052 C 
ATOM     12  C   UNL     1      14.407   7.077  21.239  0.00  0.00    +0.107 C 
ATOM     14  C   UNL     1      16.322   7.184  19.757  0.00  0.00    +0.105 C 
ENDROOT
BRANCH  10  13
ATOM      2  O   UNL     1      13.640   7.566  16.539  0.00  0.00    -0.336 OA
ATOM      7  N   UNL     1      14.409   9.369  17.622  0.00  0.00    -0.190 NA
ATOM      8  N   UNL     1      13.752   8.578  15.578  0.00  0.00    -0.056 NA
ATOM     13  C   UNL     1      14.046   8.115  17.714  0.00  0.00    +0.245 A 
ATOM     16  C   UNL     1      14.212   9.609  16.293  0.00  0.00    +0.202 A 
BRANCH  16  18
ATOM      1 CL   UNL     1      15.331  14.930  13.888  0.00  0.00    -0.084 Cl
ATOM     18  C   UNL     1      14.483  10.892  15.712  0.00  0.00    +0.023 A 
ATOM     21  C   UNL     1      15.560  11.652  16.169  0.00  0.00    +0.013 A 
ATOM     22  C   UNL     1      13.668  11.382  14.691  0.00  0.00    +0.013 A 
ATOM     26  C   UNL     1      15.823  12.900  15.605  0.00  0.00    +0.021 A 
ATOM     27  C   UNL     1      13.931  12.630  14.127  0.00  0.00    +0.021 A 
ATOM     28  C   UNL     1      15.008  13.389  14.584  0.00  0.00    +0.041 A 
ENDBRANCH  16  18
ENDBRANCH  10  13
BRANCH   9   6
ATOM      3  O   UNL     1      10.618   8.167  22.620  0.00  0.00    -0.270 OA
ATOM      6  N   UNL     1      12.600   8.703  21.544  0.00  0.00    -0.307 N 
ATOM     15  C   UNL     1      11.460   8.993  22.275  0.00  0.00    +0.244 C 
ATOM     30  H   UNL     1      13.193   9.452  21.201  0.00  0.00    +0.149 HD
BRANCH  15  17
ATOM     17  C   UNL     1      11.262  10.422  22.629  0.00  0.00    +0.037 A 
ATOM     19  C   UNL     1      11.347  11.403  21.640  0.00  0.00    +0.016 A 
ATOM     20  C   UNL     1      10.994  10.783  23.949  0.00  0.00    +0.016 A 
ATOM     23  C   UNL     1      11.164  12.746  21.972  0.00  0.00    +0.046 A 
ATOM     24  C   UNL     1      10.811  12.126  24.281  0.00  0.00    +0.046 A 
ATOM     25  C   UNL     1      10.896  13.107  23.292  0.00  0.00    +0.120 A 
BRANCH  25   4
ATOM      4  O   UNL     1      10.717  14.417  23.617  0.00  0.00    -0.495 OA
ATOM     29  C   UNL     1      10.420  14.713  24.980  0.00  0.00    +0.277 C 
ENDBRANCH  25   4
ENDBRANCH  15  17
ENDBRANCH   9   6
TORSDOF 5
ENDMDL
MODEL 4
REMARK VINA RESULT:      -7.0      4.428      6.895
REMARK  Name = 25338395
REMARK  7 active torsions:
REMARK  status: ('A' for Active; 'I' for Inactive)
REMARK    1  A    between atoms: O_4  and  C_25
REMARK    2  A    between atoms: O_4  and  C_29
REMARK    3  A    between atoms: N_5  and  C_14
REMARK    4  A    between atoms: N_6  and  C_9
REMARK    5  A    between atoms: C_10  and  C_13
REMARK    6  A    between atoms: C_15  and  C_17
REMARK    7  A    between atoms: C_16  and  C_18
REMARK                            x       y       z     vdW  Elec       q    Type
REMARK                         _______ _______ _______ _____ _____    ______ ____
ROOT
ATOM      5  N   UNL     1      13.561   8.725  20.110  0.00  0.00    -0.293 NA
ATOM      9  C   UNL     1      12.410   8.859  18.087  0.00  0.00    +0.089 C 
ATOM     10  C   UNL     1      13.679   7.367  19.547  0.00  0.00    +0.147 C 
ATOM     11  C   UNL     1      13.056   7.474  18.141  0.00  0.00    +0.052 C 
ATOM     12  C   UNL     1      12.331   9.289  19.544  0.00  0.00    +0.107 C 
ATOM     14  C   UNL     1      13.548   8.744  21.567  0.00  0.00    +0.105 C 
ENDROOT
BRANCH  10  13
ATOM      2  O   UNL     1      15.485   6.205  18.381  0.00  0.00    -0.336 OA
ATOM      7  N   UNL     1      16.033   6.924  20.431  0.00  0.00    -0.190 NA
ATOM      8  N   UNL     1      16.817   5.823  18.585  0.00  0.00    -0.056 NA
ATOM     13  C   UNL     1      15.100   6.848  19.515  0.00  0.00    +0.245 A 
ATOM     16  C   UNL     1      17.067   6.282  19.815  0.00  0.00    +0.202 A 
BRANCH  16  18
ATOM      1 CL   UNL     1      22.343   5.606  22.471  0.00  0.00    -0.084 Cl
ATOM     18  C   UNL     1      18.340   6.117  20.456  0.00  0.00    +0.023 A 
ATOM     21  C   UNL     1      18.648   6.862  21.595  0.00  0.00    +0.013 A 
ATOM     22  C   UNL     1      19.270   5.215  19.941  0.00  0.00    +0.013 A 
ATOM     26  C   UNL     1      19.886   6.704  22.218  0.00  0.00    +0.021 A 
ATOM     27  C   UNL     1      20.507   5.056  20.564  0.00  0.00    +0.021 A 
ATOM     28  C   UNL     1      20.815   5.801  21.703  0.00  0.00    +0.041 A 
ENDBRANCH  16  18
ENDBRANCH  10  13
BRANCH   9   6
ATOM      3  O   UNL     1      12.397   9.140  15.230  0.00  0.00    -0.270 OA
ATOM      6  N   UNL     1      13.200   9.783  17.307  0.00  0.00    -0.307 N 
ATOM     15  C   UNL     1      13.124   9.845  15.925  0.00  0.00    +0.244 C 
ATOM     30  H   UNL     1      13.902  10.320  17.806  0.00  0.00    +0.149 HD
BRANCH  15  17
ATOM     17  C   UNL     1      14.020  10.832  15.270  0.00  0.00    +0.037 A 
ATOM     19  C   UNL     1      15.377  10.862  15.592  0.00  0.00    +0.016 A 
ATOM     20  C   UNL     1      13.505  11.729  14.335  0.00  0.00    +0.016 A 
ATOM     23  C   UNL     1      16.219  11.790  14.978  0.00  0.00    +0.046 A 
ATOM     24  C   UNL     1      14.346  12.658  13.721  0.00  0.00    +0.046 A 
ATOM     25  C   UNL     1      15.704  12.688  14.043  0.00  0.00    +0.120 A 
BRANCH  25   4
ATOM      4  O   UNL     1      16.524  13.593  13.444  0.00  0.00    -0.495 OA
ATOM     29  C   UNL     1      15.903  14.651  12.716  0.00  0.00    +0.277 C 
ENDBRANCH  25   4
ENDBRANCH  15  17
ENDBRANCH   9   6
TORSDOF 5
ENDMDL
MODEL 5
REMARK VINA RESULT:      -6.9     27.860     30.247
REMARK  Name = 25338395
REMARK  7 active torsions:
REMARK  status: ('A' for Active; 'I' for Inactive)
REMARK    1  A    between atoms: O_4  and  C_25
REMARK    2  A    between atoms: O_4  and  C_29
REMARK    3  A    between atoms: N_5  and  C_14
REMARK    4  A    between atoms: N_6  and  C_9
REMARK    5  A    between atoms: C_10  and  C_13
REMARK    6  A    between atoms: C_15  and  C_17
REMARK    7  A    between atoms: C_16  and  C_18
REMARK                            x       y       z     vdW  Elec       q    Type
REMARK                         _______ _______ _______ _____ _____    ______ ____
ROOT
ATOM      5  N   UNL     1      -4.318 -13.025  15.371  0.00  0.00    -0.293 NA
ATOM      9  C   UNL     1      -2.634 -11.872  14.245  0.00  0.00    +0.089 C 
ATOM     10  C   UNL     1      -4.103 -11.821  16.196  0.00  0.00    +0.147 C 
ATOM     11  C   UNL     1      -3.102 -10.972  15.388  0.00  0.00    +0.052 C 
ATOM     12  C   UNL     1      -3.049 -13.270  14.679  0.00  0.00    +0.107 C 
ATOM     14  C   UNL     1      -4.748 -14.183  16.145  0.00  0.00    +0.105 C 
ENDROOT
BRANCH  10  13
ATOM      2  O   UNL     1      -5.586  -9.914  15.832  0.00  0.00    -0.336 OA
ATOM      7  N   UNL     1      -6.330 -11.372  17.361  0.00  0.00    -0.190 NA
ATOM      8  N   UNL     1      -6.810  -9.408  16.288  0.00  0.00    -0.056 NA
ATOM     13  C   UNL     1      -5.379 -11.071  16.513  0.00  0.00    +0.245 A 
ATOM     16  C   UNL     1      -7.185 -10.323  17.188  0.00  0.00    +0.202 A 
BRANCH  16  18
ATOM      1 CL   UNL     1     -12.258  -9.893  20.258  0.00  0.00    -0.084 Cl
ATOM     18  C   UNL     1      -8.410 -10.220  17.928  0.00  0.00    +0.023 A 
ATOM     21  C   UNL     1      -9.426  -9.376  17.482  0.00  0.00    +0.013 A 
ATOM     22  C   UNL     1      -8.585 -10.964  19.095  0.00  0.00    +0.013 A 
ATOM     26  C   UNL     1     -10.616  -9.274  18.202  0.00  0.00    +0.021 A 
ATOM     27  C   UNL     1      -9.774 -10.863  19.815  0.00  0.00    +0.021 A 
ATOM     28  C   UNL     1     -10.790 -10.018  19.368  0.00  0.00    +0.041 A 
ENDBRANCH  16  18
ENDBRANCH  10  13
BRANCH   9   6
ATOM      3  O   UNL     1      -1.385 -10.506  12.050  0.00  0.00    -0.270 OA
ATOM      6  N   UNL     1      -3.253 -11.505  12.992  0.00  0.00    -0.307 N 
ATOM     15  C   UNL     1      -2.564 -10.844  11.988  0.00  0.00    +0.244 C 
ATOM     30  H   UNL     1      -4.253 -11.654  12.914  0.00  0.00    +0.149 HD
BRANCH  15  17
ATOM     17  C   UNL     1      -3.350 -10.514  10.772  0.00  0.00    +0.037 A 
ATOM     19  C   UNL     1      -3.347  -9.211  10.272  0.00  0.00    +0.016 A 
ATOM     20  C   UNL     1      -4.093 -11.505  10.131  0.00  0.00    +0.016 A 
ATOM     23  C   UNL     1      -4.087  -8.901   9.130  0.00  0.00    +0.046 A 
ATOM     24  C   UNL     1      -4.834 -11.194   8.990  0.00  0.00    +0.046 A 
ATOM     25  C   UNL     1      -4.830  -9.892   8.490  0.00  0.00    +0.120 A 
BRANCH  25   4
ATOM      4  O   UNL     1      -5.552  -9.589   7.376  0.00  0.00    -0.495 OA
ATOM     29  C   UNL     1      -5.560 -10.555   6.326  0.00  0.00    +0.277 C 
ENDBRANCH  25   4
ENDBRANCH  15  17
ENDBRANCH   9   6
TORSDOF 5
ENDMDL
MODEL 6
REMARK VINA RESULT:      -6.9     27.749     30.080
REMARK  Name = 25338395
REMARK  7 active torsions:
REMARK  status: ('A' for Active; 'I' for Inactive)
REMARK    1  A    between atoms: O_4  and  C_25
REMARK    2  A    between atoms: O_4  and  C_29
REMARK    3  A    between atoms: N_5  and  C_14
REMARK    4  A    between atoms: N_6  and  C_9
REMARK    5  A    between atoms: C_10  and  C_13
REMARK    6  A    between atoms: C_15  and  C_17
REMARK    7  A    between atoms: C_16  and  C_18
REMARK                            x       y       z     vdW  Elec       q    Type
REMARK                         _______ _______ _______ _____ _____    ______ ____
ROOT
ATOM      5  N   UNL     1      -5.925 -12.120  16.807  0.00  0.00    -0.293 NA
ATOM      9  C   UNL     1      -4.049 -10.815  16.342  0.00  0.00    +0.089 C 
ATOM     10  C   UNL     1      -6.097 -10.936  17.670  0.00  0.00    +0.147 C 
ATOM     11  C   UNL     1      -4.947  -9.992  17.266  0.00  0.00    +0.052 C 
ATOM     12  C   UNL     1      -4.480 -12.253  16.590  0.00  0.00    +0.107 C 
ATOM     14  C   UNL     1      -6.504 -13.332  17.372  0.00  0.00    +0.105 C 
ENDROOT
BRANCH  10  13
ATOM      2  O   UNL     1      -8.387 -10.633  18.465  0.00  0.00    -0.336 OA
ATOM      7  N   UNL     1      -7.882  -9.423  16.650  0.00  0.00    -0.190 NA
ATOM      8  N   UNL     1      -9.545  -9.915  18.142  0.00  0.00    -0.056 NA
ATOM     13  C   UNL     1      -7.457 -10.285  17.538  0.00  0.00    +0.245 A 
ATOM     16  C   UNL     1      -9.168  -9.226  17.061  0.00  0.00    +0.202 A 
BRANCH  16  18
ATOM      1 CL   UNL     1     -12.828  -5.515  14.201  0.00  0.00    -0.084 Cl
ATOM     18  C   UNL     1     -10.051  -8.330  16.370  0.00  0.00    +0.023 A 
ATOM     21  C   UNL     1     -10.429  -7.127  16.966  0.00  0.00    +0.013 A 
ATOM     22  C   UNL     1     -10.531  -8.662  15.103  0.00  0.00    +0.013 A 
ATOM     26  C   UNL     1     -11.288  -6.256  16.295  0.00  0.00    +0.021 A 
ATOM     27  C   UNL     1     -11.389  -7.791  14.433  0.00  0.00    +0.021 A 
ATOM     28  C   UNL     1     -11.768  -6.589  15.029  0.00  0.00    +0.041 A 
ENDBRANCH  16  18
ENDBRANCH  10  13
BRANCH   9   6
ATOM      3  O   UNL     1      -2.265 -11.389  14.168  0.00  0.00    -0.270 OA
ATOM      6  N   UNL     1      -4.228 -10.444  14.958  0.00  0.00    -0.307 N 
ATOM     15  C   UNL     1      -3.307 -10.768  13.976  0.00  0.00    +0.244 C 
ATOM     30  H   UNL     1      -5.012  -9.834  14.745  0.00  0.00    +0.149 HD
BRANCH  15  17
ATOM     17  C   UNL     1      -3.625 -10.290  12.606  0.00  0.00    +0.037 A 
ATOM     19  C   UNL     1      -4.947 -10.024  12.249  0.00  0.00    +0.016 A 
ATOM     20  C   UNL     1      -2.602 -10.110  11.675  0.00  0.00    +0.016 A 
ATOM     23  C   UNL     1      -5.246  -9.578  10.961  0.00  0.00    +0.046 A 
ATOM     24  C   UNL     1      -2.901  -9.664  10.387  0.00  0.00    +0.046 A 
ATOM     25  C   UNL     1      -4.224  -9.398  10.031  0.00  0.00    +0.120 A 
BRANCH  25   4
ATOM      4  O   UNL     1      -4.515  -8.962   8.775  0.00  0.00    -0.495 OA
ATOM     29  C   UNL     1      -5.068  -9.915   7.869  0.00  0.00    +0.277 C 
ENDBRANCH  25   4
ENDBRANCH  15  17
ENDBRANCH   9   6
TORSDOF 5
ENDMDL
MODEL 7
REMARK VINA RESULT:      -6.7     24.527     27.648
REMARK  Name = 25338395
REMARK  7 active torsions:
REMARK  status: ('A' for Active; 'I' for Inactive)
REMARK    1  A    between atoms: O_4  and  C_25
REMARK    2  A    between atoms: O_4  and  C_29
REMARK    3  A    between atoms: N_5  and  C_14
REMARK    4  A    between atoms: N_6  and  C_9
REMARK    5  A    between atoms: C_10  and  C_13
REMARK    6  A    between atoms: C_15  and  C_17
REMARK    7  A    between atoms: C_16  and  C_18
REMARK                            x       y       z     vdW  Elec       q    Type
REMARK                         _______ _______ _______ _____ _____    ______ ____
ROOT
ATOM      5  N   UNL     1       6.639   7.174  -4.998  0.00  0.00    -0.293 NA
ATOM      9  C   UNL     1       4.602   7.332  -3.876  0.00  0.00    +0.089 C 
ATOM     10  C   UNL     1       7.027   7.308  -3.581  0.00  0.00    +0.147 C 
ATOM     11  C   UNL     1       5.694   7.261  -2.808  0.00  0.00    +0.052 C 
ATOM     12  C   UNL     1       5.329   7.822  -5.119  0.00  0.00    +0.107 C 
ATOM     14  C   UNL     1       7.616   7.745  -5.917  0.00  0.00    +0.105 C 
ENDROOT
BRANCH  10  13
ATOM      2  O   UNL     1       8.059   5.111  -3.861  0.00  0.00    -0.336 OA
ATOM      7  N   UNL     1       8.819   6.260  -2.095  0.00  0.00    -0.190 NA
ATOM      8  N   UNL     1       9.019   4.294  -3.249  0.00  0.00    -0.056 NA
ATOM     13  C   UNL     1       8.004   6.248  -3.119  0.00  0.00    +0.245 A 
ATOM     16  C   UNL     1       9.420   5.040  -2.216  0.00  0.00    +0.202 A 
BRANCH  16  18
ATOM      1 CL   UNL     1      13.564   3.206   1.632  0.00  0.00    -0.084 Cl
ATOM     18  C   UNL     1      10.420   4.599  -1.287  0.00  0.00    +0.023 A 
ATOM     21  C   UNL     1      11.527   3.882  -1.743  0.00  0.00    +0.013 A 
ATOM     22  C   UNL     1      10.287   4.884   0.072  0.00  0.00    +0.013 A 
ATOM     26  C   UNL     1      12.499   3.452  -0.840  0.00  0.00    +0.021 A 
ATOM     27  C   UNL     1      11.259   4.454   0.974  0.00  0.00    +0.021 A 
ATOM     28  C   UNL     1      12.365   3.738   0.518  0.00  0.00    +0.041 A 
ENDBRANCH  16  18
ENDBRANCH  10  13
BRANCH   9   6
ATOM      3  O   UNL     1       2.021   6.832  -5.030  0.00  0.00    -0.270 OA
ATOM      6  N   UNL     1       3.991   6.042  -4.098  0.00  0.00    -0.307 N 
ATOM     15  C   UNL     1       2.735   5.901  -4.665  0.00  0.00    +0.244 C 
ATOM     30  H   UNL     1       4.476   5.234  -3.720  0.00  0.00    +0.149 HD
BRANCH  15  17
ATOM     17  C   UNL     1       2.237   4.509  -4.801  0.00  0.00    +0.037 A 
ATOM     19  C   UNL     1       0.976   4.168  -4.313  0.00  0.00    +0.016 A 
ATOM     20  C   UNL     1       3.032   3.541  -5.416  0.00  0.00    +0.016 A 
ATOM     23  C   UNL     1       0.509   2.859  -4.439  0.00  0.00    +0.046 A 
ATOM     24  C   UNL     1       2.565   2.232  -5.542  0.00  0.00    +0.046 A 
ATOM     25  C   UNL     1       1.304   1.891  -5.054  0.00  0.00    +0.120 A 
BRANCH  25   4
ATOM      4  O   UNL     1       0.848   0.615  -5.178  0.00  0.00    -0.495 OA
ATOM     29  C   UNL     1      -0.182   0.384  -6.136  0.00  0.00    +0.277 C 
ENDBRANCH  25   4
ENDBRANCH  15  17
ENDBRANCH   9   6
TORSDOF 5
ENDMDL
MODEL 8
REMARK VINA RESULT:      -6.7     15.266     18.419
REMARK  Name = 25338395
REMARK  7 active torsions:
REMARK  status: ('A' for Active; 'I' for Inactive)
REMARK    1  A    between atoms: O_4  and  C_25
REMARK    2  A    between atoms: O_4  and  C_29
REMARK    3  A    between atoms: N_5  and  C_14
REMARK    4  A    between atoms: N_6  and  C_9
REMARK    5  A    between atoms: C_10  and  C_13
REMARK    6  A    between atoms: C_15  and  C_17
REMARK    7  A    between atoms: C_16  and  C_18
REMARK                            x       y       z     vdW  Elec       q    Type
REMARK                         _______ _______ _______ _____ _____    ______ ____
ROOT
ATOM      5  N   UNL     1      14.151   4.740   1.586  0.00  0.00    -0.293 NA
ATOM      9  C   UNL     1      11.915   5.339   1.861  0.00  0.00    +0.089 C 
ATOM     10  C   UNL     1      14.108   6.151   1.154  0.00  0.00    +0.147 C 
ATOM     11  C   UNL     1      12.671   6.609   1.472  0.00  0.00    +0.052 C 
ATOM     12  C   UNL     1      12.803   4.210   1.360  0.00  0.00    +0.107 C 
ATOM     14  C   UNL     1      15.167   3.958   0.892  0.00  0.00    +0.105 C 
ENDROOT
BRANCH  10  13
ATOM      2  O   UNL     1      15.529   8.138   1.148  0.00  0.00    -0.336 OA
ATOM      7  N   UNL     1      15.770   6.848   2.963  0.00  0.00    -0.190 NA
ATOM      8  N   UNL     1      16.493   8.767   1.947  0.00  0.00    -0.056 NA
ATOM     13  C   UNL     1      15.156   7.018   1.819  0.00  0.00    +0.245 A 
ATOM     16  C   UNL     1      16.580   7.946   2.998  0.00  0.00    +0.202 A 
BRANCH  16  18
ATOM      1 CL   UNL     1      20.240   8.981   7.567  0.00  0.00    -0.084 Cl
ATOM     18  C   UNL     1      17.463   8.194   4.101  0.00  0.00    +0.023 A 
ATOM     21  C   UNL     1      16.949   8.638   5.319  0.00  0.00    +0.013 A 
ATOM     22  C   UNL     1      18.836   7.994   3.954  0.00  0.00    +0.013 A 
ATOM     26  C   UNL     1      17.808   8.881   6.391  0.00  0.00    +0.021 A 
ATOM     27  C   UNL     1      19.694   8.237   5.026  0.00  0.00    +0.021 A 
ATOM     28  C   UNL     1      19.180   8.680   6.244  0.00  0.00    +0.041 A 
ENDBRANCH  16  18
ENDBRANCH  10  13
BRANCH   9   6
ATOM      3  O   UNL     1       9.718   6.431   3.352  0.00  0.00    -0.270 OA
ATOM      6  N   UNL     1      11.715   5.256   3.290  0.00  0.00    -0.307 N 
ATOM     15  C   UNL     1      10.617   5.818   3.921  0.00  0.00    +0.244 C 
ATOM     30  H   UNL     1      12.473   4.860   3.836  0.00  0.00    +0.149 HD
BRANCH  15  17
ATOM     17  C   UNL     1      10.571   5.668   5.398  0.00  0.00    +0.037 A 
ATOM     19  C   UNL     1       9.753   4.697   5.975  0.00  0.00    +0.016 A 
ATOM     20  C   UNL     1      11.344   6.499   6.207  0.00  0.00    +0.016 A 
ATOM     23  C   UNL     1       9.707   4.557   7.363  0.00  0.00    +0.046 A 
ATOM     24  C   UNL     1      11.299   6.360   7.595  0.00  0.00    +0.046 A 
ATOM     25  C   UNL     1      10.481   5.389   8.172  0.00  0.00    +0.120 A 
BRANCH  25   4
ATOM      4  O   UNL     1      10.437   5.253   9.526  0.00  0.00    -0.495 OA
ATOM     29  C   UNL     1       9.272   4.644  10.080  0.00  0.00    +0.277 C 
ENDBRANCH  25   4
ENDBRANCH  15  17
ENDBRANCH   9   6
TORSDOF 5
ENDMDL
MODEL 9
REMARK VINA RESULT:      -6.6     29.408     31.277
REMARK  Name = 25338395
REMARK  7 active torsions:
REMARK  status: ('A' for Active; 'I' for Inactive)
REMARK    1  A    between atoms: O_4  and  C_25
REMARK    2  A    between atoms: O_4  and  C_29
REMARK    3  A    between atoms: N_5  and  C_14
REMARK    4  A    between atoms: N_6  and  C_9
REMARK    5  A    between atoms: C_10  and  C_13
REMARK    6  A    between atoms: C_15  and  C_17
REMARK    7  A    between atoms: C_16  and  C_18
REMARK                            x       y       z     vdW  Elec       q    Type
REMARK                         _______ _______ _______ _____ _____    ______ ____
ROOT
ATOM      5  N   UNL     1     -13.755  -6.027  12.100  0.00  0.00    -0.293 NA
ATOM      9  C   UNL     1     -12.936  -5.479  14.213  0.00  0.00    +0.089 C 
ATOM     10  C   UNL     1     -13.078  -4.733  11.892  0.00  0.00    +0.147 C 
ATOM     11  C   UNL     1     -12.401  -4.428  13.242  0.00  0.00    +0.052 C 
ATOM     12  C   UNL     1     -14.160  -6.046  13.510  0.00  0.00    +0.107 C 
ATOM     14  C   UNL     1     -14.887  -6.234  11.206  0.00  0.00    +0.105 C 
ENDROOT
BRANCH  10  13
ATOM      2  O   UNL     1     -11.640  -3.533  10.322  0.00  0.00    -0.336 OA
ATOM      7  N   UNL     1     -11.618  -5.758  10.066  0.00  0.00    -0.190 NA
ATOM      8  N   UNL     1     -10.762  -3.794   9.263  0.00  0.00    -0.056 NA
ATOM     13  C   UNL     1     -12.099  -4.743  10.738  0.00  0.00    +0.245 A 
ATOM     16  C   UNL     1     -10.803  -5.127   9.172  0.00  0.00    +0.202 A 
BRANCH  16  18
ATOM      1 CL   UNL     1      -7.646  -8.163   5.152  0.00  0.00    -0.084 Cl
ATOM     18  C   UNL     1     -10.041  -5.858   8.201  0.00  0.00    +0.023 A 
ATOM     21  C   UNL     1     -10.677  -6.416   7.092  0.00  0.00    +0.013 A 
ATOM     22  C   UNL     1      -8.665  -6.013   8.367  0.00  0.00    +0.013 A 
ATOM     26  C   UNL     1      -9.936  -7.129   6.148  0.00  0.00    +0.021 A 
ATOM     27  C   UNL     1      -7.925  -6.725   7.424  0.00  0.00    +0.021 A 
ATOM     28  C   UNL     1      -8.560  -7.283   6.315  0.00  0.00    +0.041 A 
ENDBRANCH  16  18
ENDBRANCH  10  13
BRANCH   9   6
ATOM      3  O   UNL     1     -11.396  -5.811  16.614  0.00  0.00    -0.270 OA
ATOM      6  N   UNL     1     -11.957  -6.508  14.475  0.00  0.00    -0.307 N 
ATOM     15  C   UNL     1     -11.261  -6.587  15.671  0.00  0.00    +0.244 C 
ATOM     30  H   UNL     1     -11.714  -7.118  13.700  0.00  0.00    +0.149 HD
BRANCH  15  17
ATOM     17  C   UNL     1     -10.270  -7.688  15.773  0.00  0.00    +0.037 A 
ATOM     19  C   UNL     1     -10.042  -8.525  14.681  0.00  0.00    +0.016 A 
ATOM     20  C   UNL     1      -9.569  -7.887  16.962  0.00  0.00    +0.016 A 
ATOM     23  C   UNL     1      -9.113  -9.561  14.778  0.00  0.00    +0.046 A 
ATOM     24  C   UNL     1      -8.639  -8.923  17.059  0.00  0.00    +0.046 A 
ATOM     25  C   UNL     1      -8.411  -9.760  15.967  0.00  0.00    +0.120 A 
BRANCH  25   4
ATOM      4  O   UNL     1      -7.504 -10.770  16.061  0.00  0.00    -0.495 OA
ATOM     29  C   UNL     1      -6.183 -10.419  16.467  0.00  0.00    +0.277 C 
ENDBRANCH  25   4
ENDBRANCH  15  17
ENDBRANCH   9   6
TORSDOF 5
ENDMDL
MODEL 10
REMARK VINA RESULT:      -6.6     27.810     30.064
REMARK  Name = 25338395
REMARK  7 active torsions:
REMARK  status: ('A' for Active; 'I' for Inactive)
REMARK    1  A    between atoms: O_4  and  C_25
REMARK    2  A    between atoms: O_4  and  C_29
REMARK    3  A    between atoms: N_5  and  C_14
REMARK    4  A    between atoms: N_6  and  C_9
REMARK    5  A    between atoms: C_10  and  C_13
REMARK    6  A    between atoms: C_15  and  C_17
REMARK    7  A    between atoms: C_16  and  C_18
REMARK                            x       y       z     vdW  Elec       q    Type
REMARK                         _______ _______ _______ _____ _____    ______ ____
ROOT
ATOM      5  N   UNL     1      -4.348 -12.995  15.422  0.00  0.00    -0.293 NA
ATOM      9  C   UNL     1      -2.645 -11.887  14.277  0.00  0.00    +0.089 C 
ATOM     10  C   UNL     1      -4.089 -11.799  16.246  0.00  0.00    +0.147 C 
ATOM     11  C   UNL     1      -3.074 -10.977  15.428  0.00  0.00    +0.052 C 
ATOM     12  C   UNL     1      -3.094 -13.274  14.714  0.00  0.00    +0.107 C 
ATOM     14  C   UNL     1      -4.800 -14.142  16.199  0.00  0.00    +0.105 C 
ENDROOT
BRANCH  10  13
ATOM      2  O   UNL     1      -5.544 -10.730  17.892  0.00  0.00    -0.336 OA
ATOM      7  N   UNL     1      -6.272 -10.560  15.781  0.00  0.00    -0.190 NA
ATOM      8  N   UNL     1      -6.743 -10.009  17.952  0.00  0.00    -0.056 NA
ATOM     13  C   UNL     1      -5.339 -11.014  16.580  0.00  0.00    +0.245 A 
ATOM     16  C   UNL     1      -7.112  -9.951  16.668  0.00  0.00    +0.202 A 
BRANCH  16  18
ATOM      1 CL   UNL     1     -12.076  -7.209  14.884  0.00  0.00    -0.084 Cl
ATOM     18  C   UNL     1      -8.310  -9.290  16.239  0.00  0.00    +0.023 A 
ATOM     21  C   UNL     1      -8.829  -9.544  14.969  0.00  0.00    +0.013 A 
ATOM     22  C   UNL     1      -8.956  -8.393  17.089  0.00  0.00    +0.013 A 
ATOM     26  C   UNL     1      -9.994  -8.901  14.550  0.00  0.00    +0.021 A 
ATOM     27  C   UNL     1     -10.120  -7.750  16.670  0.00  0.00    +0.021 A 
ATOM     28  C   UNL     1     -10.639  -8.004  15.401  0.00  0.00    +0.041 A 
ENDBRANCH  16  18
ENDBRANCH  10  13
BRANCH   9   6
ATOM      3  O   UNL     1      -1.401 -10.497  12.095  0.00  0.00    -0.270 OA
ATOM      6  N   UNL     1      -3.269 -11.500  13.033  0.00  0.00    -0.307 N 
ATOM     15  C   UNL     1      -2.582 -10.829  12.034  0.00  0.00    +0.244 C 
ATOM     30  H   UNL     1      -4.271 -11.644  12.958  0.00  0.00    +0.149 HD
BRANCH  15  17
ATOM     17  C   UNL     1      -3.373 -10.479  10.826  0.00  0.00    +0.037 A 
ATOM     19  C   UNL     1      -4.123 -11.459  10.176  0.00  0.00    +0.016 A 
ATOM     20  C   UNL     1      -3.363  -9.172  10.341  0.00  0.00    +0.016 A 
ATOM     23  C   UNL     1      -4.863 -11.132   9.040  0.00  0.00    +0.046 A 
ATOM     24  C   UNL     1      -4.104  -8.844   9.205  0.00  0.00    +0.046 A 
ATOM     25  C   UNL     1      -4.854  -9.824   8.554  0.00  0.00    +0.120 A 
BRANCH  25   4
ATOM      4  O   UNL     1      -5.577  -9.504   7.447  0.00  0.00    -0.495 OA
ATOM     29  C   UNL     1      -6.770 -10.251   7.212  0.00  0.00    +0.277 C 
ENDBRANCH  25   4
ENDBRANCH  15  17
ENDBRANCH   9   6
TORSDOF 5
ENDMDL
