MODEL 1
REMARK VINA RESULT:      -6.8      0.000      0.000
REMARK  Name = 11883067
REMARK  11 active torsions:
REMARK  status: ('A' for Active; 'I' for Inactive)
REMARK    1  A    between atoms: O_2  and  C_15
REMARK    2  A    between atoms: O_3  and  C_20
REMARK    3  A    between atoms: N_8  and  C_26
REMARK    4  A    between atoms: N_8  and  C_27
REMARK    5  A    between atoms: C_10  and  C_18
REMARK    6  A    between atoms: C_12  and  C_20
REMARK    7  A    between atoms: C_12  and  C_21
REMARK    8  A    between atoms: C_13  and  C_23
REMARK    9  A    between atoms: C_23  and  C_24
REMARK   10  A    between atoms: C_26  and  C_29
REMARK   11  A    between atoms: C_28  and  C_30
REMARK                            x       y       z     vdW  Elec       q    Type
REMARK                         _______ _______ _______ _____ _____    ______ ____
ROOT
ATOM      1  S   UNL     1      17.923   6.100  19.792  0.00  0.00    -0.057 S 
ATOM      5  O   UNL     1      20.904   8.395  22.478  0.00  0.00    -0.266 OA
ATOM      7  N   UNL     1      18.245   8.179  21.297  0.00  0.00    -0.229 NA
ATOM      9  N   UNL     1      20.139   6.707  21.055  0.00  0.00    -0.258 N 
ATOM     10  C   UNL     1      14.739   9.352  20.204  0.00  0.00    -0.019 C 
ATOM     11  C   UNL     1      14.209   7.861  20.026  0.00  0.00    +0.011 C 
ATOM     12  C   UNL     1      12.756   7.682  19.439  0.00  0.00    +0.021 C 
ATOM     13  C   UNL     1      15.995   9.315  21.190  0.00  0.00    +0.054 C 
ATOM     14  C   UNL     1      13.631  10.218  20.856  0.00  0.00    +0.010 C 
ATOM     15  C   UNL     1      11.785   8.652  20.170  0.00  0.00    +0.123 C 
ATOM     16  C   UNL     1      15.276   6.955  19.345  0.00  0.00    +0.049 C 
ATOM     17  C   UNL     1      12.273  10.097  20.179  0.00  0.00    +0.032 C 
ATOM     18  C   UNL     1      15.155  10.005  18.862  0.00  0.00    +0.012 C 
ATOM     19  C   UNL     1      16.953   8.216  20.805  0.00  0.00    +0.058 A 
ATOM     21  C   UNL     1      12.267   6.234  19.728  0.00  0.00    +0.016 C 
ATOM     22  C   UNL     1      16.604   7.158  19.992  0.00  0.00    +0.015 A 
ATOM     25  C   UNL     1      18.851   7.112  20.823  0.00  0.00    +0.165 A 
ATOM     28  C   UNL     1      21.105   7.352  21.861  0.00  0.00    +0.285 C 
ATOM     41  H   UNL     1      20.412   5.849  20.583  0.00  0.00    +0.157 HD
ENDROOT
BRANCH  28  30
ATOM      6  O   UNL     1      22.473   5.352  22.017  0.00  0.00    -0.458 OA
ATOM     30  C   UNL     1      22.428   6.705  21.886  0.00  0.00    +0.189 A 
ATOM     33  C   UNL     1      23.700   7.223  21.799  0.00  0.00    +0.054 A 
ATOM     37  C   UNL     1      24.581   6.119  21.881  0.00  0.00    +0.042 A 
ATOM     38  C   UNL     1      23.786   5.005  22.013  0.00  0.00    +0.196 A 
ENDBRANCH  28  30
BRANCH  15   2
ATOM      2  O   UNL     1      10.488   8.609  19.576  0.00  0.00    -0.391 OA
ATOM     39  H   UNL     1      10.417   9.365  18.969  0.00  0.00    +0.210 HD
ENDBRANCH  15   2
BRANCH  12  20
ATOM     20  C   UNL     1      12.658   7.855  17.908  0.00  0.00    +0.165 C 
BRANCH  20   3
ATOM      3  O   UNL     1      11.776   6.871  17.417  0.00  0.00    -0.394 OA
ATOM     40  H   UNL     1      11.826   6.894  16.446  0.00  0.00    +0.209 HD
ENDBRANCH  20   3
ENDBRANCH  12  20
BRANCH  13  23
ATOM     23  C   UNL     1      16.718  10.659  21.353  0.00  0.00    +0.106 C 
BRANCH  23  24
ATOM      4  O   UNL     1      15.595  11.321  23.365  0.00  0.00    -0.276 OA
ATOM      8  N   UNL     1      15.640  12.863  21.634  0.00  0.00    -0.300 N 
ATOM     24  C   UNL     1      15.936  11.627  22.220  0.00  0.00    +0.216 C 
ATOM     27  C   UNL     1      16.054  13.204  20.279  0.00  0.00    +0.132 C 
BRANCH   8  26
ATOM     26  C   UNL     1      14.897  13.905  22.337  0.00  0.00    +0.142 C 
BRANCH  26  29
ATOM     29  C   UNL     1      13.412  13.745  22.173  0.00  0.00    -0.030 A 
ATOM     31  C   UNL     1      12.784  14.209  21.017  0.00  0.00    +0.005 A 
ATOM     32  C   UNL     1      12.663  13.129  23.175  0.00  0.00    +0.005 A 
ATOM     34  C   UNL     1      11.407  14.058  20.864  0.00  0.00    +0.000 A 
ATOM     35  C   UNL     1      11.284  12.979  23.022  0.00  0.00    +0.000 A 
ATOM     36  C   UNL     1      10.656  13.444  21.867  0.00  0.00    +0.000 A 
ENDBRANCH  26  29
ENDBRANCH   8  26
ENDBRANCH  23  24
ENDBRANCH  13  23
TORSDOF 8
ENDMDL
MODEL 2
REMARK VINA RESULT:      -6.6     27.492     31.578
REMARK  Name = 11883067
REMARK  11 active torsions:
REMARK  status: ('A' for Active; 'I' for Inactive)
REMARK    1  A    between atoms: O_2  and  C_15
REMARK    2  A    between atoms: O_3  and  C_20
REMARK    3  A    between atoms: N_8  and  C_26
REMARK    4  A    between atoms: N_8  and  C_27
REMARK    5  A    between atoms: C_10  and  C_18
REMARK    6  A    between atoms: C_12  and  C_20
REMARK    7  A    between atoms: C_12  and  C_21
REMARK    8  A    between atoms: C_13  and  C_23
REMARK    9  A    between atoms: C_23  and  C_24
REMARK   10  A    between atoms: C_26  and  C_29
REMARK   11  A    between atoms: C_28  and  C_30
REMARK                            x       y       z     vdW  Elec       q    Type
REMARK                         _______ _______ _______ _____ _____    ______ ____
ROOT
ATOM      1  S   UNL     1      -4.106  -9.501   9.425  0.00  0.00    -0.057 S 
ATOM      5  O   UNL     1      -8.589  -8.569   8.788  0.00  0.00    -0.266 OA
ATOM      7  N   UNL     1      -6.432  -9.424  10.556  0.00  0.00    -0.229 NA
ATOM      9  N   UNL     1      -6.332  -8.797   8.230  0.00  0.00    -0.258 N 
ATOM     10  C   UNL     1      -4.816 -10.988  13.688  0.00  0.00    -0.019 C 
ATOM     11  C   UNL     1      -3.410 -10.297  13.404  0.00  0.00    +0.011 C 
ATOM     12  C   UNL     1      -2.216 -10.682  14.361  0.00  0.00    +0.021 C 
ATOM     13  C   UNL     1      -5.941 -10.151  12.921  0.00  0.00    +0.054 C 
ATOM     14  C   UNL     1      -5.119 -10.934  15.208  0.00  0.00    +0.010 C 
ATOM     15  C   UNL     1      -2.703 -10.622  15.837  0.00  0.00    +0.123 C 
ATOM     16  C   UNL     1      -3.044 -10.351  11.893  0.00  0.00    +0.049 C 
ATOM     17  C   UNL     1      -3.975 -11.426  16.083  0.00  0.00    +0.032 C 
ATOM     18  C   UNL     1      -4.865 -12.464  13.223  0.00  0.00    +0.012 C 
ATOM     19  C   UNL     1      -5.521  -9.852  11.504  0.00  0.00    +0.058 A 
ATOM     21  C   UNL     1      -1.082  -9.629  14.206  0.00  0.00    +0.016 C 
ATOM     22  C   UNL     1      -4.214  -9.930  11.070  0.00  0.00    +0.015 A 
ATOM     25  C   UNL     1      -5.800  -9.217   9.421  0.00  0.00    +0.165 A 
ATOM     28  C   UNL     1      -7.686  -8.493   7.959  0.00  0.00    +0.285 C 
ATOM     41  H   UNL     1      -5.664  -8.706   7.470  0.00  0.00    +0.157 HD
ENDROOT
BRANCH  28  30
ATOM      6  O   UNL     1      -7.106  -8.523   5.602  0.00  0.00    -0.458 OA
ATOM     30  C   UNL     1      -7.971  -8.109   6.566  0.00  0.00    +0.189 A 
ATOM     33  C   UNL     1      -8.994  -7.374   6.013  0.00  0.00    +0.054 A 
ATOM     37  C   UNL     1      -8.742  -7.334   4.621  0.00  0.00    +0.042 A 
ATOM     38  C   UNL     1      -7.583  -8.047   4.422  0.00  0.00    +0.196 A 
ENDBRANCH  28  30
BRANCH  15   2
ATOM      2  O   UNL     1      -1.686 -11.090  16.722  0.00  0.00    -0.391 OA
ATOM     39  H   UNL     1      -1.977 -11.944  17.081  0.00  0.00    +0.210 HD
ENDBRANCH  15   2
BRANCH  12  20
ATOM     20  C   UNL     1      -1.562 -12.046  14.052  0.00  0.00    +0.165 C 
BRANCH  20   3
ATOM      3  O   UNL     1      -2.207 -13.022  14.839  0.00  0.00    -0.394 OA
ATOM     40  H   UNL     1      -2.484 -13.739  14.242  0.00  0.00    +0.209 HD
ENDBRANCH  20   3
ENDBRANCH  12  20
BRANCH  13  23
ATOM     23  C   UNL     1      -7.343 -10.772  12.973  0.00  0.00    +0.106 C 
BRANCH  23  24
ATOM      4  O   UNL     1      -8.313  -9.208  14.510  0.00  0.00    -0.276 OA
ATOM      8  N   UNL     1      -8.500 -11.456  15.044  0.00  0.00    -0.300 N 
ATOM     24  C   UNL     1      -8.091 -10.390  14.236  0.00  0.00    +0.216 C 
ATOM     27  C   UNL     1      -8.227 -12.846  14.700  0.00  0.00    +0.132 C 
BRANCH   8  26
ATOM     26  C   UNL     1      -9.233 -11.258  16.292  0.00  0.00    +0.142 C 
BRANCH  26  29
ATOM     29  C   UNL     1      -8.329 -11.326  17.490  0.00  0.00    -0.030 A 
ATOM     31  C   UNL     1      -8.292 -12.481  18.271  0.00  0.00    +0.005 A 
ATOM     32  C   UNL     1      -7.526 -10.234  17.820  0.00  0.00    +0.005 A 
ATOM     34  C   UNL     1      -7.452 -12.543  19.383  0.00  0.00    +0.000 A 
ATOM     35  C   UNL     1      -6.686 -10.297  18.932  0.00  0.00    +0.000 A 
ATOM     36  C   UNL     1      -6.650 -11.452  19.714  0.00  0.00    +0.000 A 
ENDBRANCH  26  29
ENDBRANCH   8  26
ENDBRANCH  23  24
ENDBRANCH  13  23
TORSDOF 8
ENDMDL
MODEL 3
REMARK VINA RESULT:      -6.4     15.826     19.667
REMARK  Name = 11883067
REMARK  11 active torsions:
REMARK  status: ('A' for Active; 'I' for Inactive)
REMARK    1  A    between atoms: O_2  and  C_15
REMARK    2  A    between atoms: O_3  and  C_20
REMARK    3  A    between atoms: N_8  and  C_26
REMARK    4  A    between atoms: N_8  and  C_27
REMARK    5  A    between atoms: C_10  and  C_18
REMARK    6  A    between atoms: C_12  and  C_20
REMARK    7  A    between atoms: C_12  and  C_21
REMARK    8  A    between atoms: C_13  and  C_23
REMARK    9  A    between atoms: C_23  and  C_24
REMARK   10  A    between atoms: C_26  and  C_29
REMARK   11  A    between atoms: C_28  and  C_30
REMARK                            x       y       z     vdW  Elec       q    Type
REMARK                         _______ _______ _______ _____ _____    ______ ____
ROOT
ATOM      1  S   UNL     1      15.101   7.934   6.392  0.00  0.00    -0.057 S 
ATOM      5  O   UNL     1      12.429   6.537   2.888  0.00  0.00    -0.266 OA
ATOM      7  N   UNL     1      14.982   7.585   3.831  0.00  0.00    -0.229 NA
ATOM      9  N   UNL     1      13.012   7.017   5.098  0.00  0.00    -0.258 N 
ATOM     10  C   UNL     1      18.449   9.254   3.575  0.00  0.00    -0.019 C 
ATOM     11  C   UNL     1      18.897   8.724   5.008  0.00  0.00    +0.011 C 
ATOM     12  C   UNL     1      20.294   9.217   5.549  0.00  0.00    +0.021 C 
ATOM     13  C   UNL     1      17.267   8.315   3.050  0.00  0.00    +0.054 C 
ATOM     14  C   UNL     1      19.639   9.139   2.588  0.00  0.00    +0.010 C 
ATOM     15  C   UNL     1      21.358   9.077   4.423  0.00  0.00    +0.123 C 
ATOM     16  C   UNL     1      17.745   8.846   6.046  0.00  0.00    +0.049 C 
ATOM     17  C   UNL     1      20.938   9.735   3.114  0.00  0.00    +0.032 C 
ATOM     18  C   UNL     1      17.966  10.725   3.603  0.00  0.00    +0.012 C 
ATOM     19  C   UNL     1      16.235   8.090   4.126  0.00  0.00    +0.058 A 
ATOM     21  C   UNL     1      20.738   8.296   6.721  0.00  0.00    +0.016 C 
ATOM     22  C   UNL     1      16.477   8.317   5.465  0.00  0.00    +0.015 A 
ATOM     25  C   UNL     1      14.297   7.469   4.947  0.00  0.00    +0.165 A 
ATOM     28  C   UNL     1      12.137   6.574   4.080  0.00  0.00    +0.285 C 
ATOM     41  H   UNL     1      12.668   7.013   6.055  0.00  0.00    +0.157 HD
ENDROOT
BRANCH  28  30
ATOM      6  O   UNL     1       9.848   7.162   4.637  0.00  0.00    -0.458 OA
ATOM     30  C   UNL     1      10.791   6.188   4.540  0.00  0.00    +0.189 A 
ATOM     33  C   UNL     1      10.268   4.971   4.912  0.00  0.00    +0.054 A 
ATOM     37  C   UNL     1       8.918   5.213   5.259  0.00  0.00    +0.042 A 
ATOM     38  C   UNL     1       8.712   6.560   5.075  0.00  0.00    +0.196 A 
ENDBRANCH  28  30
BRANCH  15   2
ATOM      2  O   UNL     1      22.605   9.635   4.838  0.00  0.00    -0.391 OA
ATOM     39  H   UNL     1      23.247   9.484   4.123  0.00  0.00    +0.210 HD
ENDBRANCH  15   2
BRANCH  12  20
ATOM     20  C   UNL     1      20.288  10.649   6.126  0.00  0.00    +0.165 C 
BRANCH  20   3
ATOM      3  O   UNL     1      21.201  10.686   7.200  0.00  0.00    -0.394 OA
ATOM     40  H   UNL     1      20.703  10.940   7.996  0.00  0.00    +0.209 HD
ENDBRANCH  20   3
ENDBRANCH  12  20
BRANCH  13  23
ATOM     23  C   UNL     1      16.619   8.781   1.738  0.00  0.00    +0.106 C 
BRANCH  23  24
ATOM      4  O   UNL     1      17.331   6.877   0.467  0.00  0.00    -0.276 OA
ATOM      8  N   UNL     1      15.110   7.508   0.256  0.00  0.00    -0.300 N 
ATOM     24  C   UNL     1      16.405   7.635   0.768  0.00  0.00    +0.216 C 
ATOM     27  C   UNL     1      14.031   8.415   0.626  0.00  0.00    +0.132 C 
BRANCH   8  26
ATOM     26  C   UNL     1      14.740   6.455  -0.687  0.00  0.00    +0.142 C 
BRANCH  26  29
ATOM     29  C   UNL     1      14.080   5.293  -0.002  0.00  0.00    -0.030 A 
ATOM     31  C   UNL     1      14.787   4.545   0.939  0.00  0.00    +0.005 A 
ATOM     32  C   UNL     1      12.759   4.964  -0.305  0.00  0.00    +0.005 A 
ATOM     34  C   UNL     1      14.173   3.467   1.576  0.00  0.00    +0.000 A 
ATOM     35  C   UNL     1      12.145   3.885   0.333  0.00  0.00    +0.000 A 
ATOM     36  C   UNL     1      12.853   3.137   1.273  0.00  0.00    +0.000 A 
ENDBRANCH  26  29
ENDBRANCH   8  26
ENDBRANCH  23  24
ENDBRANCH  13  23
TORSDOF 8
ENDMDL
MODEL 4
REMARK VINA RESULT:      -6.4     29.961     32.368
REMARK  Name = 11883067
REMARK  11 active torsions:
REMARK  status: ('A' for Active; 'I' for Inactive)
REMARK    1  A    between atoms: O_2  and  C_15
REMARK    2  A    between atoms: O_3  and  C_20
REMARK    3  A    between atoms: N_8  and  C_26
REMARK    4  A    between atoms: N_8  and  C_27
REMARK    5  A    between atoms: C_10  and  C_18
REMARK    6  A    between atoms: C_12  and  C_20
REMARK    7  A    between atoms: C_12  and  C_21
REMARK    8  A    between atoms: C_13  and  C_23
REMARK    9  A    between atoms: C_23  and  C_24
REMARK   10  A    between atoms: C_26  and  C_29
REMARK   11  A    between atoms: C_28  and  C_30
REMARK                            x       y       z     vdW  Elec       q    Type
REMARK                         _______ _______ _______ _____ _____    ______ ____
ROOT
ATOM      1  S   UNL     1      -5.882 -10.785  12.296  0.00  0.00    -0.057 S 
ATOM      5  O   UNL     1      -8.934  -8.378   9.794  0.00  0.00    -0.266 OA
ATOM      7  N   UNL     1      -8.097  -9.450  12.375  0.00  0.00    -0.229 NA
ATOM      9  N   UNL     1      -7.019  -9.644  10.227  0.00  0.00    -0.258 N 
ATOM     10  C   UNL     1      -8.454 -10.510  16.065  0.00  0.00    -0.019 C 
ATOM     11  C   UNL     1      -6.877 -10.558  16.285  0.00  0.00    +0.011 C 
ATOM     12  C   UNL     1      -6.365 -11.082  17.683  0.00  0.00    +0.021 C 
ATOM     13  C   UNL     1      -8.747  -9.566  14.810  0.00  0.00    +0.054 C 
ATOM     14  C   UNL     1      -9.129  -9.887  17.313  0.00  0.00    +0.010 C 
ATOM     15  C   UNL     1      -7.176 -10.393  18.816  0.00  0.00    +0.123 C 
ATOM     16  C   UNL     1      -6.152 -11.205  15.070  0.00  0.00    +0.049 C 
ATOM     17  C   UNL     1      -8.686 -10.508  18.631  0.00  0.00    +0.032 C 
ATOM     18  C   UNL     1      -9.068 -11.909  15.813  0.00  0.00    +0.012 C 
ATOM     19  C   UNL     1      -7.835  -9.900  13.656  0.00  0.00    +0.058 A 
ATOM     21  C   UNL     1      -4.877 -10.670  17.864  0.00  0.00    +0.016 C 
ATOM     22  C   UNL     1      -6.667 -10.620  13.799  0.00  0.00    +0.015 A 
ATOM     25  C   UNL     1      -7.138  -9.863  11.574  0.00  0.00    +0.165 A 
ATOM     28  C   UNL     1      -7.906  -8.921   9.397  0.00  0.00    +0.285 C 
ATOM     41  H   UNL     1      -6.198 -10.061   9.795  0.00  0.00    +0.157 HD
ENDROOT
BRANCH  28  30
ATOM      6  O   UNL     1      -8.132  -7.957   7.181  0.00  0.00    -0.458 OA
ATOM     30  C   UNL     1      -7.541  -8.892   7.970  0.00  0.00    +0.189 A 
ATOM     33  C   UNL     1      -6.673  -9.666   7.235  0.00  0.00    +0.054 A 
ATOM     37  C   UNL     1      -6.735  -9.175   5.909  0.00  0.00    +0.042 A 
ATOM     38  C   UNL     1      -7.635  -8.136   5.929  0.00  0.00    +0.196 A 
ENDBRANCH  28  30
BRANCH  15   2
ATOM      2  O   UNL     1      -6.828 -10.939  20.088  0.00  0.00    -0.391 OA
ATOM     39  H   UNL     1      -5.860 -11.025  20.117  0.00  0.00    +0.210 HD
ENDBRANCH  15   2
BRANCH  12  20
ATOM     20  C   UNL     1      -6.393 -12.618  17.841  0.00  0.00    +0.165 C 
BRANCH  20   3
ATOM      3  O   UNL     1      -5.258 -12.996  18.587  0.00  0.00    -0.394 OA
ATOM     40  H   UNL     1      -5.573 -13.326  19.446  0.00  0.00    +0.209 HD
ENDBRANCH  20   3
ENDBRANCH  12  20
BRANCH  13  23
ATOM     23  C   UNL     1     -10.217  -9.528  14.371  0.00  0.00    +0.106 C 
BRANCH  23  24
ATOM      4  O   UNL     1     -10.240  -7.278  15.199  0.00  0.00    -0.276 OA
ATOM      8  N   UNL     1     -12.124  -7.992  14.052  0.00  0.00    -0.300 N 
ATOM     24  C   UNL     1     -10.843  -8.163  14.587  0.00  0.00    +0.216 C 
ATOM     27  C   UNL     1     -12.818  -9.053  13.332  0.00  0.00    +0.132 C 
BRANCH   8  26
ATOM     26  C   UNL     1     -12.863  -6.737  14.172  0.00  0.00    +0.142 C 
BRANCH  26  29
ATOM     29  C   UNL     1     -12.563  -5.798  13.039  0.00  0.00    -0.030 A 
ATOM     31  C   UNL     1     -12.331  -6.302  11.759  0.00  0.00    +0.005 A 
ATOM     32  C   UNL     1     -12.518  -4.423  13.267  0.00  0.00    +0.005 A 
ATOM     34  C   UNL     1     -12.053  -5.429  10.707  0.00  0.00    +0.000 A 
ATOM     35  C   UNL     1     -12.240  -3.551  12.214  0.00  0.00    +0.000 A 
ATOM     36  C   UNL     1     -12.008  -4.054  10.934  0.00  0.00    +0.000 A 
ENDBRANCH  26  29
ENDBRANCH   8  26
ENDBRANCH  23  24
ENDBRANCH  13  23
TORSDOF 8
ENDMDL
MODEL 5
REMARK VINA RESULT:      -6.2     29.628     32.355
REMARK  Name = 11883067
REMARK  11 active torsions:
REMARK  status: ('A' for Active; 'I' for Inactive)
REMARK    1  A    between atoms: O_2  and  C_15
REMARK    2  A    between atoms: O_3  and  C_20
REMARK    3  A    between atoms: N_8  and  C_26
REMARK    4  A    between atoms: N_8  and  C_27
REMARK    5  A    between atoms: C_10  and  C_18
REMARK    6  A    between atoms: C_12  and  C_20
REMARK    7  A    between atoms: C_12  and  C_21
REMARK    8  A    between atoms: C_13  and  C_23
REMARK    9  A    between atoms: C_23  and  C_24
REMARK   10  A    between atoms: C_26  and  C_29
REMARK   11  A    between atoms: C_28  and  C_30
REMARK                            x       y       z     vdW  Elec       q    Type
REMARK                         _______ _______ _______ _____ _____    ______ ____
ROOT
ATOM      1  S   UNL     1      -5.530 -10.960  12.603  0.00  0.00    -0.057 S 
ATOM      5  O   UNL     1      -8.664  -8.422  10.345  0.00  0.00    -0.266 OA
ATOM      7  N   UNL     1      -7.692  -9.559  12.848  0.00  0.00    -0.229 NA
ATOM      9  N   UNL     1      -6.766  -9.753  10.631  0.00  0.00    -0.258 N 
ATOM     10  C   UNL     1      -7.834 -10.665  16.539  0.00  0.00    -0.019 C 
ATOM     11  C   UNL     1      -6.249 -10.766  16.653  0.00  0.00    +0.011 C 
ATOM     12  C   UNL     1      -5.661 -11.327  18.005  0.00  0.00    +0.021 C 
ATOM     13  C   UNL     1      -8.181  -9.693  15.319  0.00  0.00    +0.054 C 
ATOM     14  C   UNL     1      -8.405 -10.041  17.839  0.00  0.00    +0.010 C 
ATOM     15  C   UNL     1      -6.373 -10.630  19.200  0.00  0.00    +0.123 C 
ATOM     16  C   UNL     1      -5.628 -11.416  15.383  0.00  0.00    +0.049 C 
ATOM     17  C   UNL     1      -7.894 -10.696  19.115  0.00  0.00    +0.032 C 
ATOM     18  C   UNL     1      -8.508 -12.041  16.310  0.00  0.00    +0.012 C 
ATOM     19  C   UNL     1      -7.359 -10.037  14.103  0.00  0.00    +0.058 A 
ATOM     21  C   UNL     1      -4.152 -10.963  18.091  0.00  0.00    +0.016 C 
ATOM     22  C   UNL     1      -6.208 -10.795  14.157  0.00  0.00    +0.015 A 
ATOM     25  C   UNL     1      -6.802  -9.989  11.980  0.00  0.00    +0.165 A 
ATOM     28  C   UNL     1      -7.684  -8.990   9.872  0.00  0.00    +0.285 C 
ATOM     41  H   UNL     1      -5.990 -10.188  10.139  0.00  0.00    +0.157 HD
ENDROOT
BRANCH  28  30
ATOM      6  O   UNL     1      -8.165  -8.115   7.659  0.00  0.00    -0.458 OA
ATOM     30  C   UNL     1      -7.414  -8.950   8.424  0.00  0.00    +0.189 A 
ATOM     33  C   UNL     1      -6.502  -9.628   7.647  0.00  0.00    +0.054 A 
ATOM     37  C   UNL     1      -6.707  -9.179   6.320  0.00  0.00    +0.042 A 
ATOM     38  C   UNL     1      -7.728  -8.261   6.381  0.00  0.00    +0.196 A 
ENDBRANCH  28  30
BRANCH  15   2
ATOM      2  O   UNL     1      -5.958 -11.207  20.438  0.00  0.00    -0.391 OA
ATOM     39  H   UNL     1      -4.986 -11.182  20.463  0.00  0.00    +0.210 HD
ENDBRANCH  15   2
BRANCH  12  20
ATOM     20  C   UNL     1      -5.728 -12.863  18.144  0.00  0.00    +0.165 C 
BRANCH  20   3
ATOM      3  O   UNL     1      -4.467 -13.311  18.589  0.00  0.00    -0.394 OA
ATOM     40  H   UNL     1      -3.825 -12.606  18.397  0.00  0.00    +0.209 HD
ENDBRANCH  20   3
ENDBRANCH  12  20
BRANCH  13  23
ATOM     23  C   UNL     1      -9.675  -9.603  14.981  0.00  0.00    +0.106 C 
BRANCH  23  24
ATOM      4  O   UNL     1      -9.788  -7.476  16.081  0.00  0.00    -0.276 OA
ATOM      8  N   UNL     1     -11.237  -7.815  14.303  0.00  0.00    -0.300 N 
ATOM     24  C   UNL     1     -10.224  -8.204  15.186  0.00  0.00    +0.216 C 
ATOM     27  C   UNL     1     -11.736  -8.693  13.252  0.00  0.00    +0.132 C 
BRANCH   8  26
ATOM     26  C   UNL     1     -11.869  -6.499  14.365  0.00  0.00    +0.142 C 
BRANCH  26  29
ATOM     29  C   UNL     1     -13.315  -6.590  14.759  0.00  0.00    -0.030 A 
ATOM     31  C   UNL     1     -14.302  -6.087  13.911  0.00  0.00    +0.005 A 
ATOM     32  C   UNL     1     -13.672  -7.178  15.973  0.00  0.00    +0.005 A 
ATOM     34  C   UNL     1     -15.645  -6.172  14.277  0.00  0.00    +0.000 A 
ATOM     35  C   UNL     1     -15.015  -7.262  16.339  0.00  0.00    +0.000 A 
ATOM     36  C   UNL     1     -16.002  -6.759  15.491  0.00  0.00    +0.000 A 
ENDBRANCH  26  29
ENDBRANCH   8  26
ENDBRANCH  23  24
ENDBRANCH  13  23
TORSDOF 8
ENDMDL
MODEL 6
REMARK VINA RESULT:      -6.2     13.794     16.688
REMARK  Name = 11883067
REMARK  11 active torsions:
REMARK  status: ('A' for Active; 'I' for Inactive)
REMARK    1  A    between atoms: O_2  and  C_15
REMARK    2  A    between atoms: O_3  and  C_20
REMARK    3  A    between atoms: N_8  and  C_26
REMARK    4  A    between atoms: N_8  and  C_27
REMARK    5  A    between atoms: C_10  and  C_18
REMARK    6  A    between atoms: C_12  and  C_20
REMARK    7  A    between atoms: C_12  and  C_21
REMARK    8  A    between atoms: C_13  and  C_23
REMARK    9  A    between atoms: C_23  and  C_24
REMARK   10  A    between atoms: C_26  and  C_29
REMARK   11  A    between atoms: C_28  and  C_30
REMARK                            x       y       z     vdW  Elec       q    Type
REMARK                         _______ _______ _______ _____ _____    ______ ____
ROOT
ATOM      1  S   UNL     1      17.528  -2.337  31.500  0.00  0.00    -0.057 S 
ATOM      5  O   UNL     1      20.075  -2.322  27.643  0.00  0.00    -0.266 OA
ATOM      7  N   UNL     1      17.905  -3.480  29.210  0.00  0.00    -0.229 NA
ATOM      9  N   UNL     1      19.361  -1.640  29.760  0.00  0.00    -0.258 N 
ATOM     10  C   UNL     1      15.269  -6.102  30.233  0.00  0.00    -0.019 C 
ATOM     11  C   UNL     1      14.461  -5.058  31.124  0.00  0.00    +0.011 C 
ATOM     12  C   UNL     1      13.243  -5.618  31.956  0.00  0.00    +0.021 C 
ATOM     13  C   UNL     1      16.136  -5.278  29.173  0.00  0.00    +0.054 C 
ATOM     14  C   UNL     1      14.270  -6.998  29.456  0.00  0.00    +0.010 C 
ATOM     15  C   UNL     1      12.374  -6.528  31.041  0.00  0.00    +0.123 C 
ATOM     16  C   UNL     1      15.421  -4.153  31.949  0.00  0.00    +0.049 C 
ATOM     17  C   UNL     1      13.180  -7.607  30.327  0.00  0.00    +0.032 C 
ATOM     18  C   UNL     1      16.204  -7.010  31.070  0.00  0.00    +0.012 C 
ATOM     19  C   UNL     1      16.862  -4.136  29.838  0.00  0.00    +0.058 A 
ATOM     21  C   UNL     1      12.349  -4.429  32.408  0.00  0.00    +0.016 C 
ATOM     22  C   UNL     1      16.512  -3.635  31.074  0.00  0.00    +0.015 A 
ATOM     25  C   UNL     1      18.338  -2.519  29.997  0.00  0.00    +0.165 A 
ATOM     28  C   UNL     1      20.181  -1.573  28.610  0.00  0.00    +0.285 C 
ATOM     41  H   UNL     1      19.538  -0.974  30.508  0.00  0.00    +0.157 HD
ENDROOT
BRANCH  28  30
ATOM      6  O   UNL     1      21.336   0.215  29.779  0.00  0.00    -0.458 OA
ATOM     30  C   UNL     1      21.237  -0.546  28.657  0.00  0.00    +0.189 A 
ATOM     33  C   UNL     1      22.198  -0.182  27.741  0.00  0.00    +0.054 A 
ATOM     37  C   UNL     1      22.933   0.868  28.339  0.00  0.00    +0.042 A 
ATOM     38  C   UNL     1      22.370   1.072  29.577  0.00  0.00    +0.196 A 
ENDBRANCH  28  30
BRANCH  15   2
ATOM      2  O   UNL     1      11.336  -7.154  31.796  0.00  0.00    -0.391 OA
ATOM     39  H   UNL     1      10.867  -6.458  32.285  0.00  0.00    +0.210 HD
ENDBRANCH  15   2
BRANCH  12  20
ATOM     20  C   UNL     1      13.639  -6.357  33.252  0.00  0.00    +0.165 C 
BRANCH  20   3
ATOM      3  O   UNL     1      12.661  -6.071  34.227  0.00  0.00    -0.394 OA
ATOM     40  H   UNL     1      12.236  -5.234  33.975  0.00  0.00    +0.209 HD
ENDBRANCH  20   3
ENDBRANCH  12  20
BRANCH  13  23
ATOM     23  C   UNL     1      17.090  -6.134  28.328  0.00  0.00    +0.106 C 
BRANCH  23  24
ATOM      4  O   UNL     1      15.538  -6.599  26.560  0.00  0.00    -0.276 OA
ATOM      8  N   UNL     1      17.619  -5.782  25.942  0.00  0.00    -0.300 N 
ATOM     24  C   UNL     1      16.663  -6.200  26.874  0.00  0.00    +0.216 C 
ATOM     27  C   UNL     1      18.941  -5.313  26.336  0.00  0.00    +0.132 C 
BRANCH   8  26
ATOM     26  C   UNL     1      17.363  -5.782  24.503  0.00  0.00    +0.142 C 
BRANCH  26  29
ATOM     29  C   UNL     1      17.301  -4.390  23.944  0.00  0.00    -0.030 A 
ATOM     31  C   UNL     1      18.102  -4.037  22.858  0.00  0.00    +0.005 A 
ATOM     32  C   UNL     1      16.439  -3.450  24.510  0.00  0.00    +0.005 A 
ATOM     34  C   UNL     1      18.043  -2.744  22.339  0.00  0.00    +0.000 A 
ATOM     35  C   UNL     1      16.381  -2.156  23.990  0.00  0.00    +0.000 A 
ATOM     36  C   UNL     1      17.183  -1.804  22.905  0.00  0.00    +0.000 A 
ENDBRANCH  26  29
ENDBRANCH   8  26
ENDBRANCH  23  24
ENDBRANCH  13  23
TORSDOF 8
ENDMDL
MODEL 7
REMARK VINA RESULT:      -6.1     12.104     15.703
REMARK  Name = 11883067
REMARK  11 active torsions:
REMARK  status: ('A' for Active; 'I' for Inactive)
REMARK    1  A    between atoms: O_2  and  C_15
REMARK    2  A    between atoms: O_3  and  C_20
REMARK    3  A    between atoms: N_8  and  C_26
REMARK    4  A    between atoms: N_8  and  C_27
REMARK    5  A    between atoms: C_10  and  C_18
REMARK    6  A    between atoms: C_12  and  C_20
REMARK    7  A    between atoms: C_12  and  C_21
REMARK    8  A    between atoms: C_13  and  C_23
REMARK    9  A    between atoms: C_23  and  C_24
REMARK   10  A    between atoms: C_26  and  C_29
REMARK   11  A    between atoms: C_28  and  C_30
REMARK                            x       y       z     vdW  Elec       q    Type
REMARK                         _______ _______ _______ _____ _____    ______ ____
ROOT
ATOM      1  S   UNL     1      19.876  -1.288  29.548  0.00  0.00    -0.057 S 
ATOM      5  O   UNL     1      20.887  -1.688  25.055  0.00  0.00    -0.266 OA
ATOM      7  N   UNL     1      19.472  -2.680  27.405  0.00  0.00    -0.229 NA
ATOM      9  N   UNL     1      20.938  -0.777  27.205  0.00  0.00    -0.258 N 
ATOM     10  C   UNL     1      17.499  -5.192  29.566  0.00  0.00    -0.019 C 
ATOM     11  C   UNL     1      17.010  -4.060  30.574  0.00  0.00    +0.011 C 
ATOM     12  C   UNL     1      16.195  -4.532  31.839  0.00  0.00    +0.021 C 
ATOM     13  C   UNL     1      17.894  -4.486  28.188  0.00  0.00    +0.054 C 
ATOM     14  C   UNL     1      16.334  -6.178  29.294  0.00  0.00    +0.010 C 
ATOM     15  C   UNL     1      15.103  -5.547  31.395  0.00  0.00    +0.123 C 
ATOM     16  C   UNL     1      18.155  -3.059  30.905  0.00  0.00    +0.049 C 
ATOM     17  C   UNL     1      15.655  -6.694  30.555  0.00  0.00    +0.032 C 
ATOM     18  C   UNL     1      18.713  -5.991  30.102  0.00  0.00    +0.012 C 
ATOM     19  C   UNL     1      18.752  -3.270  28.428  0.00  0.00    +0.058 A 
ATOM     21  C   UNL     1      15.462  -3.307  32.456  0.00  0.00    +0.016 C 
ATOM     22  C   UNL     1      18.839  -2.635  29.649  0.00  0.00    +0.015 A 
ATOM     25  C   UNL     1      20.109  -1.633  27.881  0.00  0.00    +0.165 A 
ATOM     28  C   UNL     1      21.293  -0.834  25.838  0.00  0.00    +0.285 C 
ATOM     41  H   UNL     1      21.336  -0.030  27.768  0.00  0.00    +0.157 HD
ENDROOT
BRANCH  28  30
ATOM      6  O   UNL     1      21.745   1.398  24.995  0.00  0.00    -0.458 OA
ATOM     30  C   UNL     1      22.246   0.200  25.398  0.00  0.00    +0.189 A 
ATOM     33  C   UNL     1      23.619   0.197  25.309  0.00  0.00    +0.054 A 
ATOM     37  C   UNL     1      23.985   1.473  24.819  0.00  0.00    +0.042 A 
ATOM     38  C   UNL     1      22.810   2.166  24.645  0.00  0.00    +0.196 A 
ENDBRANCH  28  30
BRANCH  15   2
ATOM      2  O   UNL     1      14.431  -6.092  32.530  0.00  0.00    -0.391 OA
ATOM     39  H   UNL     1      14.222  -5.357  33.131  0.00  0.00    +0.210 HD
ENDBRANCH  15   2
BRANCH  12  20
ATOM     20  C   UNL     1      17.059  -5.116  32.978  0.00  0.00    +0.165 C 
BRANCH  20   3
ATOM      3  O   UNL     1      16.420  -4.821  34.200  0.00  0.00    -0.394 OA
ATOM     40  H   UNL     1      15.848  -5.576  34.417  0.00  0.00    +0.209 HD
ENDBRANCH  20   3
ENDBRANCH  12  20
BRANCH  13  23
ATOM     23  C   UNL     1      18.527  -5.424  27.150  0.00  0.00    +0.106 C 
BRANCH  23  24
ATOM      4  O   UNL     1      16.590  -5.446  25.736  0.00  0.00    -0.276 OA
ATOM      8  N   UNL     1      18.645  -5.186  24.695  0.00  0.00    -0.300 N 
ATOM     24  C   UNL     1      17.818  -5.356  25.811  0.00  0.00    +0.216 C 
ATOM     27  C   UNL     1      20.095  -5.080  24.807  0.00  0.00    +0.132 C 
BRANCH   8  26
ATOM     26  C   UNL     1      18.119  -5.099  23.335  0.00  0.00    +0.142 C 
BRANCH  26  29
ATOM     29  C   UNL     1      17.479  -3.767  23.065  0.00  0.00    -0.030 A 
ATOM     31  C   UNL     1      16.091  -3.668  22.963  0.00  0.00    +0.005 A 
ATOM     32  C   UNL     1      18.273  -2.630  22.917  0.00  0.00    +0.005 A 
ATOM     34  C   UNL     1      15.498  -2.431  22.713  0.00  0.00    +0.000 A 
ATOM     35  C   UNL     1      17.679  -1.393  22.667  0.00  0.00    +0.000 A 
ATOM     36  C   UNL     1      16.291  -1.294  22.564  0.00  0.00    +0.000 A 
ENDBRANCH  26  29
ENDBRANCH   8  26
ENDBRANCH  23  24
ENDBRANCH  13  23
TORSDOF 8
ENDMDL
MODEL 8
REMARK VINA RESULT:      -6.0     23.580     26.406
REMARK  Name = 11883067
REMARK  11 active torsions:
REMARK  status: ('A' for Active; 'I' for Inactive)
REMARK    1  A    between atoms: O_2  and  C_15
REMARK    2  A    between atoms: O_3  and  C_20
REMARK    3  A    between atoms: N_8  and  C_26
REMARK    4  A    between atoms: N_8  and  C_27
REMARK    5  A    between atoms: C_10  and  C_18
REMARK    6  A    between atoms: C_12  and  C_20
REMARK    7  A    between atoms: C_12  and  C_21
REMARK    8  A    between atoms: C_13  and  C_23
REMARK    9  A    between atoms: C_23  and  C_24
REMARK   10  A    between atoms: C_26  and  C_29
REMARK   11  A    between atoms: C_28  and  C_30
REMARK                            x       y       z     vdW  Elec       q    Type
REMARK                         _______ _______ _______ _____ _____    ______ ____
ROOT
ATOM      1  S   UNL     1       5.674  -7.571  38.000  0.00  0.00    -0.057 S 
ATOM      5  O   UNL     1       8.829  -5.491  35.338  0.00  0.00    -0.266 OA
ATOM      7  N   UNL     1       6.939  -7.675  35.746  0.00  0.00    -0.229 NA
ATOM      9  N   UNL     1       7.465  -5.830  37.205  0.00  0.00    -0.258 N 
ATOM     10  C   UNL     1       5.281 -11.100  35.123  0.00  0.00    -0.019 C 
ATOM     11  C   UNL     1       3.973 -10.704  35.940  0.00  0.00    +0.011 C 
ATOM     12  C   UNL     1       2.889 -11.832  36.149  0.00  0.00    +0.021 C 
ATOM     13  C   UNL     1       6.001  -9.751  34.661  0.00  0.00    +0.054 C 
ATOM     14  C   UNL     1       4.875 -11.895  33.855  0.00  0.00    +0.010 C 
ATOM     15  C   UNL     1       2.637 -12.556  34.796  0.00  0.00    +0.123 C 
ATOM     16  C   UNL     1       4.328  -9.928  37.241  0.00  0.00    +0.049 C 
ATOM     17  C   UNL     1       3.917 -13.047  34.129  0.00  0.00    +0.032 C 
ATOM     18  C   UNL     1       6.270 -11.956  35.951  0.00  0.00    +0.012 C 
ATOM     19  C   UNL     1       6.094  -8.769  35.801  0.00  0.00    +0.058 A 
ATOM     21  C   UNL     1       1.548 -11.173  36.577  0.00  0.00    +0.016 C 
ATOM     22  C   UNL     1       5.321  -8.857  36.941  0.00  0.00    +0.015 A 
ATOM     25  C   UNL     1       6.807  -6.979  36.854  0.00  0.00    +0.165 A 
ATOM     28  C   UNL     1       8.438  -5.138  36.448  0.00  0.00    +0.285 C 
ATOM     41  H   UNL     1       7.217  -5.454  38.116  0.00  0.00    +0.157 HD
ENDROOT
BRANCH  28  30
ATOM      6  O   UNL     1       8.238  -3.288  38.008  0.00  0.00    -0.458 OA
ATOM     30  C   UNL     1       9.010  -3.950  37.106  0.00  0.00    +0.189 A 
ATOM     33  C   UNL     1      10.238  -3.341  36.982  0.00  0.00    +0.054 A 
ATOM     37  C   UNL     1      10.219  -2.235  37.866  0.00  0.00    +0.042 A 
ATOM     38  C   UNL     1       8.982  -2.247  38.466  0.00  0.00    +0.196 A 
ENDBRANCH  28  30
BRANCH  15   2
ATOM      2  O   UNL     1       1.758 -13.666  34.976  0.00  0.00    -0.391 OA
ATOM     39  H   UNL     1       1.817 -13.940  35.906  0.00  0.00    +0.210 HD
ENDBRANCH  15   2
BRANCH  12  20
ATOM     20  C   UNL     1       3.228 -12.847  37.262  0.00  0.00    +0.165 C 
BRANCH  20   3
ATOM      3  O   UNL     1       2.072 -13.026  38.049  0.00  0.00    -0.394 OA
ATOM     40  H   UNL     1       2.366 -13.218  38.956  0.00  0.00    +0.209 HD
ENDBRANCH  20   3
ENDBRANCH  12  20
BRANCH  13  23
ATOM     23  C   UNL     1       7.362  -9.955  33.982  0.00  0.00    +0.106 C 
BRANCH  23  24
ATOM      4  O   UNL     1       6.670  -8.956  31.916  0.00  0.00    -0.276 OA
ATOM      8  N   UNL     1       7.885 -10.925  31.773  0.00  0.00    -0.300 N 
ATOM     24  C   UNL     1       7.264  -9.884  32.471  0.00  0.00    +0.216 C 
ATOM     27  C   UNL     1       8.583 -12.012  32.450  0.00  0.00    +0.132 C 
BRANCH   8  26
ATOM     26  C   UNL     1       7.883 -11.002  30.314  0.00  0.00    +0.142 C 
BRANCH  26  29
ATOM     29  C   UNL     1       7.158 -12.219  29.816  0.00  0.00    -0.030 A 
ATOM     31  C   UNL     1       7.757 -13.050  28.869  0.00  0.00    +0.005 A 
ATOM     32  C   UNL     1       5.886 -12.520  30.304  0.00  0.00    +0.005 A 
ATOM     34  C   UNL     1       7.084 -14.180  28.408  0.00  0.00    +0.000 A 
ATOM     35  C   UNL     1       5.213 -13.652  29.842  0.00  0.00    +0.000 A 
ATOM     36  C   UNL     1       5.812 -14.481  28.894  0.00  0.00    +0.000 A 
ENDBRANCH  26  29
ENDBRANCH   8  26
ENDBRANCH  23  24
ENDBRANCH  13  23
TORSDOF 8
ENDMDL
MODEL 9
REMARK VINA RESULT:      -5.9     29.929     32.227
REMARK  Name = 11883067
REMARK  11 active torsions:
REMARK  status: ('A' for Active; 'I' for Inactive)
REMARK    1  A    between atoms: O_2  and  C_15
REMARK    2  A    between atoms: O_3  and  C_20
REMARK    3  A    between atoms: N_8  and  C_26
REMARK    4  A    between atoms: N_8  and  C_27
REMARK    5  A    between atoms: C_10  and  C_18
REMARK    6  A    between atoms: C_12  and  C_20
REMARK    7  A    between atoms: C_12  and  C_21
REMARK    8  A    between atoms: C_13  and  C_23
REMARK    9  A    between atoms: C_23  and  C_24
REMARK   10  A    between atoms: C_26  and  C_29
REMARK   11  A    between atoms: C_28  and  C_30
REMARK                            x       y       z     vdW  Elec       q    Type
REMARK                         _______ _______ _______ _____ _____    ______ ____
ROOT
ATOM      1  S   UNL     1      -4.662 -12.265  12.080  0.00  0.00    -0.057 S 
ATOM      5  O   UNL     1      -7.328  -9.568  14.723  0.00  0.00    -0.266 OA
ATOM      7  N   UNL     1      -6.544 -10.490  12.069  0.00  0.00    -0.229 NA
ATOM      9  N   UNL     1      -5.684 -11.150  14.222  0.00  0.00    -0.258 N 
ATOM     10  C   UNL     1      -6.295 -10.440   8.221  0.00  0.00    -0.019 C 
ATOM     11  C   UNL     1      -5.857 -11.969   8.151  0.00  0.00    +0.011 C 
ATOM     12  C   UNL     1      -5.471 -12.539   6.732  0.00  0.00    +0.021 C 
ATOM     13  C   UNL     1      -7.044 -10.205   9.613  0.00  0.00    +0.054 C 
ATOM     14  C   UNL     1      -7.291 -10.136   7.072  0.00  0.00    +0.010 C 
ATOM     15  C   UNL     1      -6.546 -12.105   5.695  0.00  0.00    +0.123 C 
ATOM     16  C   UNL     1      -4.831 -12.319   9.267  0.00  0.00    +0.049 C 
ATOM     17  C   UNL     1      -6.817 -10.604   5.704  0.00  0.00    +0.032 C 
ATOM     18  C   UNL     1      -5.095  -9.466   8.110  0.00  0.00    +0.012 C 
ATOM     19  C   UNL     1      -6.275 -10.821  10.753  0.00  0.00    +0.058 A 
ATOM     21  C   UNL     1      -5.485 -14.093   6.788  0.00  0.00    +0.016 C 
ATOM     22  C   UNL     1      -5.300 -11.781  10.577  0.00  0.00    +0.015 A 
ATOM     25  C   UNL     1      -5.749 -11.184  12.854  0.00  0.00    +0.165 A 
ATOM     28  C   UNL     1      -6.462 -10.356  15.094  0.00  0.00    +0.285 C 
ATOM     41  H   UNL     1      -4.989 -11.767  14.634  0.00  0.00    +0.157 HD
ENDROOT
BRANCH  28  30
ATOM      6  O   UNL     1      -7.166 -10.542  17.411  0.00  0.00    -0.458 OA
ATOM     30  C   UNL     1      -6.136 -10.498  16.524  0.00  0.00    +0.189 A 
ATOM     33  C   UNL     1      -4.930 -10.601  17.179  0.00  0.00    +0.054 A 
ATOM     37  C   UNL     1      -5.239 -10.715  18.556  0.00  0.00    +0.042 A 
ATOM     38  C   UNL     1      -6.611 -10.674  18.644  0.00  0.00    +0.196 A 
ENDBRANCH  28  30
BRANCH  15   2
ATOM      2  O   UNL     1      -6.160 -12.494   4.377  0.00  0.00    -0.391 OA
ATOM     39  H   UNL     1      -5.234 -12.227   4.250  0.00  0.00    +0.210 HD
ENDBRANCH  15   2
BRANCH  12  20
ATOM     20  C   UNL     1      -4.055 -12.155   6.251  0.00  0.00    +0.165 C 
BRANCH  20   3
ATOM      3  O   UNL     1      -3.538 -13.241   5.516  0.00  0.00    -0.394 OA
ATOM     40  H   UNL     1      -2.746 -12.925   5.049  0.00  0.00    +0.209 HD
ENDBRANCH  20   3
ENDBRANCH  12  20
BRANCH  13  23
ATOM     23  C   UNL     1      -7.405  -8.742   9.903  0.00  0.00    +0.106 C 
BRANCH  23  24
ATOM      4  O   UNL     1      -9.771  -9.085  10.085  0.00  0.00    -0.276 OA
ATOM      8  N   UNL     1      -9.063  -7.381   8.681  0.00  0.00    -0.300 N 
ATOM     24  C   UNL     1      -8.854  -8.434   9.578  0.00  0.00    +0.216 C 
ATOM     27  C   UNL     1      -7.964  -6.624   8.094  0.00  0.00    +0.132 C 
BRANCH   8  26
ATOM     26  C   UNL     1     -10.399  -6.958   8.267  0.00  0.00    +0.142 C 
BRANCH  26  29
ATOM     29  C   UNL     1     -10.922  -5.836   9.118  0.00  0.00    -0.030 A 
ATOM     31  C   UNL     1     -11.705  -6.116  10.237  0.00  0.00    +0.005 A 
ATOM     32  C   UNL     1     -10.622  -4.514   8.788  0.00  0.00    +0.005 A 
ATOM     34  C   UNL     1     -12.189  -5.073  11.027  0.00  0.00    +0.000 A 
ATOM     35  C   UNL     1     -11.106  -3.471   9.579  0.00  0.00    +0.000 A 
ATOM     36  C   UNL     1     -11.891  -3.751  10.698  0.00  0.00    +0.000 A 
ENDBRANCH  26  29
ENDBRANCH   8  26
ENDBRANCH  23  24
ENDBRANCH  13  23
TORSDOF 8
ENDMDL
MODEL 10
REMARK VINA RESULT:      -5.9     23.430     26.183
REMARK  Name = 11883067
REMARK  11 active torsions:
REMARK  status: ('A' for Active; 'I' for Inactive)
REMARK    1  A    between atoms: O_2  and  C_15
REMARK    2  A    between atoms: O_3  and  C_20
REMARK    3  A    between atoms: N_8  and  C_26
REMARK    4  A    between atoms: N_8  and  C_27
REMARK    5  A    between atoms: C_10  and  C_18
REMARK    6  A    between atoms: C_12  and  C_20
REMARK    7  A    between atoms: C_12  and  C_21
REMARK    8  A    between atoms: C_13  and  C_23
REMARK    9  A    between atoms: C_23  and  C_24
REMARK   10  A    between atoms: C_26  and  C_29
REMARK   11  A    between atoms: C_28  and  C_30
REMARK                            x       y       z     vdW  Elec       q    Type
REMARK                         _______ _______ _______ _____ _____    ______ ____
ROOT
ATOM      1  S   UNL     1       4.908  -6.733  38.618  0.00  0.00    -0.057 S 
ATOM      5  O   UNL     1       8.478  -4.412  36.819  0.00  0.00    -0.266 OA
ATOM      7  N   UNL     1       6.686  -6.711  36.738  0.00  0.00    -0.229 NA
ATOM      9  N   UNL     1       6.727  -4.872  38.295  0.00  0.00    -0.258 N 
ATOM     10  C   UNL     1       5.445 -10.213  35.703  0.00  0.00    -0.019 C 
ATOM     11  C   UNL     1       3.956  -9.913  36.181  0.00  0.00    +0.011 C 
ATOM     12  C   UNL     1       2.927 -11.106  36.112  0.00  0.00    +0.021 C 
ATOM     13  C   UNL     1       6.170  -8.813  35.441  0.00  0.00    +0.054 C 
ATOM     14  C   UNL     1       5.409 -11.001  34.369  0.00  0.00    +0.010 C 
ATOM     15  C   UNL     1       3.055 -11.813  34.732  0.00  0.00    +0.123 C 
ATOM     16  C   UNL     1       3.937  -9.147  37.536  0.00  0.00    +0.049 C 
ATOM     17  C   UNL     1       4.487 -12.213  34.393  0.00  0.00    +0.032 C 
ATOM     18  C   UNL     1       6.256 -11.028  36.741  0.00  0.00    +0.012 C 
ATOM     19  C   UNL     1       5.923  -7.854  36.578  0.00  0.00    +0.058 A 
ATOM     21  C   UNL     1       1.483 -10.537  36.206  0.00  0.00    +0.016 C 
ATOM     22  C   UNL     1       4.904  -8.013  37.494  0.00  0.00    +0.015 A 
ATOM     25  C   UNL     1       6.246  -6.049  37.786  0.00  0.00    +0.165 A 
ATOM     28  C   UNL     1       7.809  -4.107  37.803  0.00  0.00    +0.285 C 
ATOM     41  H   UNL     1       6.243  -4.532  39.122  0.00  0.00    +0.157 HD
ENDROOT
BRANCH  28  30
ATOM      6  O   UNL     1       7.146  -2.365  39.359  0.00  0.00    -0.458 OA
ATOM     30  C   UNL     1       8.129  -2.902  38.589  0.00  0.00    +0.189 A 
ATOM     33  C   UNL     1       9.289  -2.171  38.707  0.00  0.00    +0.054 A 
ATOM     37  C   UNL     1       8.999  -1.118  39.607  0.00  0.00    +0.042 A 
ATOM     38  C   UNL     1       7.685  -1.280  39.975  0.00  0.00    +0.196 A 
ENDBRANCH  28  30
BRANCH  15   2
ATOM      2  O   UNL     1       2.230 -12.977  34.684  0.00  0.00    -0.391 OA
ATOM     39  H   UNL     1       2.175 -13.261  33.757  0.00  0.00    +0.210 HD
ENDBRANCH  15   2
BRANCH  12  20
ATOM     20  C   UNL     1       3.049 -12.125  37.265  0.00  0.00    +0.165 C 
BRANCH  20   3
ATOM      3  O   UNL     1       1.753 -12.591  37.568  0.00  0.00    -0.394 OA
ATOM     40  H   UNL     1       1.190 -11.811  37.713  0.00  0.00    +0.209 HD
ENDBRANCH  20   3
ENDBRANCH  12  20
BRANCH  13  23
ATOM     23  C   UNL     1       7.666  -8.922  35.113  0.00  0.00    +0.106 C 
BRANCH  23  24
ATOM      4  O   UNL     1       7.527  -7.875  32.960  0.00  0.00    -0.276 OA
ATOM      8  N   UNL     1       8.653  -9.899  33.072  0.00  0.00    -0.300 N 
ATOM     24  C   UNL     1       7.931  -8.834  33.622  0.00  0.00    +0.216 C 
ATOM     27  C   UNL     1       9.122 -11.022  33.873  0.00  0.00    +0.132 C 
BRANCH   8  26
ATOM     26  C   UNL     1       8.994  -9.964  31.652  0.00  0.00    +0.142 C 
BRANCH  26  29
ATOM     29  C   UNL     1       8.255 -11.066  30.948  0.00  0.00    -0.030 A 
ATOM     31  C   UNL     1       6.861 -11.106  30.984  0.00  0.00    +0.005 A 
ATOM     32  C   UNL     1       8.963 -12.048  30.256  0.00  0.00    +0.005 A 
ATOM     34  C   UNL     1       6.176 -12.129  30.329  0.00  0.00    +0.000 A 
ATOM     35  C   UNL     1       8.278 -13.071  29.601  0.00  0.00    +0.000 A 
ATOM     36  C   UNL     1       6.884 -13.111  29.638  0.00  0.00    +0.000 A 
ENDBRANCH  26  29
ENDBRANCH   8  26
ENDBRANCH  23  24
ENDBRANCH  13  23
TORSDOF 8
ENDMDL
