MODEL 1
REMARK VINA RESULT:      -7.1      0.000      0.000
REMARK  Name = 75536266
REMARK  9 active torsions:
REMARK  status: ('A' for Active; 'I' for Inactive)
REMARK    1  A    between atoms: O_3  and  C_8
REMARK    2  A    between atoms: N_5  and  C_12
REMARK    3  A    between atoms: N_5  and  C_15
REMARK    4  A    between atoms: C_7  and  C_12
REMARK    5  A    between atoms: C_9  and  C_13
REMARK    6  A    between atoms: C_13  and  C_14
REMARK    7  A    between atoms: C_15  and  C_17
REMARK    8  A    between atoms: C_15  and  C_18
REMARK    9  A    between atoms: C_19  and  C_20
REMARK                            x       y       z     vdW  Elec       q    Type
REMARK                         _______ _______ _______ _____ _____    ______ ____
ROOT
ATOM      2  O   UNL     1      10.626   8.460  19.693  0.00  0.00    -0.369 OA
ATOM      7  C   UNL     1      10.775   8.425  21.118  0.00  0.00    +0.161 C 
ATOM      8  C   UNL     1      11.516   7.159  21.570  0.00  0.00    +0.145 C 
ATOM      9  C   UNL     1      11.843   8.346  18.951  0.00  0.00    +0.125 C 
ATOM     10  C   UNL     1      12.805   6.928  20.787  0.00  0.00    +0.036 C 
ATOM     11  C   UNL     1      12.557   7.038  19.285  0.00  0.00    +0.034 C 
ENDROOT
BRANCH   8   3
ATOM      3  O   UNL     1      10.667   6.028  21.357  0.00  0.00    -0.389 OA
ATOM     27  H   UNL     1       9.874   6.148  21.907  0.00  0.00    +0.210 HD
ENDBRANCH   8   3
BRANCH   7  12
ATOM     12  C   UNL     1      11.418   9.709  21.637  0.00  0.00    +0.115 C 
BRANCH  12   5
ATOM      5  N   UNL     1      11.426   9.735  23.092  0.00  0.00    -0.311 NA
ATOM     26  H   UNL     1      10.513   9.427  23.427  0.00  0.00    +0.122 HD
BRANCH   5  15
ATOM     15  C   UNL     1      11.715  11.072  23.590  0.00  0.00    +0.048 C 
ATOM     17  C   UNL     1      11.101  11.267  24.973  0.00  0.00    +0.023 C 
ATOM     18  C   UNL     1      11.184  12.107  22.604  0.00  0.00    +0.023 C 
ENDBRANCH   5  15
ENDBRANCH  12   5
ENDBRANCH   7  12
BRANCH   9  13
ATOM     13  C   UNL     1      11.484   8.407  17.470  0.00  0.00    +0.090 C 
BRANCH  13  14
ATOM      4  O   UNL     1      13.580   9.884  14.938  0.00  0.00    -0.354 OA
ATOM      6  N   UNL     1      12.508   9.099  15.342  0.00  0.00    -0.083 NA
ATOM     14  C   UNL     1      12.522   9.153  16.676  0.00  0.00    +0.087 A 
ATOM     16  C   UNL     1      13.571   9.952  17.166  0.00  0.00    +0.076 A 
ATOM     19  C   UNL     1      14.205  10.387  16.034  0.00  0.00    +0.167 A 
BRANCH  19  20
ATOM      1  F   UNL     1      18.604  13.639  15.025  0.00  0.00    -0.205 F 
ATOM     20  C   UNL     1      15.338  11.226  15.773  0.00  0.00    +0.020 A 
ATOM     21  C   UNL     1      16.011  11.130  14.555  0.00  0.00    +0.014 A 
ATOM     22  C   UNL     1      15.768  12.137  16.738  0.00  0.00    +0.014 A 
ATOM     23  C   UNL     1      17.115  11.945  14.302  0.00  0.00    +0.039 A 
ATOM     24  C   UNL     1      16.872  12.952  16.485  0.00  0.00    +0.039 A 
ATOM     25  C   UNL     1      17.545  12.856  15.267  0.00  0.00    +0.123 A 
ENDBRANCH  19  20
ENDBRANCH  13  14
ENDBRANCH   9  13
TORSDOF 7
ENDMDL
MODEL 2
REMARK VINA RESULT:      -6.6      5.377      6.395
REMARK  Name = 75536266
REMARK  9 active torsions:
REMARK  status: ('A' for Active; 'I' for Inactive)
REMARK    1  A    between atoms: O_3  and  C_8
REMARK    2  A    between atoms: N_5  and  C_12
REMARK    3  A    between atoms: N_5  and  C_15
REMARK    4  A    between atoms: C_7  and  C_12
REMARK    5  A    between atoms: C_9  and  C_13
REMARK    6  A    between atoms: C_13  and  C_14
REMARK    7  A    between atoms: C_15  and  C_17
REMARK    8  A    between atoms: C_15  and  C_18
REMARK    9  A    between atoms: C_19  and  C_20
REMARK                            x       y       z     vdW  Elec       q    Type
REMARK                         _______ _______ _______ _____ _____    ______ ____
ROOT
ATOM      2  O   UNL     1      13.240   9.097  19.974  0.00  0.00    -0.369 OA
ATOM      7  C   UNL     1      12.165   9.465  20.847  0.00  0.00    +0.161 C 
ATOM      8  C   UNL     1      11.045   8.416  20.827  0.00  0.00    +0.145 C 
ATOM      9  C   UNL     1      13.809   7.808  20.218  0.00  0.00    +0.125 C 
ATOM     10  C   UNL     1      11.572   6.998  21.024  0.00  0.00    +0.036 C 
ATOM     11  C   UNL     1      12.746   6.718  20.090  0.00  0.00    +0.034 C 
ENDROOT
BRANCH   8   3
ATOM      3  O   UNL     1      10.392   8.466  19.555  0.00  0.00    -0.389 OA
ATOM     27  H   UNL     1       9.522   8.881  19.688  0.00  0.00    +0.210 HD
ENDBRANCH   8   3
BRANCH   7  12
ATOM     12  C   UNL     1      12.677   9.763  22.255  0.00  0.00    +0.115 C 
BRANCH  12   5
ATOM      5  N   UNL     1      11.575  10.074  23.153  0.00  0.00    -0.311 NA
ATOM     26  H   UNL     1      10.699   9.975  22.639  0.00  0.00    +0.122 HD
BRANCH   5  15
ATOM     15  C   UNL     1      11.695  11.426  23.679  0.00  0.00    +0.048 C 
ATOM     17  C   UNL     1      11.124  11.497  25.093  0.00  0.00    +0.023 C 
ATOM     18  C   UNL     1      10.978  12.399  22.749  0.00  0.00    +0.023 C 
ENDBRANCH   5  15
ENDBRANCH  12   5
ENDBRANCH   7  12
BRANCH   9  13
ATOM     13  C   UNL     1      14.926   7.599  19.202  0.00  0.00    +0.090 C 
BRANCH  13  14
ATOM      4  O   UNL     1      18.016   8.064  20.997  0.00  0.00    -0.354 OA
ATOM      6  N   UNL     1      16.798   8.519  20.509  0.00  0.00    -0.083 NA
ATOM     14  C   UNL     1      16.269   7.472  19.869  0.00  0.00    +0.087 A 
ATOM     16  C   UNL     1      17.100   6.339  19.921  0.00  0.00    +0.076 A 
ATOM     19  C   UNL     1      18.184   6.765  20.641  0.00  0.00    +0.167 A 
BRANCH  19  20
ATOM      1  F   UNL     1      22.921   4.393  22.341  0.00  0.00    -0.205 F 
ATOM     20  C   UNL     1      19.405   6.153  21.080  0.00  0.00    +0.020 A 
ATOM     21  C   UNL     1      19.987   6.545  22.286  0.00  0.00    +0.014 A 
ATOM     22  C   UNL     1      20.010   5.166  20.300  0.00  0.00    +0.014 A 
ATOM     23  C   UNL     1      21.174   5.950  22.712  0.00  0.00    +0.039 A 
ATOM     24  C   UNL     1      21.198   4.573  20.726  0.00  0.00    +0.039 A 
ATOM     25  C   UNL     1      21.780   4.964  21.933  0.00  0.00    +0.123 A 
ENDBRANCH  19  20
ENDBRANCH  13  14
ENDBRANCH   9  13
TORSDOF 7
ENDMDL
MODEL 3
REMARK VINA RESULT:      -6.6     29.818     31.580
REMARK  Name = 75536266
REMARK  9 active torsions:
REMARK  status: ('A' for Active; 'I' for Inactive)
REMARK    1  A    between atoms: O_3  and  C_8
REMARK    2  A    between atoms: N_5  and  C_12
REMARK    3  A    between atoms: N_5  and  C_15
REMARK    4  A    between atoms: C_7  and  C_12
REMARK    5  A    between atoms: C_9  and  C_13
REMARK    6  A    between atoms: C_13  and  C_14
REMARK    7  A    between atoms: C_15  and  C_17
REMARK    8  A    between atoms: C_15  and  C_18
REMARK    9  A    between atoms: C_19  and  C_20
REMARK                            x       y       z     vdW  Elec       q    Type
REMARK                         _______ _______ _______ _____ _____    ______ ____
ROOT
ATOM      2  O   UNL     1     -13.737   1.793  31.120  0.00  0.00    -0.369 OA
ATOM      7  C   UNL     1     -14.004   1.346  29.785  0.00  0.00    +0.161 C 
ATOM      8  C   UNL     1     -14.253  -0.168  29.742  0.00  0.00    +0.145 C 
ATOM      9  C   UNL     1     -14.739   1.462  32.085  0.00  0.00    +0.125 C 
ATOM     10  C   UNL     1     -15.273  -0.619  30.784  0.00  0.00    +0.036 C 
ATOM     11  C   UNL     1     -14.935  -0.051  32.160  0.00  0.00    +0.034 C 
ENDROOT
BRANCH   8   3
ATOM      3  O   UNL     1     -13.023  -0.844  30.015  0.00  0.00    -0.389 OA
ATOM     27  H   UNL     1     -12.449  -0.735  29.238  0.00  0.00    +0.210 HD
ENDBRANCH   8   3
BRANCH   7  12
ATOM     12  C   UNL     1     -15.134   2.154  29.149  0.00  0.00    +0.115 C 
BRANCH  12   5
ATOM      5  N   UNL     1     -14.802   3.570  29.113  0.00  0.00    -0.311 NA
ATOM     26  H   UNL     1     -14.142   3.769  29.865  0.00  0.00    +0.122 HD
BRANCH   5  15
ATOM     15  C   UNL     1     -15.996   4.391  29.267  0.00  0.00    +0.048 C 
ATOM     17  C   UNL     1     -16.903   3.808  30.347  0.00  0.00    +0.023 C 
ATOM     18  C   UNL     1     -16.724   4.484  27.931  0.00  0.00    +0.023 C 
ENDBRANCH   5  15
ENDBRANCH  12   5
ENDBRANCH   7  12
BRANCH   9  13
ATOM     13  C   UNL     1     -14.283   2.018  33.429  0.00  0.00    +0.090 C 
BRANCH  13  14
ATOM      4  O   UNL     1     -14.576   5.522  34.218  0.00  0.00    -0.354 OA
ATOM      6  N   UNL     1     -14.681   4.176  34.544  0.00  0.00    -0.083 NA
ATOM     14  C   UNL     1     -14.297   3.523  33.444  0.00  0.00    +0.087 A 
ATOM     16  C   UNL     1     -13.941   4.396  32.401  0.00  0.00    +0.076 A 
ATOM     19  C   UNL     1     -14.135   5.640  32.939  0.00  0.00    +0.167 A 
BRANCH  19  20
ATOM      1  F   UNL     1     -13.508  10.843  31.071  0.00  0.00    -0.205 F 
ATOM     20  C   UNL     1     -13.974   6.982  32.459  0.00  0.00    +0.020 A 
ATOM     21  C   UNL     1     -15.031   7.622  31.812  0.00  0.00    +0.014 A 
ATOM     22  C   UNL     1     -12.759   7.646  32.636  0.00  0.00    +0.014 A 
ATOM     23  C   UNL     1     -14.874   8.927  31.344  0.00  0.00    +0.039 A 
ATOM     24  C   UNL     1     -12.602   8.950  32.167  0.00  0.00    +0.039 A 
ATOM     25  C   UNL     1     -13.660   9.591  31.521  0.00  0.00    +0.123 A 
ENDBRANCH  19  20
ENDBRANCH  13  14
ENDBRANCH   9  13
TORSDOF 7
ENDMDL
MODEL 4
REMARK VINA RESULT:      -6.3     27.229     28.302
REMARK  Name = 75536266
REMARK  9 active torsions:
REMARK  status: ('A' for Active; 'I' for Inactive)
REMARK    1  A    between atoms: O_3  and  C_8
REMARK    2  A    between atoms: N_5  and  C_12
REMARK    3  A    between atoms: N_5  and  C_15
REMARK    4  A    between atoms: C_7  and  C_12
REMARK    5  A    between atoms: C_9  and  C_13
REMARK    6  A    between atoms: C_13  and  C_14
REMARK    7  A    between atoms: C_15  and  C_17
REMARK    8  A    between atoms: C_15  and  C_18
REMARK    9  A    between atoms: C_19  and  C_20
REMARK                            x       y       z     vdW  Elec       q    Type
REMARK                         _______ _______ _______ _____ _____    ______ ____
ROOT
ATOM      2  O   UNL     1      -6.457 -11.568  17.267  0.00  0.00    -0.369 OA
ATOM      7  C   UNL     1      -7.607 -10.873  17.763  0.00  0.00    +0.161 C 
ATOM      8  C   UNL     1      -7.692 -10.954  19.294  0.00  0.00    +0.145 C 
ATOM      9  C   UNL     1      -5.207 -11.151  17.821  0.00  0.00    +0.125 C 
ATOM     10  C   UNL     1      -6.376 -10.578  19.969  0.00  0.00    +0.036 C 
ATOM     11  C   UNL     1      -5.206 -11.327  19.338  0.00  0.00    +0.034 C 
ENDROOT
BRANCH   8   3
ATOM      3  O   UNL     1      -8.005 -12.299  19.666  0.00  0.00    -0.389 OA
ATOM     27  H   UNL     1      -8.447 -12.269  20.531  0.00  0.00    +0.210 HD
ENDBRANCH   8   3
BRANCH   7  12
ATOM     12  C   UNL     1      -7.653  -9.439  17.239  0.00  0.00    +0.115 C 
BRANCH  12   5
ATOM      5  N   UNL     1      -8.723  -8.687  17.878  0.00  0.00    -0.311 NA
ATOM     26  H   UNL     1      -8.893  -9.084  18.802  0.00  0.00    +0.122 HD
BRANCH   5  15
ATOM     15  C   UNL     1      -9.942  -8.734  17.083  0.00  0.00    +0.048 C 
ATOM     17  C   UNL     1     -10.178  -7.393  16.395  0.00  0.00    +0.023 C 
ATOM     18  C   UNL     1     -11.119  -9.105  17.979  0.00  0.00    +0.023 C 
ENDBRANCH   5  15
ENDBRANCH  12   5
ENDBRANCH   7  12
BRANCH   9  13
ATOM     13  C   UNL     1      -4.114 -11.995  17.175  0.00  0.00    +0.090 C 
BRANCH  13  14
ATOM      4  O   UNL     1      -4.084 -12.368  13.591  0.00  0.00    -0.354 OA
ATOM      6  N   UNL     1      -4.131 -12.883  14.880  0.00  0.00    -0.083 NA
ATOM     14  C   UNL     1      -4.082 -11.816  15.681  0.00  0.00    +0.087 A 
ATOM     16  C   UNL     1      -4.004 -10.610  14.961  0.00  0.00    +0.076 A 
ATOM     19  C   UNL     1      -4.009 -11.014  13.652  0.00  0.00    +0.167 A 
BRANCH  19  20
ATOM      1  F   UNL     1      -3.800  -8.381   8.756  0.00  0.00    -0.205 F 
ATOM     20  C   UNL     1      -3.955 -10.336  12.389  0.00  0.00    +0.020 A 
ATOM     21  C   UNL     1      -2.737 -10.200  11.723  0.00  0.00    +0.014 A 
ATOM     22  C   UNL     1      -5.120  -9.812  11.829  0.00  0.00    +0.014 A 
ATOM     23  C   UNL     1      -2.685  -9.540  10.495  0.00  0.00    +0.039 A 
ATOM     24  C   UNL     1      -5.067  -9.151  10.602  0.00  0.00    +0.039 A 
ATOM     25  C   UNL     1      -3.850  -9.016   9.934  0.00  0.00    +0.123 A 
ENDBRANCH  19  20
ENDBRANCH  13  14
ENDBRANCH   9  13
TORSDOF 7
ENDMDL
MODEL 5
REMARK VINA RESULT:      -6.2     27.028     28.814
REMARK  Name = 75536266
REMARK  9 active torsions:
REMARK  status: ('A' for Active; 'I' for Inactive)
REMARK    1  A    between atoms: O_3  and  C_8
REMARK    2  A    between atoms: N_5  and  C_12
REMARK    3  A    between atoms: N_5  and  C_15
REMARK    4  A    between atoms: C_7  and  C_12
REMARK    5  A    between atoms: C_9  and  C_13
REMARK    6  A    between atoms: C_13  and  C_14
REMARK    7  A    between atoms: C_15  and  C_17
REMARK    8  A    between atoms: C_15  and  C_18
REMARK    9  A    between atoms: C_19  and  C_20
REMARK                            x       y       z     vdW  Elec       q    Type
REMARK                         _______ _______ _______ _____ _____    ______ ____
ROOT
ATOM      2  O   UNL     1      -3.634  -9.637   9.887  0.00  0.00    -0.369 OA
ATOM      7  C   UNL     1      -4.757  -9.416   9.025  0.00  0.00    +0.161 C 
ATOM      8  C   UNL     1      -5.324 -10.741   8.497  0.00  0.00    +0.145 C 
ATOM      9  C   UNL     1      -3.876 -10.509  10.993  0.00  0.00    +0.125 C 
ATOM     10  C   UNL     1      -5.562 -11.757   9.610  0.00  0.00    +0.036 C 
ATOM     11  C   UNL     1      -4.332 -11.883  10.505  0.00  0.00    +0.034 C 
ENDROOT
BRANCH   8   3
ATOM      3  O   UNL     1      -4.386 -11.310   7.580  0.00  0.00    -0.389 OA
ATOM     27  H   UNL     1      -3.656 -11.683   8.101  0.00  0.00    +0.210 HD
ENDBRANCH   8   3
BRANCH   7  12
ATOM     12  C   UNL     1      -5.811  -8.546   9.707  0.00  0.00    +0.115 C 
BRANCH  12   5
ATOM      5  N   UNL     1      -6.294  -7.512   8.803  0.00  0.00    -0.311 NA
ATOM     26  H   UNL     1      -6.196  -6.607   9.263  0.00  0.00    +0.122 HD
BRANCH   5  15
ATOM     15  C   UNL     1      -7.686  -7.741   8.443  0.00  0.00    +0.048 C 
ATOM     17  C   UNL     1      -8.375  -6.417   8.125  0.00  0.00    +0.023 C 
ATOM     18  C   UNL     1      -8.393  -8.467   9.582  0.00  0.00    +0.023 C 
ENDBRANCH   5  15
ENDBRANCH  12   5
ENDBRANCH   7  12
BRANCH   9  13
ATOM     13  C   UNL     1      -2.579 -10.617  11.785  0.00  0.00    +0.090 C 
BRANCH  13  14
ATOM      4  O   UNL     1      -2.383 -10.503  15.382  0.00  0.00    -0.354 OA
ATOM      6  N   UNL     1      -1.808 -10.476  14.118  0.00  0.00    -0.083 NA
ATOM     14  C   UNL     1      -2.830 -10.606  13.270  0.00  0.00    +0.087 A 
ATOM     16  C   UNL     1      -4.065 -10.717  13.934  0.00  0.00    +0.076 A 
ATOM     19  C   UNL     1      -3.728 -10.647  15.259  0.00  0.00    +0.167 A 
BRANCH  19  20
ATOM      1  F   UNL     1      -6.581 -10.810  20.032  0.00  0.00    -0.205 F 
ATOM     20  C   UNL     1      -4.464 -10.690  16.489  0.00  0.00    +0.020 A 
ATOM     21  C   UNL     1      -5.701 -10.053  16.583  0.00  0.00    +0.014 A 
ATOM     22  C   UNL     1      -3.942 -11.368  17.591  0.00  0.00    +0.014 A 
ATOM     23  C   UNL     1      -6.417 -10.094  17.780  0.00  0.00    +0.039 A 
ATOM     24  C   UNL     1      -4.657 -11.408  18.788  0.00  0.00    +0.039 A 
ATOM     25  C   UNL     1      -5.895 -10.771  18.882  0.00  0.00    +0.123 A 
ENDBRANCH  19  20
ENDBRANCH  13  14
ENDBRANCH   9  13
TORSDOF 7
ENDMDL
MODEL 6
REMARK VINA RESULT:      -6.2     13.724     17.774
REMARK  Name = 75536266
REMARK  9 active torsions:
REMARK  status: ('A' for Active; 'I' for Inactive)
REMARK    1  A    between atoms: O_3  and  C_8
REMARK    2  A    between atoms: N_5  and  C_12
REMARK    3  A    between atoms: N_5  and  C_15
REMARK    4  A    between atoms: C_7  and  C_12
REMARK    5  A    between atoms: C_9  and  C_13
REMARK    6  A    between atoms: C_13  and  C_14
REMARK    7  A    between atoms: C_15  and  C_17
REMARK    8  A    between atoms: C_15  and  C_18
REMARK    9  A    between atoms: C_19  and  C_20
REMARK                            x       y       z     vdW  Elec       q    Type
REMARK                         _______ _______ _______ _____ _____    ______ ____
ROOT
ATOM      2  O   UNL     1      12.997   5.043   2.165  0.00  0.00    -0.369 OA
ATOM      7  C   UNL     1      14.403   5.299   2.065  0.00  0.00    +0.161 C 
ATOM      8  C   UNL     1      15.120   4.182   1.294  0.00  0.00    +0.145 C 
ATOM      9  C   UNL     1      12.325   4.838   0.919  0.00  0.00    +0.125 C 
ATOM     10  C   UNL     1      14.434   3.858  -0.030  0.00  0.00    +0.036 C 
ATOM     11  C   UNL     1      12.934   3.656   0.168  0.00  0.00    +0.034 C 
ENDROOT
BRANCH   8   3
ATOM      3  O   UNL     1      15.114   2.995   2.091  0.00  0.00    -0.389 OA
ATOM     27  H   UNL     1      16.034   2.804   2.341  0.00  0.00    +0.210 HD
ENDBRANCH   8   3
BRANCH   7  12
ATOM     12  C   UNL     1      14.672   6.688   1.491  0.00  0.00    +0.115 C 
BRANCH  12   5
ATOM      5  N   UNL     1      16.095   6.892   1.271  0.00  0.00    -0.311 NA
ATOM     26  H   UNL     1      16.443   7.544   1.975  0.00  0.00    +0.122 HD
BRANCH   5  15
ATOM     15  C   UNL     1      16.349   7.418  -0.063  0.00  0.00    +0.048 C 
ATOM     17  C   UNL     1      15.043   7.527  -0.846  0.00  0.00    +0.023 C 
ATOM     18  C   UNL     1      17.345   6.516  -0.783  0.00  0.00    +0.023 C 
ENDBRANCH   5  15
ENDBRANCH  12   5
ENDBRANCH   7  12
BRANCH   9  13
ATOM     13  C   UNL     1      10.854   4.587   1.226  0.00  0.00    +0.090 C 
BRANCH  13  14
ATOM      4  O   UNL     1       9.800   6.495   4.096  0.00  0.00    -0.354 OA
ATOM      6  N   UNL     1      10.063   6.360   2.739  0.00  0.00    -0.083 NA
ATOM     14  C   UNL     1      10.474   5.098   2.591  0.00  0.00    +0.087 A 
ATOM     16  C   UNL     1      10.491   4.395   3.808  0.00  0.00    +0.076 A 
ATOM     19  C   UNL     1      10.058   5.318   4.722  0.00  0.00    +0.167 A 
BRANCH  19  20
ATOM      1  F   UNL     1       9.173   5.259  10.214  0.00  0.00    -0.205 F 
ATOM     20  C   UNL     1       9.829   5.303   6.137  0.00  0.00    +0.020 A 
ATOM     21  C   UNL     1       9.468   6.478   6.798  0.00  0.00    +0.014 A 
ATOM     22  C   UNL     1       9.968   4.113   6.854  0.00  0.00    +0.014 A 
ATOM     23  C   UNL     1       9.246   6.463   8.175  0.00  0.00    +0.039 A 
ATOM     24  C   UNL     1       9.747   4.099   8.231  0.00  0.00    +0.039 A 
ATOM     25  C   UNL     1       9.385   5.274   8.892  0.00  0.00    +0.123 A 
ENDBRANCH  19  20
ENDBRANCH  13  14
ENDBRANCH   9  13
TORSDOF 7
ENDMDL
MODEL 7
REMARK VINA RESULT:      -6.1     24.337     27.252
REMARK  Name = 75536266
REMARK  9 active torsions:
REMARK  status: ('A' for Active; 'I' for Inactive)
REMARK    1  A    between atoms: O_3  and  C_8
REMARK    2  A    between atoms: N_5  and  C_12
REMARK    3  A    between atoms: N_5  and  C_15
REMARK    4  A    between atoms: C_7  and  C_12
REMARK    5  A    between atoms: C_9  and  C_13
REMARK    6  A    between atoms: C_13  and  C_14
REMARK    7  A    between atoms: C_15  and  C_17
REMARK    8  A    between atoms: C_15  and  C_18
REMARK    9  A    between atoms: C_19  and  C_20
REMARK                            x       y       z     vdW  Elec       q    Type
REMARK                         _______ _______ _______ _____ _____    ______ ____
ROOT
ATOM      2  O   UNL     1     -10.006   9.118  17.957  0.00  0.00    -0.369 OA
ATOM      7  C   UNL     1     -10.132   9.612  16.618  0.00  0.00    +0.161 C 
ATOM      8  C   UNL     1     -11.032   8.704  15.769  0.00  0.00    +0.145 C 
ATOM      9  C   UNL     1     -11.241   8.915  18.649  0.00  0.00    +0.125 C 
ATOM     10  C   UNL     1     -12.355   8.388  16.460  0.00  0.00    +0.036 C 
ATOM     11  C   UNL     1     -12.123   7.922  17.895  0.00  0.00    +0.034 C 
ENDROOT
BRANCH   8   3
ATOM      3  O   UNL     1     -10.352   7.467  15.541  0.00  0.00    -0.389 OA
ATOM     27  H   UNL     1      -9.399   7.654  15.520  0.00  0.00    +0.210 HD
ENDBRANCH   8   3
BRANCH   7  12
ATOM     12  C   UNL     1     -10.580  11.072  16.609  0.00  0.00    +0.115 C 
BRANCH  12   5
ATOM      5  N   UNL     1      -9.744  11.866  15.721  0.00  0.00    -0.311 NA
ATOM     26  H   UNL     1      -8.902  11.333  15.503  0.00  0.00    +0.122 HD
BRANCH   5  15
ATOM     15  C   UNL     1      -9.385  13.136  16.337  0.00  0.00    +0.048 C 
ATOM     17  C   UNL     1      -7.870  13.245  16.482  0.00  0.00    +0.023 C 
ATOM     18  C   UNL     1     -10.075  13.256  17.691  0.00  0.00    +0.023 C 
ENDBRANCH   5  15
ENDBRANCH  12   5
ENDBRANCH   7  12
BRANCH   9  13
ATOM     13  C   UNL     1     -10.906   8.396  20.042  0.00  0.00    +0.090 C 
BRANCH  13  14
ATOM      4  O   UNL     1     -14.029   7.973  21.791  0.00  0.00    -0.354 OA
ATOM      6  N   UNL     1     -13.055   8.757  21.186  0.00  0.00    -0.083 NA
ATOM     14  C   UNL     1     -12.131   7.893  20.759  0.00  0.00    +0.087 A 
ATOM     16  C   UNL     1     -12.464   6.561  21.062  0.00  0.00    +0.076 A 
ATOM     19  C   UNL     1     -13.666   6.667  21.710  0.00  0.00    +0.167 A 
BRANCH  19  20
ATOM      1  F   UNL     1     -17.215   3.027  23.969  0.00  0.00    -0.205 F 
ATOM     20  C   UNL     1     -14.581   5.729  22.293  0.00  0.00    +0.020 A 
ATOM     21  C   UNL     1     -14.234   5.050  23.461  0.00  0.00    +0.014 A 
ATOM     22  C   UNL     1     -15.818   5.495  21.691  0.00  0.00    +0.014 A 
ATOM     23  C   UNL     1     -15.124   4.138  24.028  0.00  0.00    +0.039 A 
ATOM     24  C   UNL     1     -16.707   4.582  22.257  0.00  0.00    +0.039 A 
ATOM     25  C   UNL     1     -16.360   3.903  23.426  0.00  0.00    +0.123 A 
ENDBRANCH  19  20
ENDBRANCH  13  14
ENDBRANCH   9  13
TORSDOF 7
ENDMDL
MODEL 8
REMARK VINA RESULT:      -6.1     26.928     28.598
REMARK  Name = 75536266
REMARK  9 active torsions:
REMARK  status: ('A' for Active; 'I' for Inactive)
REMARK    1  A    between atoms: O_3  and  C_8
REMARK    2  A    between atoms: N_5  and  C_12
REMARK    3  A    between atoms: N_5  and  C_15
REMARK    4  A    between atoms: C_7  and  C_12
REMARK    5  A    between atoms: C_9  and  C_13
REMARK    6  A    between atoms: C_13  and  C_14
REMARK    7  A    between atoms: C_15  and  C_17
REMARK    8  A    between atoms: C_15  and  C_18
REMARK    9  A    between atoms: C_19  and  C_20
REMARK                            x       y       z     vdW  Elec       q    Type
REMARK                         _______ _______ _______ _____ _____    ______ ____
ROOT
ATOM      2  O   UNL     1      -4.968 -11.877  18.144  0.00  0.00    -0.369 OA
ATOM      7  C   UNL     1      -6.295 -12.161  18.604  0.00  0.00    +0.161 C 
ATOM      8  C   UNL     1      -7.101 -10.872  18.813  0.00  0.00    +0.145 C 
ATOM      9  C   UNL     1      -4.892 -11.087  16.955  0.00  0.00    +0.125 C 
ATOM     10  C   UNL     1      -7.029  -9.939  17.608  0.00  0.00    +0.036 C 
ATOM     11  C   UNL     1      -5.583  -9.740  17.158  0.00  0.00    +0.034 C 
ENDROOT
BRANCH   8   3
ATOM      3  O   UNL     1      -6.566 -10.172  19.939  0.00  0.00    -0.389 OA
ATOM     27  H   UNL     1      -7.257  -9.570  20.267  0.00  0.00    +0.210 HD
ENDBRANCH   8   3
BRANCH   7  12
ATOM     12  C   UNL     1      -6.995 -13.160  17.685  0.00  0.00    +0.115 C 
BRANCH  12   5
ATOM      5  N   UNL     1      -6.196 -14.364  17.522  0.00  0.00    -0.311 NA
ATOM     26  H   UNL     1      -5.287 -14.213  17.960  0.00  0.00    +0.122 HD
BRANCH   5  15
ATOM     15  C   UNL     1      -6.023 -14.690  16.113  0.00  0.00    +0.048 C 
ATOM     17  C   UNL     1      -4.555 -14.560  15.716  0.00  0.00    +0.023 C 
ATOM     18  C   UNL     1      -6.903 -13.776  15.268  0.00  0.00    +0.023 C 
ENDBRANCH   5  15
ENDBRANCH  12   5
ENDBRANCH   7  12
BRANCH   9  13
ATOM     13  C   UNL     1      -3.416 -10.896  16.625  0.00  0.00    +0.090 C 
BRANCH  13  14
ATOM      4  O   UNL     1      -2.124 -10.372  13.302  0.00  0.00    -0.354 OA
ATOM      6  N   UNL     1      -1.981 -10.424  14.682  0.00  0.00    -0.083 NA
ATOM     14  C   UNL     1      -3.191 -10.747  15.144  0.00  0.00    +0.087 A 
ATOM     16  C   UNL     1      -4.131 -10.912  14.110  0.00  0.00    +0.076 A 
ATOM     19  C   UNL     1      -3.409 -10.665  12.973  0.00  0.00    +0.167 A 
BRANCH  19  20
ATOM      1  F   UNL     1      -4.576 -10.619   7.534  0.00  0.00    -0.205 F 
ATOM     20  C   UNL     1      -3.711 -10.653  11.572  0.00  0.00    +0.020 A 
ATOM     21  C   UNL     1      -3.944 -11.853  10.898  0.00  0.00    +0.014 A 
ATOM     22  C   UNL     1      -3.771  -9.442  10.881  0.00  0.00    +0.014 A 
ATOM     23  C   UNL     1      -4.236 -11.841   9.535  0.00  0.00    +0.039 A 
ATOM     24  C   UNL     1      -4.062  -9.431   9.517  0.00  0.00    +0.039 A 
ATOM     25  C   UNL     1      -4.296 -10.631   8.844  0.00  0.00    +0.123 A 
ENDBRANCH  19  20
ENDBRANCH  13  14
ENDBRANCH   9  13
TORSDOF 7
ENDMDL
MODEL 9
REMARK VINA RESULT:      -6.1     26.958     28.340
REMARK  Name = 75536266
REMARK  9 active torsions:
REMARK  status: ('A' for Active; 'I' for Inactive)
REMARK    1  A    between atoms: O_3  and  C_8
REMARK    2  A    between atoms: N_5  and  C_12
REMARK    3  A    between atoms: N_5  and  C_15
REMARK    4  A    between atoms: C_7  and  C_12
REMARK    5  A    between atoms: C_9  and  C_13
REMARK    6  A    between atoms: C_13  and  C_14
REMARK    7  A    between atoms: C_15  and  C_17
REMARK    8  A    between atoms: C_15  and  C_18
REMARK    9  A    between atoms: C_19  and  C_20
REMARK                            x       y       z     vdW  Elec       q    Type
REMARK                         _______ _______ _______ _____ _____    ______ ____
ROOT
ATOM      2  O   UNL     1      -4.125 -12.474  15.742  0.00  0.00    -0.369 OA
ATOM      7  C   UNL     1      -5.362 -12.896  16.329  0.00  0.00    +0.161 C 
ATOM      8  C   UNL     1      -5.262 -12.955  17.860  0.00  0.00    +0.145 C 
ATOM      9  C   UNL     1      -3.618 -11.226  16.221  0.00  0.00    +0.125 C 
ATOM     10  C   UNL     1      -4.675 -11.678  18.454  0.00  0.00    +0.036 C 
ATOM     11  C   UNL     1      -3.391 -11.280  17.730  0.00  0.00    +0.034 C 
ENDROOT
BRANCH   8   3
ATOM      3  O   UNL     1      -4.405 -14.040  18.223  0.00  0.00    -0.389 OA
ATOM     27  H   UNL     1      -3.782 -13.710  18.893  0.00  0.00    +0.210 HD
ENDBRANCH   8   3
BRANCH   7  12
ATOM     12  C   UNL     1      -6.525 -12.035  15.841  0.00  0.00    +0.115 C 
BRANCH  12   5
ATOM      5  N   UNL     1      -7.648 -12.108  16.763  0.00  0.00    -0.311 NA
ATOM     26  H   UNL     1      -8.385 -12.669  16.336  0.00  0.00    +0.122 HD
BRANCH   5  15
ATOM     15  C   UNL     1      -8.153 -10.779  17.079  0.00  0.00    +0.048 C 
ATOM     17  C   UNL     1      -7.213  -9.711  16.526  0.00  0.00    +0.023 C 
ATOM     18  C   UNL     1      -8.312 -10.641  18.589  0.00  0.00    +0.023 C 
ENDBRANCH   5  15
ENDBRANCH  12   5
ENDBRANCH   7  12
BRANCH   9  13
ATOM     13  C   UNL     1      -2.312 -10.948  15.485  0.00  0.00    +0.090 C 
BRANCH  13  14
ATOM      4  O   UNL     1      -2.095 -11.684  11.964  0.00  0.00    -0.354 OA
ATOM      6  N   UNL     1      -1.668 -11.826  13.278  0.00  0.00    -0.083 NA
ATOM     14  C   UNL     1      -2.482 -11.045  13.993  0.00  0.00    +0.087 A 
ATOM     16  C   UNL     1      -3.435 -10.392  13.191  0.00  0.00    +0.076 A 
ATOM     19  C   UNL     1      -3.148 -10.828  11.925  0.00  0.00    +0.167 A 
BRANCH  19  20
ATOM      1  F   UNL     1      -5.296  -9.874   6.883  0.00  0.00    -0.205 F 
ATOM     20  C   UNL     1      -3.703 -10.582  10.626  0.00  0.00    +0.020 A 
ATOM     21  C   UNL     1      -4.072 -11.653   9.812  0.00  0.00    +0.014 A 
ATOM     22  C   UNL     1      -3.871  -9.272  10.176  0.00  0.00    +0.014 A 
ATOM     23  C   UNL     1      -4.611 -11.414   8.548  0.00  0.00    +0.039 A 
ATOM     24  C   UNL     1      -4.409  -9.034   8.911  0.00  0.00    +0.039 A 
ATOM     25  C   UNL     1      -4.779 -10.105   8.097  0.00  0.00    +0.123 A 
ENDBRANCH  19  20
ENDBRANCH  13  14
ENDBRANCH   9  13
TORSDOF 7
ENDMDL
MODEL 10
REMARK VINA RESULT:      -6.1     27.054     29.137
REMARK  Name = 75536266
REMARK  9 active torsions:
REMARK  status: ('A' for Active; 'I' for Inactive)
REMARK    1  A    between atoms: O_3  and  C_8
REMARK    2  A    between atoms: N_5  and  C_12
REMARK    3  A    between atoms: N_5  and  C_15
REMARK    4  A    between atoms: C_7  and  C_12
REMARK    5  A    between atoms: C_9  and  C_13
REMARK    6  A    between atoms: C_13  and  C_14
REMARK    7  A    between atoms: C_15  and  C_17
REMARK    8  A    between atoms: C_15  and  C_18
REMARK    9  A    between atoms: C_19  and  C_20
REMARK                            x       y       z     vdW  Elec       q    Type
REMARK                         _______ _______ _______ _____ _____    ______ ____
ROOT
ATOM      2  O   UNL     1      -2.199 -10.845  13.828  0.00  0.00    -0.369 OA
ATOM      7  C   UNL     1      -2.179 -11.419  12.515  0.00  0.00    +0.161 C 
ATOM      8  C   UNL     1      -2.269 -12.950  12.572  0.00  0.00    +0.145 C 
ATOM      9  C   UNL     1      -3.320 -11.212  14.636  0.00  0.00    +0.125 C 
ATOM     10  C   UNL     1      -3.410 -13.432  13.463  0.00  0.00    +0.036 C 
ATOM     11  C   UNL     1      -3.379 -12.727  14.817  0.00  0.00    +0.034 C 
ENDROOT
BRANCH   8   3
ATOM      3  O   UNL     1      -1.048 -13.462  13.111  0.00  0.00    -0.389 OA
ATOM     27  H   UNL     1      -1.150 -14.424  13.209  0.00  0.00    +0.210 HD
ENDBRANCH   8   3
BRANCH   7  12
ATOM     12  C   UNL     1      -3.250 -10.792  11.624  0.00  0.00    +0.115 C 
BRANCH  12   5
ATOM      5  N   UNL     1      -2.704  -9.683  10.857  0.00  0.00    -0.311 NA
ATOM     26  H   UNL     1      -2.518  -8.907  11.493  0.00  0.00    +0.122 HD
BRANCH   5  15
ATOM     15  C   UNL     1      -3.629  -9.262   9.814  0.00  0.00    +0.048 C 
ATOM     17  C   UNL     1      -4.736  -8.394  10.407  0.00  0.00    +0.023 C 
ATOM     18  C   UNL     1      -4.208 -10.491   9.122  0.00  0.00    +0.023 C 
ENDBRANCH   5  15
ENDBRANCH  12   5
ENDBRANCH   7  12
BRANCH   9  13
ATOM     13  C   UNL     1      -3.167 -10.510  15.980  0.00  0.00    +0.090 C 
BRANCH  13  14
ATOM      4  O   UNL     1      -5.864 -10.780  18.354  0.00  0.00    -0.354 OA
ATOM      6  N   UNL     1      -4.551 -10.996  17.955  0.00  0.00    -0.083 NA
ATOM     14  C   UNL     1      -4.468 -10.461  16.735  0.00  0.00    +0.087 A 
ATOM     16  C   UNL     1      -5.686  -9.897  16.315  0.00  0.00    +0.076 A 
ATOM     19  C   UNL     1      -6.529 -10.125  17.369  0.00  0.00    +0.167 A 
BRANCH  19  20
ATOM      1  F   UNL     1     -11.868  -8.968  18.422  0.00  0.00    -0.205 F 
ATOM     20  C   UNL     1      -7.906  -9.827  17.639  0.00  0.00    +0.020 A 
ATOM     21  C   UNL     1      -8.531  -8.766  16.985  0.00  0.00    +0.014 A 
ATOM     22  C   UNL     1      -8.619 -10.599  18.558  0.00  0.00    +0.014 A 
ATOM     23  C   UNL     1      -9.870  -8.476  17.249  0.00  0.00    +0.039 A 
ATOM     24  C   UNL     1      -9.957 -10.308  18.822  0.00  0.00    +0.039 A 
ATOM     25  C   UNL     1     -10.583  -9.247  18.167  0.00  0.00    +0.123 A 
ENDBRANCH  19  20
ENDBRANCH  13  14
ENDBRANCH   9  13
TORSDOF 7
ENDMDL
