REMARK  Name = 75536059
REMARK  8 active torsions:
REMARK  status: ('A' for Active; 'I' for Inactive)
REMARK    1  A    between atoms: O_1  and  C_8
REMARK    2  A    between atoms: O_2  and  C_10
REMARK    3  A    between atoms: O_4  and  C_22
REMARK    4  A    between atoms: O_4  and  C_25
REMARK    5  A    between atoms: N_5  and  C_7
REMARK    6  A    between atoms: C_6  and  C_11
REMARK    7  A    between atoms: C_12  and  C_16
REMARK    8  A    between atoms: C_14  and  C_19
REMARK                            x       y       z     vdW  Elec       q    Type
REMARK                         _______ _______ _______ _____ _____    ______ ____
ROOT
ATOM      6  C   UNL     1       1.996   0.646   0.886  0.00  0.00    +0.045 C 
ATOM      7  C   UNL     1       1.060   1.311  -0.149  0.00  0.00    +0.112 C 
ATOM      8  C   UNL     1       1.207   2.803   0.145  0.00  0.00    +0.164 C 
ATOM      9  C   UNL     1       3.028   1.733   1.282  0.00  0.00    +0.044 C 
ATOM     10  C   UNL     1       2.696   2.955   0.428  0.00  0.00    +0.145 C 
ENDROOT
BRANCH   6  11
ATOM     11  C   UNL     1       2.609  -0.645   0.387  0.00  0.00    -0.039 A 
ATOM     12  C   UNL     1       2.392  -1.849   1.058  0.00  0.00    -0.047 A 
ATOM     13  C   UNL     1       3.401  -0.619  -0.761  0.00  0.00    +0.004 A 
ATOM     15  C   UNL     1       2.968  -3.026   0.580  0.00  0.00    +0.003 A 
ATOM     16  C   UNL     1       1.548  -1.902   2.288  0.00  0.00    +0.044 C 
ATOM     17  C   UNL     1       3.977  -1.797  -1.238  0.00  0.00    +0.000 A 
ATOM     18  C   UNL     1       3.760  -3.001  -0.567  0.00  0.00    +0.000 A 
ENDBRANCH   6  11
BRANCH   7   5
ATOM      3  O   UNL     1      -0.190  -0.855  -1.561  0.00  0.00    -0.270 OA
ATOM      5  N   UNL     1      -0.303   0.866  -0.010  0.00  0.00    -0.305 N 
ATOM     14  C   UNL     1      -0.821  -0.196  -0.739  0.00  0.00    +0.244 C 
ATOM     26  H   UNL     1      -0.858   1.300   0.721  0.00  0.00    +0.149 HD
BRANCH  14  19
ATOM     19  C   UNL     1      -2.253  -0.514  -0.499  0.00  0.00    +0.040 A 
ATOM     20  C   UNL     1      -3.127   0.486  -0.074  0.00  0.00    +0.058 A 
ATOM     21  C   UNL     1      -2.722  -1.812  -0.699  0.00  0.00    +0.013 A 
ATOM     22  C   UNL     1      -4.471   0.188   0.151  0.00  0.00    +0.121 A 
ATOM     23  C   UNL     1      -4.066  -2.111  -0.474  0.00  0.00    +0.004 A 
ATOM     24  C   UNL     1      -4.941  -1.111  -0.049  0.00  0.00    +0.045 A 
BRANCH  22   4
ATOM      4  O   UNL     1      -5.325   1.163   0.565  0.00  0.00    -0.495 OA
ATOM     25  C   UNL     1      -6.686   0.788   0.775  0.00  0.00    +0.277 C 
ENDBRANCH  22   4
ENDBRANCH  14  19
ENDBRANCH   7   5
BRANCH   8   1
ATOM      1  O   UNL     1       0.809   3.607  -0.949  0.00  0.00    -0.387 OA
ATOM     27  H   UNL     1       1.018   4.530  -0.724  0.00  0.00    +0.210 HD
ENDBRANCH   8   1
BRANCH  10   2
ATOM      2  O   UNL     1       3.454   2.889  -0.777  0.00  0.00    -0.389 OA
ATOM     28  H   UNL     1       4.394   2.951  -0.535  0.00  0.00    +0.210 HD
ENDBRANCH  10   2
TORSDOF 6
