MODEL 1
REMARK VINA RESULT:      -7.0      0.000      0.000
REMARK  Name = 7144186
REMARK  4 active torsions:
REMARK  status: ('A' for Active; 'I' for Inactive)
REMARK    1  A    between atoms: O_6  and  C_30
REMARK    2  A    between atoms: O_6  and  C_33
REMARK    3  A    between atoms: C_17  and  C_22
REMARK    4  A    between atoms: C_19  and  C_23
REMARK                            x       y       z     vdW  Elec       q    Type
REMARK                         _______ _______ _______ _____ _____    ______ ____
ROOT
ATOM      4  O   UNL     1       7.311   8.655   3.923  0.00  0.00    -0.268 OA
ATOM      5  O   UNL     1      10.847   9.792   7.382  0.00  0.00    -0.270 OA
ATOM      7  N   UNL     1      11.160   7.540   6.837  0.00  0.00    -0.297 N 
ATOM      8  N   UNL     1       9.000   7.164   4.567  0.00  0.00    -0.311 N 
ATOM     10  C   UNL     1       9.089   6.177   6.933  0.00  0.00    +0.027 C 
ATOM     11  C   UNL     1      10.839   5.615   5.298  0.00  0.00    +0.054 C 
ATOM     12  C   UNL     1       9.817   5.020   6.265  0.00  0.00    +0.018 C 
ATOM     13  C   UNL     1      10.080   7.070   7.701  0.00  0.00    +0.113 C 
ATOM     14  C   UNL     1       8.329   6.956   5.858  0.00  0.00    +0.130 C 
ATOM     15  C   UNL     1      11.848   6.482   6.082  0.00  0.00    +0.117 C 
ATOM     16  C   UNL     1      10.164   6.453   4.210  0.00  0.00    +0.034 A 
ATOM     17  C   UNL     1      10.661   6.557   2.950  0.00  0.00    +0.002 A 
ATOM     18  C   UNL     1       8.336   8.022   3.670  0.00  0.00    +0.252 A 
ATOM     19  C   UNL     1      11.423   8.910   6.749  0.00  0.00    +0.247 C 
ATOM     20  C   UNL     1      10.006   7.436   2.000  0.00  0.00    +0.015 A 
ATOM     21  C   UNL     1       8.923   8.146   2.317  0.00  0.00    +0.071 A 
ENDROOT
BRANCH  19  23
ATOM      9  N   UNL     1      14.431  10.211   4.030  0.00  0.00    -0.263 NA
ATOM     23  C   UNL     1      12.460   9.359   5.812  0.00  0.00    +0.040 A 
ATOM     26  C   UNL     1      13.771   9.503   6.245  0.00  0.00    +0.033 A 
ATOM     27  C   UNL     1      12.129   9.637   4.493  0.00  0.00    +0.033 A 
ATOM     31  C   UNL     1      14.712   9.930   5.322  0.00  0.00    +0.111 A 
ATOM     32  C   UNL     1      13.143  10.057   3.648  0.00  0.00    +0.111 A 
ENDBRANCH  19  23
BRANCH  17  22
ATOM     22  C   UNL     1      11.865   5.811   2.523  0.00  0.00    -0.016 A 
ATOM     24  C   UNL     1      11.749   4.483   2.122  0.00  0.00    +0.012 A 
ATOM     25  C   UNL     1      13.106   6.442   2.526  0.00  0.00    +0.012 A 
ATOM     28  C   UNL     1      12.885   3.780   1.720  0.00  0.00    +0.046 A 
ATOM     29  C   UNL     1      14.241   5.738   2.123  0.00  0.00    +0.046 A 
ATOM     30  C   UNL     1      14.131   4.407   1.720  0.00  0.00    +0.130 A 
BRANCH  30   6
ATOM      6  O   UNL     1      15.238   3.720   1.328  0.00  0.00    -0.406 OA
BRANCH   6  33
ATOM      1  F   UNL     1      16.887   3.239  -0.137  0.00  0.00    -0.133 F 
ATOM      2  F   UNL     1      14.984   3.962  -0.932  0.00  0.00    -0.133 F 
ATOM      3  F   UNL     1      16.340   5.336   0.143  0.00  0.00    -0.133 F 
ATOM     33  C   UNL     1      15.853   4.079   0.096  0.00  0.00    +0.575 C 
ENDBRANCH   6  33
ENDBRANCH  30   6
ENDBRANCH  17  22
TORSDOF 4
ENDMDL
MODEL 2
REMARK VINA RESULT:      -6.8     27.056     30.285
REMARK  Name = 7144186
REMARK  4 active torsions:
REMARK  status: ('A' for Active; 'I' for Inactive)
REMARK    1  A    between atoms: O_6  and  C_30
REMARK    2  A    between atoms: O_6  and  C_33
REMARK    3  A    between atoms: C_17  and  C_22
REMARK    4  A    between atoms: C_19  and  C_23
REMARK                            x       y       z     vdW  Elec       q    Type
REMARK                         _______ _______ _______ _____ _____    ______ ____
ROOT
ATOM      4  O   UNL     1     -10.722  12.931  18.207  0.00  0.00    -0.268 OA
ATOM      5  O   UNL     1     -14.123  11.267  14.828  0.00  0.00    -0.270 OA
ATOM      7  N   UNL     1     -13.069   9.366  15.690  0.00  0.00    -0.297 N 
ATOM      8  N   UNL     1     -11.184  10.659  17.867  0.00  0.00    -0.311 N 
ATOM     10  C   UNL     1     -10.591   9.484  15.665  0.00  0.00    +0.027 C 
ATOM     11  C   UNL     1     -11.730   8.241  17.456  0.00  0.00    +0.054 C 
ATOM     12  C   UNL     1     -10.520   8.230  16.523  0.00  0.00    +0.018 C 
ATOM     13  C   UNL     1     -11.889   9.504  14.840  0.00  0.00    +0.113 C 
ATOM     14  C   UNL     1     -10.474  10.705  16.581  0.00  0.00    +0.130 C 
ATOM     15  C   UNL     1     -13.027   8.228  16.619  0.00  0.00    +0.117 C 
ATOM     16  C   UNL     1     -11.717   9.460  18.381  0.00  0.00    +0.034 A 
ATOM     17  C   UNL     1     -12.225   9.430  19.641  0.00  0.00    +0.002 A 
ATOM     18  C   UNL     1     -11.185  11.860  18.600  0.00  0.00    +0.252 A 
ATOM     19  C   UNL     1     -14.091  10.316  15.606  0.00  0.00    +0.247 C 
ATOM     20  C   UNL     1     -12.247  10.650  20.425  0.00  0.00    +0.015 A 
ATOM     21  C   UNL     1     -11.781  11.807  19.955  0.00  0.00    +0.071 A 
ENDROOT
BRANCH  19  23
ATOM      9  N   UNL     1     -17.382   9.972  18.286  0.00  0.00    -0.263 NA
ATOM     23  C   UNL     1     -15.226  10.198  16.530  0.00  0.00    +0.040 A 
ATOM     26  C   UNL     1     -16.357   9.487  16.151  0.00  0.00    +0.033 A 
ATOM     27  C   UNL     1     -15.166  10.795  17.781  0.00  0.00    +0.033 A 
ATOM     31  C   UNL     1     -17.401   9.405  17.058  0.00  0.00    +0.111 A 
ATOM     32  C   UNL     1     -16.263  10.654  18.616  0.00  0.00    +0.111 A 
ENDBRANCH  19  23
BRANCH  17  22
ATOM     22  C   UNL     1     -12.772   8.189  20.231  0.00  0.00    -0.016 A 
ATOM     24  C   UNL     1     -11.913   7.269  20.825  0.00  0.00    +0.012 A 
ATOM     25  C   UNL     1     -14.143   7.951  20.189  0.00  0.00    +0.012 A 
ATOM     28  C   UNL     1     -12.430   6.098  21.380  0.00  0.00    +0.046 A 
ATOM     29  C   UNL     1     -14.659   6.780  20.746  0.00  0.00    +0.046 A 
ATOM     30  C   UNL     1     -13.802   5.854  21.342  0.00  0.00    +0.130 A 
BRANCH  30   6
ATOM      6  O   UNL     1     -14.306   4.712  21.884  0.00  0.00    -0.406 OA
BRANCH   6  33
ATOM      1  F   UNL     1     -13.399   4.573  23.947  0.00  0.00    -0.133 F 
ATOM      2  F   UNL     1     -15.162   5.837  23.683  0.00  0.00    -0.133 F 
ATOM      3  F   UNL     1     -15.345   3.635  23.614  0.00  0.00    -0.133 F 
ATOM     33  C   UNL     1     -14.571   4.690  23.282  0.00  0.00    +0.575 C 
ENDBRANCH   6  33
ENDBRANCH  30   6
ENDBRANCH  17  22
TORSDOF 4
ENDMDL
MODEL 3
REMARK VINA RESULT:      -6.6      2.585      4.381
REMARK  Name = 7144186
REMARK  4 active torsions:
REMARK  status: ('A' for Active; 'I' for Inactive)
REMARK    1  A    between atoms: O_6  and  C_30
REMARK    2  A    between atoms: O_6  and  C_33
REMARK    3  A    between atoms: C_17  and  C_22
REMARK    4  A    between atoms: C_19  and  C_23
REMARK                            x       y       z     vdW  Elec       q    Type
REMARK                         _______ _______ _______ _____ _____    ______ ____
ROOT
ATOM      4  O   UNL     1      10.916   5.828   8.825  0.00  0.00    -0.268 OA
ATOM      5  O   UNL     1      10.684  10.526   6.922  0.00  0.00    -0.270 OA
ATOM      7  N   UNL     1      11.931   9.261   5.401  0.00  0.00    -0.297 N 
ATOM      8  N   UNL     1      11.749   6.395   6.710  0.00  0.00    -0.311 N 
ATOM     10  C   UNL     1      13.768   7.954   6.437  0.00  0.00    +0.027 C 
ATOM     11  C   UNL     1      12.618   7.069   4.450  0.00  0.00    +0.054 C 
ATOM     12  C   UNL     1      13.981   7.210   5.127  0.00  0.00    +0.018 C 
ATOM     13  C   UNL     1      13.166   9.346   6.178  0.00  0.00    +0.113 C 
ATOM     14  C   UNL     1      12.874   7.101   7.340  0.00  0.00    +0.130 C 
ATOM     15  C   UNL     1      12.036   8.471   4.165  0.00  0.00    +0.117 C 
ATOM     16  C   UNL     1      11.641   6.264   5.311  0.00  0.00    +0.034 A 
ATOM     17  C   UNL     1      10.675   5.472   4.777  0.00  0.00    +0.002 A 
ATOM     18  C   UNL     1      10.861   5.759   7.598  0.00  0.00    +0.252 A 
ATOM     19  C   UNL     1      10.769   9.866   5.888  0.00  0.00    +0.247 C 
ATOM     20  C   UNL     1       9.739   4.804   5.661  0.00  0.00    +0.015 A 
ATOM     21  C   UNL     1       9.794   4.934   6.987  0.00  0.00    +0.071 A 
ENDROOT
BRANCH  19  23
ATOM      9  N   UNL     1       7.163   9.369   3.678  0.00  0.00    -0.263 NA
ATOM     23  C   UNL     1       9.526   9.695   5.127  0.00  0.00    +0.040 A 
ATOM     26  C   UNL     1       9.141  10.657   4.203  0.00  0.00    +0.033 A 
ATOM     27  C   UNL     1       8.738   8.571   5.330  0.00  0.00    +0.033 A 
ATOM     31  C   UNL     1       7.959  10.450   3.510  0.00  0.00    +0.111 A 
ATOM     32  C   UNL     1       7.574   8.456   4.586  0.00  0.00    +0.111 A 
ENDBRANCH  19  23
BRANCH  17  22
ATOM     22  C   UNL     1      10.540   5.285   3.316  0.00  0.00    -0.016 A 
ATOM     24  C   UNL     1       9.920   6.266   2.549  0.00  0.00    +0.012 A 
ATOM     25  C   UNL     1      11.035   4.129   2.719  0.00  0.00    +0.012 A 
ATOM     28  C   UNL     1       9.792   6.090   1.171  0.00  0.00    +0.046 A 
ATOM     29  C   UNL     1      10.907   3.954   1.341  0.00  0.00    +0.046 A 
ATOM     30  C   UNL     1      10.286   4.934   0.567  0.00  0.00    +0.130 A 
BRANCH  30   6
ATOM      6  O   UNL     1      10.161   4.762  -0.778  0.00  0.00    -0.406 OA
BRANCH   6  33
ATOM      1  F   UNL     1      11.852   3.769  -1.898  0.00  0.00    -0.133 F 
ATOM      2  F   UNL     1      10.978   5.581  -2.751  0.00  0.00    -0.133 F 
ATOM      3  F   UNL     1      12.242   5.696  -0.943  0.00  0.00    -0.133 F 
ATOM     33  C   UNL     1      11.309   4.971  -1.593  0.00  0.00    +0.575 C 
ENDBRANCH   6  33
ENDBRANCH  30   6
ENDBRANCH  17  22
TORSDOF 4
ENDMDL
MODEL 4
REMARK VINA RESULT:      -6.6     25.441     28.256
REMARK  Name = 7144186
REMARK  4 active torsions:
REMARK  status: ('A' for Active; 'I' for Inactive)
REMARK    1  A    between atoms: O_6  and  C_30
REMARK    2  A    between atoms: O_6  and  C_33
REMARK    3  A    between atoms: C_17  and  C_22
REMARK    4  A    between atoms: C_19  and  C_23
REMARK                            x       y       z     vdW  Elec       q    Type
REMARK                         _______ _______ _______ _____ _____    ______ ____
ROOT
ATOM      4  O   UNL     1      -7.765 -14.846  17.477  0.00  0.00    -0.268 OA
ATOM      5  O   UNL     1      -9.535 -10.283  18.819  0.00  0.00    -0.270 OA
ATOM      7  N   UNL     1      -7.392  -9.929  17.954  0.00  0.00    -0.297 N 
ATOM      8  N   UNL     1      -6.625 -12.848  17.033  0.00  0.00    -0.311 N 
ATOM     10  C   UNL     1      -5.652 -11.410  18.922  0.00  0.00    +0.027 C 
ATOM     11  C   UNL     1      -5.455 -10.669  16.584  0.00  0.00    +0.054 C 
ATOM     12  C   UNL     1      -4.665 -10.946  17.862  0.00  0.00    +0.018 C 
ATOM     13  C   UNL     1      -6.713 -10.327  19.186  0.00  0.00    +0.113 C 
ATOM     14  C   UNL     1      -6.279 -12.726  18.457  0.00  0.00    +0.130 C 
ATOM     15  C   UNL     1      -6.495  -9.559  16.850  0.00  0.00    +0.117 C 
ATOM     16  C   UNL     1      -6.157 -11.930  16.071  0.00  0.00    +0.034 A 
ATOM     17  C   UNL     1      -6.367 -12.166  14.750  0.00  0.00    +0.002 A 
ATOM     18  C   UNL     1      -7.345 -14.005  16.683  0.00  0.00    +0.252 A 
ATOM     19  C   UNL     1      -8.788  -9.974  17.894  0.00  0.00    +0.247 C 
ATOM     20  C   UNL     1      -7.110 -13.346  14.352  0.00  0.00    +0.015 A 
ATOM     21  C   UNL     1      -7.594 -14.217  15.238  0.00  0.00    +0.071 A 
ENDROOT
BRANCH  19  23
ATOM      9  N   UNL     1     -10.675  -9.024  14.197  0.00  0.00    -0.263 NA
ATOM     23  C   UNL     1      -9.438  -9.646  16.619  0.00  0.00    +0.040 A 
ATOM     26  C   UNL     1      -9.655 -10.641  15.676  0.00  0.00    +0.033 A 
ATOM     27  C   UNL     1      -9.836  -8.343  16.360  0.00  0.00    +0.033 A 
ATOM     31  C   UNL     1     -10.272 -10.281  14.489  0.00  0.00    +0.111 A 
ATOM     32  C   UNL     1     -10.446  -8.085  15.142  0.00  0.00    +0.111 A 
ENDBRANCH  19  23
BRANCH  17  22
ATOM     22  C   UNL     1      -5.873 -11.243  13.705  0.00  0.00    -0.016 A 
ATOM     24  C   UNL     1      -6.761 -10.381  13.070  0.00  0.00    +0.012 A 
ATOM     25  C   UNL     1      -4.523 -11.243  13.366  0.00  0.00    +0.012 A 
ATOM     28  C   UNL     1      -6.295  -9.511  12.084  0.00  0.00    +0.046 A 
ATOM     29  C   UNL     1      -4.057 -10.372  12.381  0.00  0.00    +0.046 A 
ATOM     30  C   UNL     1      -4.943  -9.506  11.740  0.00  0.00    +0.130 A 
BRANCH  30   6
ATOM      6  O   UNL     1      -4.489  -8.657  10.778  0.00  0.00    -0.406 OA
BRANCH   6  33
ATOM      1  F   UNL     1      -3.843  -8.465   8.623  0.00  0.00    -0.133 F 
ATOM      2  F   UNL     1      -2.349  -9.086  10.092  0.00  0.00    -0.133 F 
ATOM      3  F   UNL     1      -3.963 -10.470   9.487  0.00  0.00    -0.133 F 
ATOM     33  C   UNL     1      -3.653  -9.184   9.754  0.00  0.00    +0.575 C 
ENDBRANCH   6  33
ENDBRANCH  30   6
ENDBRANCH  17  22
TORSDOF 4
ENDMDL
MODEL 5
REMARK VINA RESULT:      -6.6     25.773     28.650
REMARK  Name = 7144186
REMARK  4 active torsions:
REMARK  status: ('A' for Active; 'I' for Inactive)
REMARK    1  A    between atoms: O_6  and  C_30
REMARK    2  A    between atoms: O_6  and  C_33
REMARK    3  A    between atoms: C_17  and  C_22
REMARK    4  A    between atoms: C_19  and  C_23
REMARK                            x       y       z     vdW  Elec       q    Type
REMARK                         _______ _______ _______ _____ _____    ______ ____
ROOT
ATOM      4  O   UNL     1      -5.958 -11.439  20.895  0.00  0.00    -0.268 OA
ATOM      5  O   UNL     1      -9.257 -13.730  17.794  0.00  0.00    -0.270 OA
ATOM      7  N   UNL     1      -8.340 -11.954  16.582  0.00  0.00    -0.297 N 
ATOM      8  N   UNL     1      -6.220 -10.849  18.643  0.00  0.00    -0.311 N 
ATOM     10  C   UNL     1      -8.386  -9.781  17.779  0.00  0.00    +0.027 C 
ATOM     11  C   UNL     1      -6.547 -10.270  16.219  0.00  0.00    +0.054 C 
ATOM     12  C   UNL     1      -7.488  -9.172  16.713  0.00  0.00    +0.018 C 
ATOM     13  C   UNL     1      -9.203 -10.948  17.198  0.00  0.00    +0.113 C 
ATOM     14  C   UNL     1      -7.512 -10.222  18.955  0.00  0.00    +0.130 C 
ATOM     15  C   UNL     1      -7.375 -11.422  15.609  0.00  0.00    +0.117 C 
ATOM     16  C   UNL     1      -5.663 -10.804  17.349  0.00  0.00    +0.034 A 
ATOM     17  C   UNL     1      -4.400 -11.257  17.139  0.00  0.00    +0.002 A 
ATOM     18  C   UNL     1      -5.526 -11.386  19.744  0.00  0.00    +0.252 A 
ATOM     19  C   UNL     1      -8.449 -13.289  16.980  0.00  0.00    +0.247 C 
ATOM     20  C   UNL     1      -3.656 -11.821  18.249  0.00  0.00    +0.015 A 
ATOM     21  C   UNL     1      -4.167 -11.908  19.477  0.00  0.00    +0.071 A 
ENDROOT
BRANCH  19  23
ATOM      9  N   UNL     1      -5.737 -16.114  15.308  0.00  0.00    -0.263 NA
ATOM     23  C   UNL     1      -7.514 -14.263  16.404  0.00  0.00    +0.040 A 
ATOM     26  C   UNL     1      -7.896 -15.026  15.309  0.00  0.00    +0.033 A 
ATOM     27  C   UNL     1      -6.249 -14.419  16.954  0.00  0.00    +0.033 A 
ATOM     31  C   UNL     1      -6.978 -15.931  14.802  0.00  0.00    +0.111 A 
ATOM     32  C   UNL     1      -5.404 -15.351  16.374  0.00  0.00    +0.111 A 
ENDBRANCH  19  23
BRANCH  17  22
ATOM     22  C   UNL     1      -3.766 -11.206  15.803  0.00  0.00    -0.016 A 
ATOM     24  C   UNL     1      -4.241 -12.023  14.781  0.00  0.00    +0.012 A 
ATOM     25  C   UNL     1      -2.699 -10.342  15.577  0.00  0.00    +0.012 A 
ATOM     28  C   UNL     1      -3.644 -11.976  13.522  0.00  0.00    +0.046 A 
ATOM     29  C   UNL     1      -2.102 -10.294  14.317  0.00  0.00    +0.046 A 
ATOM     30  C   UNL     1      -2.574 -11.111  13.289  0.00  0.00    +0.130 A 
BRANCH  30   6
ATOM      6  O   UNL     1      -1.991 -11.065  12.061  0.00  0.00    -0.406 OA
BRANCH   6  33
ATOM      1  F   UNL     1      -3.604  -9.547  11.626  0.00  0.00    -0.133 F 
ATOM      2  F   UNL     1      -1.636  -9.240  10.728  0.00  0.00    -0.133 F 
ATOM      3  F   UNL     1      -2.957 -10.854   9.999  0.00  0.00    -0.133 F 
ATOM     33  C   UNL     1      -2.536 -10.180  11.089  0.00  0.00    +0.575 C 
ENDBRANCH   6  33
ENDBRANCH  30   6
ENDBRANCH  17  22
TORSDOF 4
ENDMDL
MODEL 6
REMARK VINA RESULT:      -6.4      1.701      2.055
REMARK  Name = 7144186
REMARK  4 active torsions:
REMARK  status: ('A' for Active; 'I' for Inactive)
REMARK    1  A    between atoms: O_6  and  C_30
REMARK    2  A    between atoms: O_6  and  C_33
REMARK    3  A    between atoms: C_17  and  C_22
REMARK    4  A    between atoms: C_19  and  C_23
REMARK                            x       y       z     vdW  Elec       q    Type
REMARK                         _______ _______ _______ _____ _____    ______ ____
ROOT
ATOM      4  O   UNL     1       8.405  10.999   4.360  0.00  0.00    -0.268 OA
ATOM      5  O   UNL     1      11.714   9.263   7.793  0.00  0.00    -0.270 OA
ATOM      7  N   UNL     1      10.773   7.380   6.775  0.00  0.00    -0.297 N 
ATOM      8  N   UNL     1       8.938   8.730   4.590  0.00  0.00    -0.311 N 
ATOM     10  C   UNL     1       8.293   7.406   6.691  0.00  0.00    +0.027 C 
ATOM     11  C   UNL     1       9.559   6.312   4.887  0.00  0.00    +0.054 C 
ATOM     12  C   UNL     1       8.310   6.203   5.761  0.00  0.00    +0.018 C 
ATOM     13  C   UNL     1       9.552   7.424   7.576  0.00  0.00    +0.113 C 
ATOM     14  C   UNL     1       8.171   8.674   5.843  0.00  0.00    +0.130 C 
ATOM     15  C   UNL     1      10.817   6.297   5.782  0.00  0.00    +0.117 C 
ATOM     16  C   UNL     1       9.540   7.583   4.034  0.00  0.00    +0.034 A 
ATOM     17  C   UNL     1      10.104   7.646   2.800  0.00  0.00    +0.002 A 
ATOM     18  C   UNL     1       8.926   9.971   3.928  0.00  0.00    +0.252 A 
ATOM     19  C   UNL     1      11.753   8.359   6.961  0.00  0.00    +0.247 C 
ATOM     20  C   UNL     1      10.114   8.910   2.089  0.00  0.00    +0.015 A 
ATOM     21  C   UNL     1       9.583  10.020   2.602  0.00  0.00    +0.071 A 
ENDROOT
BRANCH  19  23
ATOM      9  N   UNL     1      15.171   8.292   4.423  0.00  0.00    -0.263 NA
ATOM     23  C   UNL     1      12.931   8.336   6.087  0.00  0.00    +0.040 A 
ATOM     26  C   UNL     1      14.076   7.656   6.482  0.00  0.00    +0.033 A 
ATOM     27  C   UNL     1      12.900   8.993   4.865  0.00  0.00    +0.033 A 
ATOM     31  C   UNL     1      15.161   7.664   5.621  0.00  0.00    +0.111 A 
ATOM     32  C   UNL     1      14.038   8.942   4.075  0.00  0.00    +0.111 A 
ENDBRANCH  19  23
BRANCH  17  22
ATOM     22  C   UNL     1      10.725   6.462   2.166  0.00  0.00    -0.016 A 
ATOM     24  C   UNL     1       9.926   5.532   1.507  0.00  0.00    +0.012 A 
ATOM     25  C   UNL     1      12.104   6.287   2.232  0.00  0.00    +0.012 A 
ATOM     28  C   UNL     1      10.512   4.416   0.910  0.00  0.00    +0.046 A 
ATOM     29  C   UNL     1      12.689   5.170   1.634  0.00  0.00    +0.046 A 
ATOM     30  C   UNL     1      11.893   4.235   0.973  0.00  0.00    +0.130 A 
BRANCH  30   6
ATOM      6  O   UNL     1      12.464   3.146   0.390  0.00  0.00    -0.406 OA
BRANCH   6  33
ATOM      1  F   UNL     1      14.132   3.359  -1.117  0.00  0.00    -0.133 F 
ATOM      2  F   UNL     1      12.436   2.082  -1.635  0.00  0.00    -0.133 F 
ATOM      3  F   UNL     1      12.205   4.280  -1.579  0.00  0.00    -0.133 F 
ATOM     33  C   UNL     1      12.793   3.216  -0.994  0.00  0.00    +0.575 C 
ENDBRANCH   6  33
ENDBRANCH  30   6
ENDBRANCH  17  22
TORSDOF 4
ENDMDL
MODEL 7
REMARK VINA RESULT:      -6.3     24.234     26.470
REMARK  Name = 7144186
REMARK  4 active torsions:
REMARK  status: ('A' for Active; 'I' for Inactive)
REMARK    1  A    between atoms: O_6  and  C_30
REMARK    2  A    between atoms: O_6  and  C_33
REMARK    3  A    between atoms: C_17  and  C_22
REMARK    4  A    between atoms: C_19  and  C_23
REMARK                            x       y       z     vdW  Elec       q    Type
REMARK                         _______ _______ _______ _____ _____    ______ ____
ROOT
ATOM      4  O   UNL     1      19.580  -4.987  21.471  0.00  0.00    -0.268 OA
ATOM      5  O   UNL     1      20.447  -1.078  24.589  0.00  0.00    -0.270 OA
ATOM      7  N   UNL     1      18.276  -1.816  25.048  0.00  0.00    -0.297 N 
ATOM      8  N   UNL     1      18.080  -4.327  23.145  0.00  0.00    -0.311 N 
ATOM     10  C   UNL     1      16.850  -2.078  23.035  0.00  0.00    +0.027 C 
ATOM     11  C   UNL     1      16.517  -3.570  24.963  0.00  0.00    +0.054 C 
ATOM     12  C   UNL     1      15.793  -2.782  23.873  0.00  0.00    +0.018 C 
ATOM     13  C   UNL     1      17.685  -1.123  23.905  0.00  0.00    +0.113 C 
ATOM     14  C   UNL     1      17.716  -3.142  22.356  0.00  0.00    +0.130 C 
ATOM     15  C   UNL     1      17.326  -2.599  25.850  0.00  0.00    +0.117 C 
ATOM     16  C   UNL     1      17.446  -4.631  24.367  0.00  0.00    +0.034 A 
ATOM     17  C   UNL     1      17.699  -5.814  24.985  0.00  0.00    +0.002 A 
ATOM     18  C   UNL     1      19.008  -5.195  22.541  0.00  0.00    +0.252 A 
ATOM     19  C   UNL     1      19.655  -1.734  25.262  0.00  0.00    +0.247 C 
ATOM     20  C   UNL     1      18.654  -6.732  24.394  0.00  0.00    +0.015 A 
ATOM     21  C   UNL     1      19.294  -6.459  23.256  0.00  0.00    +0.071 A 
ENDROOT
BRANCH  19  23
ATOM      9  N   UNL     1      21.331  -3.973  28.473  0.00  0.00    -0.263 NA
ATOM     23  C   UNL     1      20.232  -2.506  26.369  0.00  0.00    +0.040 A 
ATOM     26  C   UNL     1      20.634  -3.819  26.163  0.00  0.00    +0.033 A 
ATOM     27  C   UNL     1      20.376  -1.922  27.619  0.00  0.00    +0.033 A 
ATOM     31  C   UNL     1      21.173  -4.505  27.240  0.00  0.00    +0.111 A 
ATOM     32  C   UNL     1      20.927  -2.692  28.632  0.00  0.00    +0.111 A 
ENDBRANCH  19  23
BRANCH  17  22
ATOM     22  C   UNL     1      17.039  -6.186  26.256  0.00  0.00    -0.016 A 
ATOM     24  C   UNL     1      15.794  -6.808  26.231  0.00  0.00    +0.012 A 
ATOM     25  C   UNL     1      17.668  -5.913  27.467  0.00  0.00    +0.012 A 
ATOM     28  C   UNL     1      15.172  -7.158  27.429  0.00  0.00    +0.046 A 
ATOM     29  C   UNL     1      17.046  -6.265  28.664  0.00  0.00    +0.046 A 
ATOM     30  C   UNL     1      15.797  -6.887  28.646  0.00  0.00    +0.130 A 
BRANCH  30   6
ATOM      6  O   UNL     1      15.190  -7.229  29.815  0.00  0.00    -0.406 OA
BRANCH   6  33
ATOM      1  F   UNL     1      14.155  -6.542  31.700  0.00  0.00    -0.133 F 
ATOM      2  F   UNL     1      14.607  -5.046  30.173  0.00  0.00    -0.133 F 
ATOM      3  F   UNL     1      13.010  -6.537  29.839  0.00  0.00    -0.133 F 
ATOM     33  C   UNL     1      14.235  -6.330  30.366  0.00  0.00    +0.575 C 
ENDBRANCH   6  33
ENDBRANCH  30   6
ENDBRANCH  17  22
TORSDOF 4
ENDMDL
MODEL 8
REMARK VINA RESULT:      -6.1     27.379     30.662
REMARK  Name = 7144186
REMARK  4 active torsions:
REMARK  status: ('A' for Active; 'I' for Inactive)
REMARK    1  A    between atoms: O_6  and  C_30
REMARK    2  A    between atoms: O_6  and  C_33
REMARK    3  A    between atoms: C_17  and  C_22
REMARK    4  A    between atoms: C_19  and  C_23
REMARK                            x       y       z     vdW  Elec       q    Type
REMARK                         _______ _______ _______ _____ _____    ______ ____
ROOT
ATOM      4  O   UNL     1     -12.907  13.318  19.074  0.00  0.00    -0.268 OA
ATOM      5  O   UNL     1     -12.426  10.399  14.951  0.00  0.00    -0.270 OA
ATOM      7  N   UNL     1     -11.654   9.124  16.753  0.00  0.00    -0.297 N 
ATOM      8  N   UNL     1     -12.244  11.073  19.165  0.00  0.00    -0.311 N 
ATOM     10  C   UNL     1     -10.003  10.295  18.188  0.00  0.00    +0.027 C 
ATOM     11  C   UNL     1     -11.543   8.659  19.192  0.00  0.00    +0.054 C 
ATOM     12  C   UNL     1     -10.107   9.182  19.219  0.00  0.00    +0.018 C 
ATOM     13  C   UNL     1     -10.342   9.766  16.783  0.00  0.00    +0.113 C 
ATOM     14  C   UNL     1     -10.932  11.435  18.611  0.00  0.00    +0.130 C 
ATOM     15  C   UNL     1     -11.862   8.102  17.788  0.00  0.00    +0.117 C 
ATOM     16  C   UNL     1     -12.547   9.754  19.561  0.00  0.00    +0.034 A 
ATOM     17  C   UNL     1     -13.711   9.493  20.211  0.00  0.00    +0.002 A 
ATOM     18  C   UNL     1     -13.125  12.147  19.386  0.00  0.00    +0.252 A 
ATOM     19  C   UNL     1     -12.603   9.544  15.816  0.00  0.00    +0.247 C 
ATOM     20  C   UNL     1     -14.646  10.575  20.452  0.00  0.00    +0.015 A 
ATOM     21  C   UNL     1     -14.403  11.826  20.062  0.00  0.00    +0.071 A 
ENDROOT
BRANCH  19  23
ATOM      9  N   UNL     1     -16.479   7.787  15.949  0.00  0.00    -0.263 NA
ATOM     23  C   UNL     1     -13.939   8.938  15.862  0.00  0.00    +0.040 A 
ATOM     26  C   UNL     1     -14.905   9.453  16.715  0.00  0.00    +0.033 A 
ATOM     27  C   UNL     1     -14.235   7.851  15.052  0.00  0.00    +0.033 A 
ATOM     31  C   UNL     1     -16.150   8.846  16.722  0.00  0.00    +0.111 A 
ATOM     32  C   UNL     1     -15.511   7.315  15.132  0.00  0.00    +0.111 A 
ENDBRANCH  19  23
BRANCH  17  22
ATOM     22  C   UNL     1     -14.059   8.129  20.667  0.00  0.00    -0.016 A 
ATOM     24  C   UNL     1     -15.207   7.511  20.180  0.00  0.00    +0.012 A 
ATOM     25  C   UNL     1     -13.236   7.473  21.577  0.00  0.00    +0.012 A 
ATOM     28  C   UNL     1     -15.536   6.225  20.610  0.00  0.00    +0.046 A 
ATOM     29  C   UNL     1     -13.565   6.187  22.006  0.00  0.00    +0.046 A 
ATOM     30  C   UNL     1     -14.715   5.563  21.522  0.00  0.00    +0.130 A 
BRANCH  30   6
ATOM      6  O   UNL     1     -15.036   4.308  21.941  0.00  0.00    -0.406 OA
BRANCH   6  33
ATOM      1  F   UNL     1     -14.681   4.064  24.157  0.00  0.00    -0.133 F 
ATOM      2  F   UNL     1     -16.412   5.234  23.517  0.00  0.00    -0.133 F 
ATOM      3  F   UNL     1     -16.395   3.037  23.271  0.00  0.00    -0.133 F 
ATOM     33  C   UNL     1     -15.649   4.160  23.217  0.00  0.00    +0.575 C 
ENDBRANCH   6  33
ENDBRANCH  30   6
ENDBRANCH  17  22
TORSDOF 4
ENDMDL
MODEL 9
REMARK VINA RESULT:      -6.1     14.459     17.566
REMARK  Name = 7144186
REMARK  4 active torsions:
REMARK  status: ('A' for Active; 'I' for Inactive)
REMARK    1  A    between atoms: O_6  and  C_30
REMARK    2  A    between atoms: O_6  and  C_33
REMARK    3  A    between atoms: C_17  and  C_22
REMARK    4  A    between atoms: C_19  and  C_23
REMARK                            x       y       z     vdW  Elec       q    Type
REMARK                         _______ _______ _______ _____ _____    ______ ____
ROOT
ATOM      4  O   UNL     1       0.310  11.470   6.551  0.00  0.00    -0.268 OA
ATOM      5  O   UNL     1      -2.550  14.417   3.569  0.00  0.00    -0.270 OA
ATOM      7  N   UNL     1      -2.747  12.244   2.729  0.00  0.00    -0.297 N 
ATOM      8  N   UNL     1      -1.062  10.624   4.851  0.00  0.00    -0.311 N 
ATOM     10  C   UNL     1      -0.577  11.094   2.376  0.00  0.00    +0.027 C 
ATOM     11  C   UNL     1      -2.558   9.782   3.015  0.00  0.00    +0.054 C 
ATOM     12  C   UNL     1      -1.309   9.783   2.134  0.00  0.00    +0.018 C 
ATOM     13  C   UNL     1      -1.474  12.290   2.013  0.00  0.00    +0.113 C 
ATOM     14  C   UNL     1      -0.128  11.136   3.838  0.00  0.00    +0.130 C 
ATOM     15  C   UNL     1      -3.467  10.966   2.621  0.00  0.00    +0.117 C 
ATOM     16  C   UNL     1      -2.200   9.869   4.500  0.00  0.00    +0.034 A 
ATOM     17  C   UNL     1      -2.948   9.282   5.470  0.00  0.00    +0.002 A 
ATOM     18  C   UNL     1      -0.679  10.833   6.188  0.00  0.00    +0.252 A 
ATOM     19  C   UNL     1      -3.154  13.350   3.481  0.00  0.00    +0.247 C 
ATOM     20  C   UNL     1      -2.586   9.479   6.861  0.00  0.00    +0.015 A 
ATOM     21  C   UNL     1      -1.536  10.215   7.226  0.00  0.00    +0.071 A 
ENDROOT
BRANCH  19  23
ATOM      9  N   UNL     1      -6.759  13.043   5.725  0.00  0.00    -0.263 NA
ATOM     23  C   UNL     1      -4.397  13.244   4.254  0.00  0.00    +0.040 A 
ATOM     26  C   UNL     1      -5.600  13.649   3.693  0.00  0.00    +0.033 A 
ATOM     27  C   UNL     1      -4.368  12.739   5.546  0.00  0.00    +0.033 A 
ATOM     31  C   UNL     1      -6.745  13.530   4.464  0.00  0.00    +0.111 A 
ATOM     32  C   UNL     1      -5.567  12.659   6.236  0.00  0.00    +0.111 A 
ENDBRANCH  19  23
BRANCH  17  22
ATOM     22  C   UNL     1      -4.136   8.460   5.148  0.00  0.00    -0.016 A 
ATOM     24  C   UNL     1      -5.351   9.081   4.872  0.00  0.00    +0.012 A 
ATOM     25  C   UNL     1      -4.029   7.073   5.122  0.00  0.00    +0.012 A 
ATOM     28  C   UNL     1      -6.470   8.306   4.569  0.00  0.00    +0.046 A 
ATOM     29  C   UNL     1      -5.149   6.299   4.818  0.00  0.00    +0.046 A 
ATOM     30  C   UNL     1      -6.370   6.915   4.541  0.00  0.00    +0.130 A 
BRANCH  30   6
ATOM      6  O   UNL     1      -7.462   6.159   4.245  0.00  0.00    -0.406 OA
BRANCH   6  33
ATOM      1  F   UNL     1      -9.562   5.894   5.029  0.00  0.00    -0.133 F 
ATOM      2  F   UNL     1      -8.089   4.348   5.494  0.00  0.00    -0.133 F 
ATOM      3  F   UNL     1      -7.975   6.329   6.468  0.00  0.00    -0.133 F 
ATOM     33  C   UNL     1      -8.259   5.677   5.321  0.00  0.00    +0.575 C 
ENDBRANCH   6  33
ENDBRANCH  30   6
ENDBRANCH  17  22
TORSDOF 4
ENDMDL
MODEL 10
REMARK VINA RESULT:      -6.0     24.560     27.396
REMARK  Name = 7144186
REMARK  4 active torsions:
REMARK  status: ('A' for Active; 'I' for Inactive)
REMARK    1  A    between atoms: O_6  and  C_30
REMARK    2  A    between atoms: O_6  and  C_33
REMARK    3  A    between atoms: C_17  and  C_22
REMARK    4  A    between atoms: C_19  and  C_23
REMARK                            x       y       z     vdW  Elec       q    Type
REMARK                         _______ _______ _______ _____ _____    ______ ____
ROOT
ATOM      4  O   UNL     1      -7.756 -13.566   8.681  0.00  0.00    -0.268 OA
ATOM      5  O   UNL     1      -4.272  -9.923   8.094  0.00  0.00    -0.270 OA
ATOM      7  N   UNL     1      -5.771  -9.145   9.710  0.00  0.00    -0.297 N 
ATOM      8  N   UNL     1      -7.678 -11.642  10.016  0.00  0.00    -0.311 N 
ATOM     10  C   UNL     1      -8.156  -9.316   9.046  0.00  0.00    +0.027 C 
ATOM     11  C   UNL     1      -7.534  -9.558  11.414  0.00  0.00    +0.054 C 
ATOM     12  C   UNL     1      -8.579  -8.971  10.466  0.00  0.00    +0.018 C 
ATOM     13  C   UNL     1      -6.772  -8.721   8.733  0.00  0.00    +0.113 C 
ATOM     14  C   UNL     1      -8.175 -10.838   8.890  0.00  0.00    +0.130 C 
ATOM     15  C   UNL     1      -6.155  -8.932  11.114  0.00  0.00    +0.117 C 
ATOM     16  C   UNL     1      -7.454 -11.082  11.290  0.00  0.00    +0.034 A 
ATOM     17  C   UNL     1      -7.146 -11.888  12.339  0.00  0.00    +0.002 A 
ATOM     18  C   UNL     1      -7.560 -13.022   9.767  0.00  0.00    +0.252 A 
ATOM     19  C   UNL     1      -4.590  -9.747   9.268  0.00  0.00    +0.247 C 
ATOM     20  C   UNL     1      -7.012 -13.315  12.120  0.00  0.00    +0.015 A 
ATOM     21  C   UNL     1      -7.185 -13.871  10.921  0.00  0.00    +0.071 A 
ENDROOT
BRANCH  19  23
ATOM      9  N   UNL     1      -1.837 -11.164  12.192  0.00  0.00    -0.263 NA
ATOM     23  C   UNL     1      -3.641 -10.236  10.275  0.00  0.00    +0.040 A 
ATOM     26  C   UNL     1      -2.593  -9.426  10.691  0.00  0.00    +0.033 A 
ATOM     27  C   UNL     1      -3.793 -11.506  10.812  0.00  0.00    +0.033 A 
ATOM     31  C   UNL     1      -1.724  -9.933  11.644  0.00  0.00    +0.111 A 
ATOM     32  C   UNL     1      -2.871 -11.921  11.760  0.00  0.00    +0.111 A 
ENDBRANCH  19  23
BRANCH  17  22
ATOM     22  C   UNL     1      -6.927 -11.347  13.699  0.00  0.00    -0.016 A 
ATOM     24  C   UNL     1      -8.000 -11.236  14.579  0.00  0.00    +0.012 A 
ATOM     25  C   UNL     1      -5.651 -10.954  14.088  0.00  0.00    +0.012 A 
ATOM     28  C   UNL     1      -7.793 -10.726  15.860  0.00  0.00    +0.046 A 
ATOM     29  C   UNL     1      -5.445 -10.444  15.370  0.00  0.00    +0.046 A 
ATOM     30  C   UNL     1      -6.516 -10.330  16.257  0.00  0.00    +0.130 A 
BRANCH  30   6
ATOM      6  O   UNL     1      -6.315  -9.832  17.507  0.00  0.00    -0.406 OA
BRANCH   6  33
ATOM      1  F   UNL     1      -6.043 -10.191  19.720  0.00  0.00    -0.133 F 
ATOM      2  F   UNL     1      -6.312 -11.929  18.422  0.00  0.00    -0.133 F 
ATOM      3  F   UNL     1      -4.424 -10.781  18.376  0.00  0.00    -0.133 F 
ATOM     33  C   UNL     1      -5.765 -10.696  18.496  0.00  0.00    +0.575 C 
ENDBRANCH   6  33
ENDBRANCH  30   6
ENDBRANCH  17  22
TORSDOF 4
ENDMDL
