REMARK  Name = 45783983
REMARK  13 active torsions:
REMARK  status: ('A' for Active; 'I' for Inactive)
REMARK    1  A    between atoms: N_3  and  C_13
REMARK    2  A    between atoms: N_7  and  C_33
REMARK    3  A    between atoms: N_7  and  C_34
REMARK    4  A    between atoms: N_7  and  C_35
REMARK    5  A    between atoms: C_8  and  C_12
REMARK    6  A    between atoms: C_9  and  C_13
REMARK    7  A    between atoms: C_11  and  C_16
REMARK    8  A    between atoms: C_12  and  C_22
REMARK    9  A    between atoms: C_12  and  C_23
REMARK   10  A    between atoms: C_15  and  C_24
REMARK   11  A    between atoms: C_16  and  C_25
REMARK   12  A    between atoms: C_19  and  C_26
REMARK   13  A    between atoms: C_27  and  C_28
REMARK                            x       y       z     vdW  Elec       q    Type
REMARK                         _______ _______ _______ _____ _____    ______ ____
ROOT
ATOM      8  C   UNL     1       1.954   1.236  -0.914  0.00  0.00    +0.000 C 
ATOM      9  C   UNL     1       3.149   1.700  -0.049  0.00  0.00    +0.029 C 
ATOM     10  C   UNL     1       0.644   1.335  -0.120  0.00  0.00    +0.012 C 
ATOM     11  C   UNL     1       0.365   2.752   0.425  0.00  0.00    +0.024 C 
ATOM     14  C   UNL     1       2.849   2.957   0.726  0.00  0.00    -0.023 C 
ATOM     15  C   UNL     1       1.615   3.450   0.938  0.00  0.00    -0.073 C 
ATOM     24  C   UNL     1       1.435   4.761   1.653  0.00  0.00    +0.039 C 
ENDROOT
BRANCH   8  12
ATOM     12  C   UNL     1       1.870   2.032  -2.224  0.00  0.00    -0.013 C 
ATOM     22  C   UNL     1       0.486   1.886  -2.847  0.00  0.00    +0.007 C 
ATOM     23  C   UNL     1       2.952   1.573  -3.196  0.00  0.00    +0.007 C 
ENDBRANCH   8  12
BRANCH   9  13
ATOM     13  C   UNL     1       3.603   0.605   0.923  0.00  0.00    +0.092 C 
BRANCH  13   3
ATOM      3  N   UNL     1       3.926  -0.626   0.201  0.00  0.00    -0.302 NA
ATOM     17  C   UNL     1       5.229  -0.503  -0.464  0.00  0.00    +0.085 C 
ATOM     18  C   UNL     1       3.909  -1.776   1.114  0.00  0.00    +0.085 C 
ATOM     19  C   UNL     1       5.461  -3.038  -0.470  0.00  0.00    +0.077 C 
ATOM     20  C   UNL     1       5.547  -1.752  -1.290  0.00  0.00    +0.028 C 
ATOM     21  C   UNL     1       4.183  -3.084   0.366  0.00  0.00    +0.028 C 
BRANCH  19  26
ATOM      2  O   UNL     1       7.563  -2.334   0.429  0.00  0.00    -0.276 OA
ATOM      5  N   UNL     1       6.713  -4.361   1.109  0.00  0.00    -0.329 N 
ATOM     26  C   UNL     1       6.680  -3.187   0.394  0.00  0.00    +0.214 C 
ATOM     36  H   UNL     1       6.000  -5.078   1.024  0.00  0.00    +0.145 HD
ATOM     37  H   UNL     1       7.489  -4.569   1.728  0.00  0.00    +0.145 HD
ENDBRANCH  19  26
ENDBRANCH  13   3
ENDBRANCH   9  13
BRANCH  11  16
ATOM     16  C   UNL     1      -0.744   2.660   1.481  0.00  0.00    +0.105 C 
BRANCH  16  25
ATOM      1  O   UNL     1      -2.592   1.169   0.922  0.00  0.00    -0.420 OA
ATOM      4  N   UNL     1      -2.870   3.275   0.221  0.00  0.00    -0.112 NA
ATOM      6  N   UNL     1      -3.982   2.547  -0.161  0.00  0.00    -0.107 NA
ATOM     25  C   UNL     1      -2.086   2.430   0.849  0.00  0.00    +0.218 A 
ATOM     27  C   UNL     1      -3.777   1.325   0.269  0.00  0.00    +0.248 A 
BRANCH  27  28
ATOM     28  C   UNL     1      -4.592   0.150   0.160  0.00  0.00    +0.039 A 
ATOM     29  C   UNL     1      -5.824   0.214  -0.493  0.00  0.00    +0.015 A 
ATOM     30  C   UNL     1      -4.154  -1.057   0.705  0.00  0.00    +0.015 A 
ATOM     31  C   UNL     1      -6.616  -0.929  -0.599  0.00  0.00    +0.024 A 
ATOM     32  C   UNL     1      -4.946  -2.199   0.598  0.00  0.00    +0.024 A 
ATOM     33  C   UNL     1      -6.178  -2.135  -0.054  0.00  0.00    +0.029 A 
BRANCH  33   7
ATOM      7  N   UNL     1      -6.980  -3.290  -0.161  0.00  0.00    -0.336 N 
ATOM     34  C   UNL     1      -8.262  -3.233  -0.836  0.00  0.00    +0.129 C 
ATOM     35  C   UNL     1      -6.531  -4.551   0.396  0.00  0.00    +0.129 C 
ENDBRANCH  33   7
ENDBRANCH  27  28
ENDBRANCH  16  25
ENDBRANCH  11  16
TORSDOF 8
