REMARK  Name = 75536679
REMARK  7 active torsions:
REMARK  status: ('A' for Active; 'I' for Inactive)
REMARK    1  A    between atoms: S_1  and  N_9
REMARK    2  A    between atoms: S_1  and  C_21
REMARK    3  A    between atoms: O_5  and  C_12
REMARK    4  A    between atoms: N_8  and  C_10
REMARK    5  A    between atoms: N_8  and  C_11
REMARK    6  A    between atoms: N_9  and  C_20
REMARK    7  A    between atoms: C_13  and  C_20
REMARK                            x       y       z     vdW  Elec       q    Type
REMARK                         _______ _______ _______ _____ _____    ______ ____
ROOT
ATOM      4  O   UNL     1       0.212   0.771  -1.344  0.00  0.00    -0.371 OA
ATOM     10  C   UNL     1      -1.669   0.260   0.014  0.00  0.00    +0.111 C 
ATOM     12  C   UNL     1      -0.402   0.046   0.821  0.00  0.00    +0.164 C 
ATOM     13  C   UNL     1       0.593   0.890   0.037  0.00  0.00    +0.164 C 
ATOM     16  C   UNL     1      -1.126   0.246  -1.406  0.00  0.00    +0.181 C 
ENDROOT
BRANCH  12   5
ATOM      5  O   UNL     1      -0.527   0.486   2.160  0.00  0.00    -0.388 OA
ATOM     28  H   UNL     1      -0.789   1.422   2.151  0.00  0.00    +0.210 HD
ENDBRANCH  12   5
BRANCH  10   8
ATOM      8  N   UNL     1      -2.684  -0.755   0.241  0.00  0.00    -0.306 NA
ATOM     27  H   UNL     1      -2.761  -0.960   1.237  0.00  0.00    +0.123 HD
BRANCH   8  11
ATOM      2  F   UNL     1      -8.092   0.267  -0.577  0.00  0.00    -0.206 F 
ATOM      3  F   UNL     1      -7.193  -0.807   1.087  0.00  0.00    -0.206 F 
ATOM     11  C   UNL     1      -3.979  -0.319  -0.279  0.00  0.00    +0.054 C 
ATOM     14  C   UNL     1      -4.863  -1.538  -0.563  0.00  0.00    +0.024 C 
ATOM     15  C   UNL     1      -4.648   0.632   0.721  0.00  0.00    +0.024 C 
ATOM     17  C   UNL     1      -6.252  -1.118  -1.042  0.00  0.00    +0.077 C 
ATOM     18  C   UNL     1      -6.036   1.054   0.243  0.00  0.00    +0.077 C 
ATOM     19  C   UNL     1      -6.907  -0.152  -0.069  0.00  0.00    +0.249 C 
ENDBRANCH   8  11
ENDBRANCH  10   8
BRANCH  13  20
ATOM     20  C   UNL     1       2.032   0.441   0.213  0.00  0.00    +0.140 C 
BRANCH  20   9
ATOM      9  N   UNL     1       2.923   1.311  -0.580  0.00  0.00    -0.187 NA
ATOM     29  H   UNL     1       2.730   1.347  -1.589  0.00  0.00    +0.148 HD
BRANCH   9   1
ATOM      1  S   UNL     1       4.511   1.615  -0.049  0.00  0.00    +0.058 S 
ATOM      6  O   UNL     1       4.474   2.119   1.311  0.00  0.00    -0.153 OA
ATOM      7  O   UNL     1       5.221   2.348  -1.079  0.00  0.00    -0.153 OA
BRANCH   1  21
ATOM     21  C   UNL     1       5.197  -0.013  -0.007  0.00  0.00    +0.105 A 
ATOM     22  C   UNL     1       5.828  -0.533  -1.138  0.00  0.00    +0.028 A 
ATOM     23  C   UNL     1       5.104  -0.780   1.154  0.00  0.00    +0.028 A 
ATOM     24  C   UNL     1       6.366  -1.819  -1.107  0.00  0.00    +0.002 A 
ATOM     25  C   UNL     1       5.642  -2.067   1.185  0.00  0.00    +0.002 A 
ATOM     26  C   UNL     1       6.273  -2.586   0.054  0.00  0.00    +0.000 A 
ENDBRANCH   1  21
ENDBRANCH   9   1
ENDBRANCH  20   9
ENDBRANCH  13  20
TORSDOF 7
