MODEL 1
REMARK VINA RESULT:      -6.8      0.000      0.000
REMARK  Name = 7127943
REMARK  11 active torsions:
REMARK  status: ('A' for Active; 'I' for Inactive)
REMARK    1  A    between atoms: N_6  and  C_12
REMARK    2  A    between atoms: N_7  and  C_18
REMARK    3  A    between atoms: N_8  and  C_29
REMARK    4  A    between atoms: N_9  and  C_25
REMARK    5  A    between atoms: C_13  and  C_16
REMARK    6  A    between atoms: C_17  and  C_19
REMARK    7  A    between atoms: C_18  and  C_21
REMARK    8  A    between atoms: C_18  and  C_24
REMARK    9  A    between atoms: C_21  and  C_22
REMARK   10  A    between atoms: C_25  and  C_32
REMARK   11  A    between atoms: C_25  and  C_33
REMARK                            x       y       z     vdW  Elec       q    Type
REMARK                         _______ _______ _______ _____ _____    ______ ____
ROOT
ATOM      2  O   UNL     1      -9.092  -8.891  17.836  0.00  0.00    -0.268 OA
ATOM      5  N   UNL     1      -9.187  -9.757  15.700  0.00  0.00    -0.283 N 
ATOM     12  C   UNL     1      -8.884 -10.890  13.629  0.00  0.00    +0.094 C 
ATOM     13  C   UNL     1      -8.390 -10.938  15.997  0.00  0.00    +0.164 C 
ATOM     14  C   UNL     1      -8.550 -11.846  14.779  0.00  0.00    +0.056 C 
ATOM     15  C   UNL     1      -9.656  -9.766  14.313  0.00  0.00    +0.131 C 
ATOM     17  C   UNL     1      -9.532  -8.830  16.687  0.00  0.00    +0.264 C 
ENDROOT
BRANCH  12   6
ATOM      3  O   UNL     1      -8.680  -9.990  10.895  0.00  0.00    -0.253 OA
ATOM      6  N   UNL     1      -7.705 -10.398  12.963  0.00  0.00    -0.295 N 
ATOM      9  N   UNL     1      -6.427  -9.555  11.243  0.00  0.00    -0.297 N 
ATOM     20  C   UNL     1      -7.695  -9.982  11.632  0.00  0.00    +0.300 C 
ATOM     38  H   UNL     1      -6.822 -10.416  13.465  0.00  0.00    +0.151 HD
ATOM     40  H   UNL     1      -5.694  -9.516  11.945  0.00  0.00    +0.150 HD
BRANCH   9  25
ATOM     25  C   UNL     1      -6.137  -9.073   9.914  0.00  0.00    +0.068 C 
ATOM     32  C   UNL     1      -5.796 -10.235   8.991  0.00  0.00    +0.027 C 
ATOM     33  C   UNL     1      -5.010  -8.048   9.952  0.00  0.00    +0.027 C 
ENDBRANCH   9  25
ENDBRANCH  12   6
BRANCH  17  19
ATOM      8  N   UNL     1     -11.785  -7.760  16.452  0.00  0.00    -0.346 N 
ATOM     19  C   UNL     1     -10.424  -7.751  16.283  0.00  0.00    +0.104 A 
ATOM     23  C   UNL     1     -10.083  -6.563  15.676  0.00  0.00    +0.032 A 
ATOM     27  C   UNL     1     -12.316  -6.596  15.964  0.00  0.00    +0.086 A 
ATOM     28  C   UNL     1     -11.279  -5.831  15.474  0.00  0.00    +0.020 A 
ATOM     29  C   UNL     1     -12.556  -8.825  17.053  0.00  0.00    +0.149 C 
ENDBRANCH  17  19
BRANCH  13  16
ATOM      1  O   UNL     1      -6.492  -9.538  15.628  0.00  0.00    -0.274 OA
ATOM      7  N   UNL     1      -6.275 -11.384  17.028  0.00  0.00    -0.302 N 
ATOM     16  C   UNL     1      -6.962 -10.524  16.188  0.00  0.00    +0.234 C 
ATOM     39  H   UNL     1      -6.773 -12.157  17.461  0.00  0.00    +0.150 HD
BRANCH   7  18
ATOM     18  C   UNL     1      -4.877 -11.220  17.357  0.00  0.00    +0.163 C 
BRANCH  18  24
ATOM      4  O   UNL     1      -5.595 -11.427  19.669  0.00  0.00    -0.274 OA
ATOM     11  N   UNL     1      -3.497 -12.170  19.099  0.00  0.00    -0.328 N 
ATOM     24  C   UNL     1      -4.717 -11.588  18.825  0.00  0.00    +0.231 C 
ATOM     42  H   UNL     1      -3.267 -12.476  20.039  0.00  0.00    +0.145 HD
ATOM     43  H   UNL     1      -2.790 -12.318  18.386  0.00  0.00    +0.145 HD
ENDBRANCH  18  24
BRANCH  18  21
ATOM     21  C   UNL     1      -3.969 -12.094  16.483  0.00  0.00    +0.069 C 
BRANCH  21  22
ATOM     10  N   UNL     1      -1.463  -9.921  14.897  0.00  0.00    -0.360 N 
ATOM     22  C   UNL     1      -3.065 -11.293  15.589  0.00  0.00    -0.020 A 
ATOM     26  C   UNL     1      -3.102 -11.246  14.167  0.00  0.00    +0.003 A 
ATOM     30  C   UNL     1      -2.046 -10.467  16.009  0.00  0.00    +0.087 A 
ATOM     31  C   UNL     1      -2.087 -10.379  13.759  0.00  0.00    +0.047 A 
ATOM     34  C   UNL     1      -3.905 -11.861  13.186  0.00  0.00    +0.010 A 
ATOM     35  C   UNL     1      -1.834 -10.094  12.412  0.00  0.00    +0.026 A 
ATOM     36  C   UNL     1      -3.663 -11.585  11.835  0.00  0.00    +0.001 A 
ATOM     37  C   UNL     1      -2.642 -10.715  11.457  0.00  0.00    +0.002 A 
ATOM     41  H   UNL     1      -0.676  -9.289  14.908  0.00  0.00    +0.165 HD
ENDBRANCH  21  22
ENDBRANCH  18  21
ENDBRANCH   7  18
ENDBRANCH  13  16
TORSDOF 8
ENDMDL
MODEL 2
REMARK VINA RESULT:      -6.5     24.699     28.584
REMARK  Name = 7127943
REMARK  11 active torsions:
REMARK  status: ('A' for Active; 'I' for Inactive)
REMARK    1  A    between atoms: N_6  and  C_12
REMARK    2  A    between atoms: N_7  and  C_18
REMARK    3  A    between atoms: N_8  and  C_29
REMARK    4  A    between atoms: N_9  and  C_25
REMARK    5  A    between atoms: C_13  and  C_16
REMARK    6  A    between atoms: C_17  and  C_19
REMARK    7  A    between atoms: C_18  and  C_21
REMARK    8  A    between atoms: C_18  and  C_24
REMARK    9  A    between atoms: C_21  and  C_22
REMARK   10  A    between atoms: C_25  and  C_32
REMARK   11  A    between atoms: C_25  and  C_33
REMARK                            x       y       z     vdW  Elec       q    Type
REMARK                         _______ _______ _______ _____ _____    ______ ____
ROOT
ATOM      2  O   UNL     1      15.793   7.007   4.218  0.00  0.00    -0.268 OA
ATOM      5  N   UNL     1      14.567   8.284   5.697  0.00  0.00    -0.283 N 
ATOM     12  C   UNL     1      12.929   9.332   7.069  0.00  0.00    +0.094 C 
ATOM     13  C   UNL     1      13.481   7.325   5.836  0.00  0.00    +0.164 C 
ATOM     14  C   UNL     1      12.654   7.825   7.019  0.00  0.00    +0.056 C 
ATOM     15  C   UNL     1      14.362   9.450   6.560  0.00  0.00    +0.131 C 
ATOM     17  C   UNL     1      15.697   8.014   4.920  0.00  0.00    +0.264 C 
ENDROOT
BRANCH  12   6
ATOM      3  O   UNL     1      10.252  10.148   7.772  0.00  0.00    -0.253 OA
ATOM      6  N   UNL     1      12.010  10.086   6.255  0.00  0.00    -0.295 N 
ATOM      9  N   UNL     1      10.055  11.165   5.696  0.00  0.00    -0.297 N 
ATOM     20  C   UNL     1      10.728  10.439   6.675  0.00  0.00    +0.300 C 
ATOM     38  H   UNL     1      12.283  10.317   5.305  0.00  0.00    +0.151 HD
ATOM     40  H   UNL     1      10.559  11.420   4.851  0.00  0.00    +0.150 HD
BRANCH   9  25
ATOM     25  C   UNL     1       8.708  11.655   5.871  0.00  0.00    +0.068 C 
ATOM     32  C   UNL     1       7.827  11.208   4.712  0.00  0.00    +0.027 C 
ATOM     33  C   UNL     1       8.706  13.172   6.013  0.00  0.00    +0.027 C 
ENDBRANCH   9  25
ENDBRANCH  12   6
BRANCH  17  19
ATOM      8  N   UNL     1      16.834  10.099   4.122  0.00  0.00    -0.346 N 
ATOM     19  C   UNL     1      16.761   9.010   4.952  0.00  0.00    +0.104 A 
ATOM     23  C   UNL     1      17.854   9.043   5.789  0.00  0.00    +0.032 A 
ATOM     27  C   UNL     1      17.957  10.827   4.418  0.00  0.00    +0.086 A 
ATOM     28  C   UNL     1      18.611  10.193   5.452  0.00  0.00    +0.020 A 
ATOM     29  C   UNL     1      15.882  10.442   3.089  0.00  0.00    +0.149 C 
ENDBRANCH  17  19
BRANCH  13  16
ATOM      1  O   UNL     1      12.582   8.308   3.856  0.00  0.00    -0.274 OA
ATOM      7  N   UNL     1      12.071   6.090   4.346  0.00  0.00    -0.302 N 
ATOM     16  C   UNL     1      12.679   7.314   4.571  0.00  0.00    +0.234 C 
ATOM     39  H   UNL     1      12.243   5.325   4.993  0.00  0.00    +0.150 HD
BRANCH   7  18
ATOM     18  C   UNL     1      11.223   5.826   3.206  0.00  0.00    +0.163 C 
BRANCH  18  24
ATOM      4  O   UNL     1      11.097   3.580   2.288  0.00  0.00    -0.274 OA
ATOM     11  N   UNL     1      13.088   4.717   2.140  0.00  0.00    -0.328 N 
ATOM     24  C   UNL     1      11.769   4.582   2.521  0.00  0.00    +0.231 C 
ATOM     42  H   UNL     1      13.569   3.964   1.659  0.00  0.00    +0.145 HD
ATOM     43  H   UNL     1      13.623   5.560   2.319  0.00  0.00    +0.145 HD
ENDBRANCH  18  24
BRANCH  18  21
ATOM     21  C   UNL     1       9.757   5.617   3.608  0.00  0.00    +0.069 C 
BRANCH  21  22
ATOM     10  N   UNL     1       8.711   7.875   6.314  0.00  0.00    -0.360 N 
ATOM     22  C   UNL     1       9.392   6.318   4.886  0.00  0.00    -0.020 A 
ATOM     26  C   UNL     1       9.460   5.777   6.200  0.00  0.00    +0.003 A 
ATOM     30  C   UNL     1       8.927   7.610   4.988  0.00  0.00    +0.087 A 
ATOM     31  C   UNL     1       9.028   6.773   7.077  0.00  0.00    +0.047 A 
ATOM     34  C   UNL     1       9.851   4.530   6.729  0.00  0.00    +0.010 A 
ATOM     35  C   UNL     1       8.966   6.585   8.463  0.00  0.00    +0.026 A 
ATOM     36  C   UNL     1       9.794   4.328   8.113  0.00  0.00    +0.001 A 
ATOM     37  C   UNL     1       9.358   5.342   8.965  0.00  0.00    +0.002 A 
ATOM     41  H   UNL     1       8.352   8.745   6.680  0.00  0.00    +0.165 HD
ENDBRANCH  21  22
ENDBRANCH  18  21
ENDBRANCH   7  18
ENDBRANCH  13  16
TORSDOF 8
ENDMDL
MODEL 3
REMARK VINA RESULT:      -6.5      1.578      2.297
REMARK  Name = 7127943
REMARK  11 active torsions:
REMARK  status: ('A' for Active; 'I' for Inactive)
REMARK    1  A    between atoms: N_6  and  C_12
REMARK    2  A    between atoms: N_7  and  C_18
REMARK    3  A    between atoms: N_8  and  C_29
REMARK    4  A    between atoms: N_9  and  C_25
REMARK    5  A    between atoms: C_13  and  C_16
REMARK    6  A    between atoms: C_17  and  C_19
REMARK    7  A    between atoms: C_18  and  C_21
REMARK    8  A    between atoms: C_18  and  C_24
REMARK    9  A    between atoms: C_21  and  C_22
REMARK   10  A    between atoms: C_25  and  C_32
REMARK   11  A    between atoms: C_25  and  C_33
REMARK                            x       y       z     vdW  Elec       q    Type
REMARK                         _______ _______ _______ _____ _____    ______ ____
ROOT
ATOM      2  O   UNL     1     -10.127  -9.572  17.439  0.00  0.00    -0.268 OA
ATOM      5  N   UNL     1      -9.740  -9.830  15.180  0.00  0.00    -0.283 N 
ATOM     12  C   UNL     1      -8.991 -10.400  12.994  0.00  0.00    +0.094 C 
ATOM     13  C   UNL     1      -9.076 -11.119  15.303  0.00  0.00    +0.164 C 
ATOM     14  C   UNL     1      -8.972 -11.654  13.875  0.00  0.00    +0.056 C 
ATOM     15  C   UNL     1      -9.866  -9.427  13.777  0.00  0.00    +0.131 C 
ATOM     17  C   UNL     1     -10.279  -9.167  16.285  0.00  0.00    +0.264 C 
ENDROOT
BRANCH  12   6
ATOM      3  O   UNL     1      -7.173 -11.107  10.867  0.00  0.00    -0.253 OA
ATOM      6  N   UNL     1      -7.672  -9.867  12.767  0.00  0.00    -0.295 N 
ATOM      9  N   UNL     1      -5.637  -9.594  11.726  0.00  0.00    -0.297 N 
ATOM     20  C   UNL     1      -6.856 -10.268  11.709  0.00  0.00    +0.300 C 
ATOM     38  H   UNL     1      -7.289  -9.217  13.447  0.00  0.00    +0.151 HD
ATOM     40  H   UNL     1      -5.497  -8.864  12.418  0.00  0.00    +0.150 HD
BRANCH   9  25
ATOM     25  C   UNL     1      -4.605  -9.820  10.741  0.00  0.00    +0.068 C 
ATOM     32  C   UNL     1      -3.283 -10.145  11.424  0.00  0.00    +0.027 C 
ATOM     33  C   UNL     1      -4.470  -8.611   9.824  0.00  0.00    +0.027 C 
ENDBRANCH   9  25
ENDBRANCH  12   6
BRANCH  17  19
ATOM      8  N   UNL     1     -12.367  -7.869  15.808  0.00  0.00    -0.346 N 
ATOM     19  C   UNL     1     -11.013  -7.938  16.013  0.00  0.00    +0.104 A 
ATOM     23  C   UNL     1     -10.505  -6.662  15.914  0.00  0.00    +0.032 A 
ATOM     27  C   UNL     1     -12.730  -6.567  15.579  0.00  0.00    +0.086 A 
ATOM     28  C   UNL     1     -11.591  -5.794  15.639  0.00  0.00    +0.020 A 
ATOM     29  C   UNL     1     -13.285  -8.986  15.827  0.00  0.00    +0.149 C 
ENDBRANCH  17  19
BRANCH  13  16
ATOM      1  O   UNL     1      -6.811 -10.366  15.293  0.00  0.00    -0.274 OA
ATOM      7  N   UNL     1      -7.640 -11.419  17.196  0.00  0.00    -0.302 N 
ATOM     16  C   UNL     1      -7.722 -10.911  15.910  0.00  0.00    +0.234 C 
ATOM     39  H   UNL     1      -8.469 -11.827  17.621  0.00  0.00    +0.150 HD
BRANCH   7  18
ATOM     18  C   UNL     1      -6.436 -11.366  17.992  0.00  0.00    +0.163 C 
BRANCH  18  24
ATOM      4  O   UNL     1      -6.122 -11.102  20.387  0.00  0.00    -0.274 OA
ATOM     11  N   UNL     1      -8.113 -10.429  19.460  0.00  0.00    -0.328 N 
ATOM     24  C   UNL     1      -6.850 -10.980  19.405  0.00  0.00    +0.231 C 
ATOM     42  H   UNL     1      -8.505 -10.115  20.341  0.00  0.00    +0.145 HD
ATOM     43  H   UNL     1      -8.694 -10.313  18.636  0.00  0.00    +0.145 HD
ENDBRANCH  18  24
BRANCH  18  21
ATOM     21  C   UNL     1      -5.686 -12.704  18.000  0.00  0.00    +0.069 C 
BRANCH  21  22
ATOM     10  N   UNL     1      -4.164 -13.852  14.857  0.00  0.00    -0.360 N 
ATOM     22  C   UNL     1      -4.895 -12.943  16.745  0.00  0.00    -0.020 A 
ATOM     26  C   UNL     1      -3.833 -12.138  16.246  0.00  0.00    +0.003 A 
ATOM     30  C   UNL     1      -5.076 -13.989  15.869  0.00  0.00    +0.087 A 
ATOM     31  C   UNL     1      -3.392 -12.730  15.061  0.00  0.00    +0.047 A 
ATOM     34  C   UNL     1      -3.202 -10.960  16.691  0.00  0.00    +0.010 A 
ATOM     35  C   UNL     1      -2.347 -12.201  14.295  0.00  0.00    +0.026 A 
ATOM     36  C   UNL     1      -2.156 -10.418  15.935  0.00  0.00    +0.001 A 
ATOM     37  C   UNL     1      -1.737 -11.031  14.755  0.00  0.00    +0.002 A 
ATOM     41  H   UNL     1      -4.081 -14.472  14.064  0.00  0.00    +0.165 HD
ENDBRANCH  21  22
ENDBRANCH  18  21
ENDBRANCH   7  18
ENDBRANCH  13  16
TORSDOF 8
ENDMDL
MODEL 4
REMARK VINA RESULT:      -6.4     24.449     28.474
REMARK  Name = 7127943
REMARK  11 active torsions:
REMARK  status: ('A' for Active; 'I' for Inactive)
REMARK    1  A    between atoms: N_6  and  C_12
REMARK    2  A    between atoms: N_7  and  C_18
REMARK    3  A    between atoms: N_8  and  C_29
REMARK    4  A    between atoms: N_9  and  C_25
REMARK    5  A    between atoms: C_13  and  C_16
REMARK    6  A    between atoms: C_17  and  C_19
REMARK    7  A    between atoms: C_18  and  C_21
REMARK    8  A    between atoms: C_18  and  C_24
REMARK    9  A    between atoms: C_21  and  C_22
REMARK   10  A    between atoms: C_25  and  C_32
REMARK   11  A    between atoms: C_25  and  C_33
REMARK                            x       y       z     vdW  Elec       q    Type
REMARK                         _______ _______ _______ _____ _____    ______ ____
ROOT
ATOM      2  O   UNL     1       9.713   4.707  -0.129  0.00  0.00    -0.268 OA
ATOM      5  N   UNL     1      11.928   4.075   0.006  0.00  0.00    -0.283 N 
ATOM     12  C   UNL     1      14.180   3.589   0.602  0.00  0.00    +0.094 C 
ATOM     13  C   UNL     1      11.948   3.962   1.457  0.00  0.00    +0.164 C 
ATOM     14  C   UNL     1      13.264   3.260   1.786  0.00  0.00    +0.056 C 
ATOM     15  C   UNL     1      13.216   3.693  -0.576  0.00  0.00    +0.131 C 
ATOM     17  C   UNL     1      10.761   4.392  -0.695  0.00  0.00    +0.264 C 
ENDROOT
BRANCH  12   6
ATOM      3  O   UNL     1      16.555   4.432  -0.803  0.00  0.00    -0.253 OA
ATOM      6  N   UNL     1      14.916   4.811   0.798  0.00  0.00    -0.295 N 
ATOM      9  N   UNL     1      16.571   6.376   0.463  0.00  0.00    -0.297 N 
ATOM     20  C   UNL     1      16.060   5.141   0.072  0.00  0.00    +0.300 C 
ATOM     38  H   UNL     1      14.628   5.434   1.546  0.00  0.00    +0.151 HD
ATOM     40  H   UNL     1      16.049   6.922   1.143  0.00  0.00    +0.150 HD
BRANCH   9  25
ATOM     25  C   UNL     1      17.753   6.957  -0.129  0.00  0.00    +0.068 C 
ATOM     32  C   UNL     1      18.460   7.857   0.876  0.00  0.00    +0.027 C 
ATOM     33  C   UNL     1      17.394   7.721  -1.398  0.00  0.00    +0.027 C 
ENDBRANCH   9  25
ENDBRANCH  12   6
BRANCH  17  19
ATOM      8  N   UNL     1      11.202   5.438  -2.928  0.00  0.00    -0.346 N 
ATOM     19  C   UNL     1      10.849   4.367  -2.149  0.00  0.00    +0.104 A 
ATOM     23  C   UNL     1      10.602   3.300  -2.986  0.00  0.00    +0.032 A 
ATOM     27  C   UNL     1      11.185   5.072  -4.248  0.00  0.00    +0.086 A 
ATOM     28  C   UNL     1      10.814   3.746  -4.314  0.00  0.00    +0.020 A 
ATOM     29  C   UNL     1      11.545   6.758  -2.447  0.00  0.00    +0.149 C 
ENDBRANCH  17  19
BRANCH  13  16
ATOM      1  O   UNL     1      12.915   5.978   2.293  0.00  0.00    -0.274 OA
ATOM      7  N   UNL     1      10.598   5.752   2.301  0.00  0.00    -0.302 N 
ATOM     16  C   UNL     1      11.896   5.337   2.052  0.00  0.00    +0.234 C 
ATOM     39  H   UNL     1       9.825   5.148   2.035  0.00  0.00    +0.150 HD
BRANCH   7  18
ATOM     18  C   UNL     1      10.277   7.030   2.893  0.00  0.00    +0.163 C 
BRANCH  18  24
ATOM      4  O   UNL     1      11.176   9.062   1.912  0.00  0.00    -0.274 OA
ATOM     11  N   UNL     1       9.724   7.790   0.666  0.00  0.00    -0.328 N 
ATOM     24  C   UNL     1      10.443   8.081   1.806  0.00  0.00    +0.231 C 
ATOM     42  H   UNL     1       9.758   8.404  -0.141  0.00  0.00    +0.145 HD
ATOM     43  H   UNL     1       9.141   6.963   0.585  0.00  0.00    +0.145 HD
ENDBRANCH  18  24
BRANCH  18  21
ATOM     21  C   UNL     1       8.852   7.066   3.460  0.00  0.00    +0.069 C 
BRANCH  21  22
ATOM     10  N   UNL     1       8.538   8.213   6.939  0.00  0.00    -0.360 N 
ATOM     22  C   UNL     1       8.816   7.271   4.948  0.00  0.00    -0.020 A 
ATOM     26  C   UNL     1       9.166   6.317   5.945  0.00  0.00    +0.003 A 
ATOM     30  C   UNL     1       8.434   8.426   5.591  0.00  0.00    +0.087 A 
ATOM     31  C   UNL     1       8.982   6.933   7.184  0.00  0.00    +0.047 A 
ATOM     34  C   UNL     1       9.622   4.984   5.910  0.00  0.00    +0.010 A 
ATOM     35  C   UNL     1       9.235   6.280   8.396  0.00  0.00    +0.026 A 
ATOM     36  C   UNL     1       9.878   4.319   7.115  0.00  0.00    +0.001 A 
ATOM     37  C   UNL     1       9.686   4.959   8.338  0.00  0.00    +0.002 A 
ATOM     41  H   UNL     1       8.304   8.888   7.652  0.00  0.00    +0.165 HD
ENDBRANCH  21  22
ENDBRANCH  18  21
ENDBRANCH   7  18
ENDBRANCH  13  16
TORSDOF 8
ENDMDL
MODEL 5
REMARK VINA RESULT:      -6.3      3.563      7.454
REMARK  Name = 7127943
REMARK  11 active torsions:
REMARK  status: ('A' for Active; 'I' for Inactive)
REMARK    1  A    between atoms: N_6  and  C_12
REMARK    2  A    between atoms: N_7  and  C_18
REMARK    3  A    between atoms: N_8  and  C_29
REMARK    4  A    between atoms: N_9  and  C_25
REMARK    5  A    between atoms: C_13  and  C_16
REMARK    6  A    between atoms: C_17  and  C_19
REMARK    7  A    between atoms: C_18  and  C_21
REMARK    8  A    between atoms: C_18  and  C_24
REMARK    9  A    between atoms: C_21  and  C_22
REMARK   10  A    between atoms: C_25  and  C_32
REMARK   11  A    between atoms: C_25  and  C_33
REMARK                            x       y       z     vdW  Elec       q    Type
REMARK                         _______ _______ _______ _____ _____    ______ ____
ROOT
ATOM      2  O   UNL     1      -3.667 -13.345  10.385  0.00  0.00    -0.268 OA
ATOM      5  N   UNL     1      -4.210 -11.334   9.394  0.00  0.00    -0.283 N 
ATOM     12  C   UNL     1      -4.729  -9.083   8.824  0.00  0.00    +0.094 C 
ATOM     13  C   UNL     1      -3.630 -10.506  10.441  0.00  0.00    +0.164 C 
ATOM     14  C   UNL     1      -3.606  -9.091   9.866  0.00  0.00    +0.056 C 
ATOM     15  C   UNL     1      -4.743 -10.516   8.303  0.00  0.00    +0.131 C 
ATOM     17  C   UNL     1      -4.129 -12.729   9.424  0.00  0.00    +0.264 C 
ENDROOT
BRANCH  12   6
ATOM      3  O   UNL     1      -7.144  -8.426   7.386  0.00  0.00    -0.253 OA
ATOM      6  N   UNL     1      -6.001  -8.708   9.388  0.00  0.00    -0.295 N 
ATOM      9  N   UNL     1      -8.215  -8.077   9.414  0.00  0.00    -0.297 N 
ATOM     20  C   UNL     1      -7.122  -8.405   8.615  0.00  0.00    +0.300 C 
ATOM     38  H   UNL     1      -6.069  -8.595  10.394  0.00  0.00    +0.151 HD
ATOM     40  H   UNL     1      -8.119  -8.161  10.422  0.00  0.00    +0.150 HD
BRANCH   9  25
ATOM     25  C   UNL     1      -9.503  -7.721   8.869  0.00  0.00    +0.068 C 
ATOM     32  C   UNL     1      -9.560  -6.228   8.574  0.00  0.00    +0.027 C 
ATOM     33  C   UNL     1     -10.619  -8.139   9.820  0.00  0.00    +0.027 C 
ENDBRANCH   9  25
ENDBRANCH  12   6
BRANCH  17  19
ATOM      8  N   UNL     1      -5.955 -13.842   8.120  0.00  0.00    -0.346 N 
ATOM     19  C   UNL     1      -4.654 -13.436   8.263  0.00  0.00    +0.104 A 
ATOM     23  C   UNL     1      -3.967 -13.817   7.131  0.00  0.00    +0.032 A 
ATOM     27  C   UNL     1      -6.110 -14.475   6.915  0.00  0.00    +0.086 A 
ATOM     28  C   UNL     1      -4.888 -14.474   6.278  0.00  0.00    +0.020 A 
ATOM     29  C   UNL     1      -7.016 -13.640   9.083  0.00  0.00    +0.149 C 
ENDBRANCH  17  19
BRANCH  13  16
ATOM      1  O   UNL     1      -5.582 -10.019  11.725  0.00  0.00    -0.274 OA
ATOM      7  N   UNL     1      -3.913 -11.341  12.668  0.00  0.00    -0.302 N 
ATOM     16  C   UNL     1      -4.495 -10.588  11.662  0.00  0.00    +0.234 C 
ATOM     39  H   UNL     1      -3.019 -11.791  12.496  0.00  0.00    +0.150 HD
BRANCH   7  18
ATOM     18  C   UNL     1      -4.534 -11.554  13.956  0.00  0.00    +0.163 C 
BRANCH  18  24
ATOM      4  O   UNL     1      -4.819 -13.925  14.405  0.00  0.00    -0.274 OA
ATOM     11  N   UNL     1      -2.790 -12.954  14.873  0.00  0.00    -0.328 N 
ATOM     24  C   UNL     1      -4.099 -12.930  14.439  0.00  0.00    +0.231 C 
ATOM     42  H   UNL     1      -2.369 -13.815  15.209  0.00  0.00    +0.145 HD
ATOM     43  H   UNL     1      -2.199 -12.129  14.874  0.00  0.00    +0.145 HD
ENDBRANCH  18  24
BRANCH  18  21
ATOM     21  C   UNL     1      -4.141 -10.478  14.976  0.00  0.00    +0.069 C 
BRANCH  21  22
ATOM     10  N   UNL     1      -6.996  -9.661  17.142  0.00  0.00    -0.360 N 
ATOM     22  C   UNL     1      -5.164 -10.293  16.060  0.00  0.00    -0.020 A 
ATOM     26  C   UNL     1      -5.095 -10.801  17.388  0.00  0.00    +0.003 A 
ATOM     30  C   UNL     1      -6.345  -9.597  15.939  0.00  0.00    +0.087 A 
ATOM     31  C   UNL     1      -6.255 -10.390  18.045  0.00  0.00    +0.047 A 
ATOM     34  C   UNL     1      -4.151 -11.573  18.094  0.00  0.00    +0.010 A 
ATOM     35  C   UNL     1      -6.521 -10.714  19.380  0.00  0.00    +0.026 A 
ATOM     36  C   UNL     1      -4.405 -11.904  19.431  0.00  0.00    +0.001 A 
ATOM     37  C   UNL     1      -5.572 -11.480  20.062  0.00  0.00    +0.002 A 
ATOM     41  H   UNL     1      -7.898  -9.250  17.335  0.00  0.00    +0.165 HD
ENDBRANCH  21  22
ENDBRANCH  18  21
ENDBRANCH   7  18
ENDBRANCH  13  16
TORSDOF 8
ENDMDL
MODEL 6
REMARK VINA RESULT:      -6.3     26.910     30.934
REMARK  Name = 7127943
REMARK  11 active torsions:
REMARK  status: ('A' for Active; 'I' for Inactive)
REMARK    1  A    between atoms: N_6  and  C_12
REMARK    2  A    between atoms: N_7  and  C_18
REMARK    3  A    between atoms: N_8  and  C_29
REMARK    4  A    between atoms: N_9  and  C_25
REMARK    5  A    between atoms: C_13  and  C_16
REMARK    6  A    between atoms: C_17  and  C_19
REMARK    7  A    between atoms: C_18  and  C_21
REMARK    8  A    between atoms: C_18  and  C_24
REMARK    9  A    between atoms: C_21  and  C_22
REMARK   10  A    between atoms: C_25  and  C_32
REMARK   11  A    between atoms: C_25  and  C_33
REMARK                            x       y       z     vdW  Elec       q    Type
REMARK                         _______ _______ _______ _____ _____    ______ ____
ROOT
ATOM      2  O   UNL     1      18.970   9.802   5.634  0.00  0.00    -0.268 OA
ATOM      5  N   UNL     1      18.053   8.926   3.707  0.00  0.00    -0.283 N 
ATOM     12  C   UNL     1      16.686   8.165   1.914  0.00  0.00    +0.094 C 
ATOM     13  C   UNL     1      16.826   9.705   3.774  0.00  0.00    +0.164 C 
ATOM     14  C   UNL     1      16.153   9.511   2.416  0.00  0.00    +0.056 C 
ATOM     15  C   UNL     1      18.092   8.097   2.500  0.00  0.00    +0.131 C 
ATOM     17  C   UNL     1      19.082   9.084   4.639  0.00  0.00    +0.264 C 
ENDROOT
BRANCH  12   6
ATOM      3  O   UNL     1      14.508   6.940   0.471  0.00  0.00    -0.253 OA
ATOM      6  N   UNL     1      15.874   7.055   2.345  0.00  0.00    -0.295 N 
ATOM      9  N   UNL     1      14.218   5.460   2.234  0.00  0.00    -0.297 N 
ATOM     20  C   UNL     1      14.836   6.524   1.581  0.00  0.00    +0.300 C 
ATOM     38  H   UNL     1      16.020   6.683   3.279  0.00  0.00    +0.151 HD
ATOM     40  H   UNL     1      14.609   5.142   3.117  0.00  0.00    +0.150 HD
BRANCH   9  25
ATOM     25  C   UNL     1      13.111   4.729   1.665  0.00  0.00    +0.068 C 
ATOM     32  C   UNL     1      11.845   4.965   2.479  0.00  0.00    +0.027 C 
ATOM     33  C   UNL     1      13.442   3.244   1.576  0.00  0.00    +0.027 C 
ENDBRANCH   9  25
ENDBRANCH  12   6
BRANCH  17  19
ATOM      8  N   UNL     1      21.396   8.801   3.724  0.00  0.00    -0.346 N 
ATOM     19  C   UNL     1      20.302   8.325   4.398  0.00  0.00    +0.104 A 
ATOM     23  C   UNL     1      20.575   7.031   4.785  0.00  0.00    +0.032 A 
ATOM     27  C   UNL     1      22.364   7.833   3.676  0.00  0.00    +0.086 A 
ATOM     28  C   UNL     1      21.880   6.720   4.329  0.00  0.00    +0.020 A 
ATOM     29  C   UNL     1      21.527  10.121   3.148  0.00  0.00    +0.149 C 
ENDBRANCH  17  19
BRANCH  13  16
ATOM      1  O   UNL     1      16.158   8.060   5.370  0.00  0.00    -0.274 OA
ATOM      7  N   UNL     1      14.986  10.069   5.264  0.00  0.00    -0.302 N 
ATOM     16  C   UNL     1      15.975   9.175   4.888  0.00  0.00    +0.234 C 
ATOM     39  H   UNL     1      14.945  10.980   4.814  0.00  0.00    +0.150 HD
BRANCH   7  18
ATOM     18  C   UNL     1      14.019   9.789   6.300  0.00  0.00    +0.163 C 
BRANCH  18  24
ATOM      4  O   UNL     1      12.714  11.834   6.436  0.00  0.00    -0.274 OA
ATOM     11  N   UNL     1      14.302  11.436   8.048  0.00  0.00    -0.328 N 
ATOM     24  C   UNL     1      13.605  11.126   6.898  0.00  0.00    +0.231 C 
ATOM     42  H   UNL     1      14.113  12.293   8.555  0.00  0.00    +0.145 HD
ATOM     43  H   UNL     1      15.020  10.829   8.431  0.00  0.00    +0.145 HD
ENDBRANCH  18  24
BRANCH  18  21
ATOM     21  C   UNL     1      12.793   9.039   5.764  0.00  0.00    +0.069 C 
BRANCH  21  22
ATOM     10  N   UNL     1      12.616   5.910   7.684  0.00  0.00    -0.360 N 
ATOM     22  C   UNL     1      12.443   7.826   6.578  0.00  0.00    -0.020 A 
ATOM     26  C   UNL     1      11.160   7.494   7.096  0.00  0.00    +0.003 A 
ATOM     30  C   UNL     1      13.318   6.833   6.957  0.00  0.00    +0.087 A 
ATOM     31  C   UNL     1      11.296   6.288   7.786  0.00  0.00    +0.047 A 
ATOM     34  C   UNL     1       9.892   8.106   7.043  0.00  0.00    +0.010 A 
ATOM     35  C   UNL     1      10.223   5.660   8.428  0.00  0.00    +0.026 A 
ATOM     36  C   UNL     1       8.810   7.489   7.682  0.00  0.00    +0.001 A 
ATOM     37  C   UNL     1       8.975   6.285   8.363  0.00  0.00    +0.002 A 
ATOM     41  H   UNL     1      13.012   5.081   8.104  0.00  0.00    +0.165 HD
ENDBRANCH  21  22
ENDBRANCH  18  21
ENDBRANCH   7  18
ENDBRANCH  13  16
TORSDOF 8
ENDMDL
MODEL 7
REMARK VINA RESULT:      -6.2     22.489     26.517
REMARK  Name = 7127943
REMARK  11 active torsions:
REMARK  status: ('A' for Active; 'I' for Inactive)
REMARK    1  A    between atoms: N_6  and  C_12
REMARK    2  A    between atoms: N_7  and  C_18
REMARK    3  A    between atoms: N_8  and  C_29
REMARK    4  A    between atoms: N_9  and  C_25
REMARK    5  A    between atoms: C_13  and  C_16
REMARK    6  A    between atoms: C_17  and  C_19
REMARK    7  A    between atoms: C_18  and  C_21
REMARK    8  A    between atoms: C_18  and  C_24
REMARK    9  A    between atoms: C_21  and  C_22
REMARK   10  A    between atoms: C_25  and  C_32
REMARK   11  A    between atoms: C_25  and  C_33
REMARK                            x       y       z     vdW  Elec       q    Type
REMARK                         _______ _______ _______ _____ _____    ______ ____
ROOT
ATOM      2  O   UNL     1     -11.306   8.557  36.064  0.00  0.00    -0.268 OA
ATOM      5  N   UNL     1     -11.965   9.967  34.362  0.00  0.00    -0.283 N 
ATOM     12  C   UNL     1     -12.969  11.073  32.509  0.00  0.00    +0.094 C 
ATOM     13  C   UNL     1     -13.301   9.405  34.230  0.00  0.00    +0.164 C 
ATOM     14  C   UNL     1     -14.060  10.383  33.335  0.00  0.00    +0.056 C 
ATOM     15  C   UNL     1     -11.771  11.099  33.452  0.00  0.00    +0.131 C 
ATOM     17  C   UNL     1     -11.068   9.522  35.336  0.00  0.00    +0.264 C 
ENDROOT
BRANCH  12   6
ATOM      3  O   UNL     1     -12.335  12.227  29.942  0.00  0.00    -0.253 OA
ATOM      6  N   UNL     1     -12.673  10.366  31.289  0.00  0.00    -0.295 N 
ATOM      9  N   UNL     1     -12.131  10.087  29.069  0.00  0.00    -0.297 N 
ATOM     20  C   UNL     1     -12.376  11.006  30.087  0.00  0.00    +0.300 C 
ATOM     38  H   UNL     1     -12.749   9.354  31.287  0.00  0.00    +0.151 HD
ATOM     40  H   UNL     1     -12.115   9.098  29.305  0.00  0.00    +0.150 HD
BRANCH   9  25
ATOM     25  C   UNL     1     -11.799  10.481  27.721  0.00  0.00    +0.068 C 
ATOM     32  C   UNL     1     -12.963  10.191  26.783  0.00  0.00    +0.027 C 
ATOM     33  C   UNL     1     -10.528   9.780  27.257  0.00  0.00    +0.027 C 
ENDBRANCH   9  25
ENDBRANCH  12   6
BRANCH  17  19
ATOM      8  N   UNL     1      -9.587  11.330  36.236  0.00  0.00    -0.346 N 
ATOM     19  C   UNL     1      -9.804  10.240  35.434  0.00  0.00    +0.104 A 
ATOM     23  C   UNL     1      -8.631   9.970  34.762  0.00  0.00    +0.032 A 
ATOM     27  C   UNL     1      -8.294  11.760  36.087  0.00  0.00    +0.086 A 
ATOM     28  C   UNL     1      -7.676  10.931  35.176  0.00  0.00    +0.020 A 
ATOM     29  C   UNL     1     -10.560  11.945  37.111  0.00  0.00    +0.149 C 
ENDBRANCH  17  19
BRANCH  13  16
ATOM      1  O   UNL     1     -12.574   7.866  32.557  0.00  0.00    -0.274 OA
ATOM      7  N   UNL     1     -13.893   7.086  34.309  0.00  0.00    -0.302 N 
ATOM     16  C   UNL     1     -13.198   8.050  33.598  0.00  0.00    +0.234 C 
ATOM     39  H   UNL     1     -14.354   7.346  35.177  0.00  0.00    +0.150 HD
BRANCH   7  18
ATOM     18  C   UNL     1     -13.971   5.703  33.898  0.00  0.00    +0.163 C 
BRANCH  18  24
ATOM      4  O   UNL     1     -14.119   4.365  35.921  0.00  0.00    -0.274 OA
ATOM     11  N   UNL     1     -16.066   5.030  34.899  0.00  0.00    -0.328 N 
ATOM     24  C   UNL     1     -14.693   4.948  35.004  0.00  0.00    +0.231 C 
ATOM     42  H   UNL     1     -16.667   4.581  35.582  0.00  0.00    +0.145 HD
ATOM     43  H   UNL     1     -16.526   5.535  34.149  0.00  0.00    +0.145 HD
ENDBRANCH  18  24
BRANCH  18  21
ATOM     21  C   UNL     1     -14.708   5.534  32.564  0.00  0.00    +0.069 C 
BRANCH  21  22
ATOM     10  N   UNL     1     -13.103   2.590  31.056  0.00  0.00    -0.360 N 
ATOM     22  C   UNL     1     -14.308   4.289  31.824  0.00  0.00    -0.020 A 
ATOM     26  C   UNL     1     -15.135   3.507  30.969  0.00  0.00    +0.003 A 
ATOM     30  C   UNL     1     -13.065   3.699  31.858  0.00  0.00    +0.087 A 
ATOM     31  C   UNL     1     -14.355   2.449  30.501  0.00  0.00    +0.047 A 
ATOM     34  C   UNL     1     -16.476   3.601  30.548  0.00  0.00    +0.010 A 
ATOM     35  C   UNL     1     -14.852   1.474  29.627  0.00  0.00    +0.026 A 
ATOM     36  C   UNL     1     -16.986   2.633  29.675  0.00  0.00    +0.001 A 
ATOM     37  C   UNL     1     -16.185   1.586  29.223  0.00  0.00    +0.002 A 
ATOM     41  H   UNL     1     -12.332   1.956  30.907  0.00  0.00    +0.165 HD
ENDBRANCH  21  22
ENDBRANCH  18  21
ENDBRANCH   7  18
ENDBRANCH  13  16
TORSDOF 8
ENDMDL
MODEL 8
REMARK VINA RESULT:      -6.2     25.249     29.045
REMARK  Name = 7127943
REMARK  11 active torsions:
REMARK  status: ('A' for Active; 'I' for Inactive)
REMARK    1  A    between atoms: N_6  and  C_12
REMARK    2  A    between atoms: N_7  and  C_18
REMARK    3  A    between atoms: N_8  and  C_29
REMARK    4  A    between atoms: N_9  and  C_25
REMARK    5  A    between atoms: C_13  and  C_16
REMARK    6  A    between atoms: C_17  and  C_19
REMARK    7  A    between atoms: C_18  and  C_21
REMARK    8  A    between atoms: C_18  and  C_24
REMARK    9  A    between atoms: C_21  and  C_22
REMARK   10  A    between atoms: C_25  and  C_32
REMARK   11  A    between atoms: C_25  and  C_33
REMARK                            x       y       z     vdW  Elec       q    Type
REMARK                         _______ _______ _______ _____ _____    ______ ____
ROOT
ATOM      2  O   UNL     1      15.491  10.767   6.934  0.00  0.00    -0.268 OA
ATOM      5  N   UNL     1      15.138   9.814   4.863  0.00  0.00    -0.283 N 
ATOM     12  C   UNL     1      14.306   8.829   2.863  0.00  0.00    +0.094 C 
ATOM     13  C   UNL     1      13.735  10.193   4.778  0.00  0.00    +0.164 C 
ATOM     14  C   UNL     1      13.333   9.917   3.330  0.00  0.00    +0.056 C 
ATOM     15  C   UNL     1      15.579   9.129   3.646  0.00  0.00    +0.131 C 
ATOM     17  C   UNL     1      15.942  10.193   5.941  0.00  0.00    +0.264 C 
ENDROOT
BRANCH  12   6
ATOM      3  O   UNL     1      13.374   6.898   0.932  0.00  0.00    -0.253 OA
ATOM      6  N   UNL     1      13.815   7.501   3.131  0.00  0.00    -0.295 N 
ATOM      9  N   UNL     1      12.961   5.414   2.667  0.00  0.00    -0.297 N 
ATOM     20  C   UNL     1      13.382   6.629   2.132  0.00  0.00    +0.300 C 
ATOM     38  H   UNL     1      13.717   7.207   4.098  0.00  0.00    +0.151 HD
ATOM     40  H   UNL     1      13.076   5.260   3.665  0.00  0.00    +0.150 HD
BRANCH   9  25
ATOM     25  C   UNL     1      12.462   4.331   1.853  0.00  0.00    +0.068 C 
ATOM     32  C   UNL     1      11.296   3.640   2.547  0.00  0.00    +0.027 C 
ATOM     33  C   UNL     1      13.579   3.344   1.535  0.00  0.00    +0.027 C 
ENDBRANCH   9  25
ENDBRANCH  12   6
BRANCH  17  19
ATOM      8  N   UNL     1      18.334  10.674   5.376  0.00  0.00    -0.346 N 
ATOM     19  C   UNL     1      17.353   9.843   5.854  0.00  0.00    +0.104 A 
ATOM     23  C   UNL     1      17.949   8.656   6.222  0.00  0.00    +0.032 A 
ATOM     27  C   UNL     1      19.545  10.035   5.433  0.00  0.00    +0.086 A 
ATOM     28  C   UNL     1      19.335   8.778   5.956  0.00  0.00    +0.020 A 
ATOM     29  C   UNL     1      18.138  12.019   4.884  0.00  0.00    +0.149 C 
ENDBRANCH  17  19
BRANCH  13  16
ATOM      1  O   UNL     1      13.347   8.258   6.120  0.00  0.00    -0.274 OA
ATOM      7  N   UNL     1      11.746   9.948   6.089  0.00  0.00    -0.302 N 
ATOM     16  C   UNL     1      12.946   9.353   5.735  0.00  0.00    +0.234 C 
ATOM     39  H   UNL     1      11.527  10.874   5.731  0.00  0.00    +0.150 HD
BRANCH   7  18
ATOM     18  C   UNL     1      10.791   9.333   6.982  0.00  0.00    +0.163 C 
BRANCH  18  24
ATOM      4  O   UNL     1      10.273  10.562   9.014  0.00  0.00    -0.274 OA
ATOM     11  N   UNL     1       9.472  11.359   7.013  0.00  0.00    -0.328 N 
ATOM     24  C   UNL     1      10.155  10.451   7.796  0.00  0.00    +0.231 C 
ATOM     42  H   UNL     1       9.013  12.162   7.430  0.00  0.00    +0.145 HD
ATOM     43  H   UNL     1       9.403  11.267   6.005  0.00  0.00    +0.145 HD
ENDBRANCH  18  24
BRANCH  18  21
ATOM     21  C   UNL     1       9.717   8.541   6.228  0.00  0.00    +0.069 C 
BRANCH  21  22
ATOM     10  N   UNL     1      10.411   4.956   5.798  0.00  0.00    -0.360 N 
ATOM     22  C   UNL     1       9.907   7.053   6.323  0.00  0.00    -0.020 A 
ATOM     26  C   UNL     1       9.630   6.233   7.452  0.00  0.00    +0.003 A 
ATOM     30  C   UNL     1      10.387   6.239   5.321  0.00  0.00    +0.087 A 
ATOM     31  C   UNL     1       9.954   4.923   7.096  0.00  0.00    +0.047 A 
ATOM     34  C   UNL     1       9.131   6.482   8.746  0.00  0.00    +0.010 A 
ATOM     35  C   UNL     1       9.804   3.843   7.974  0.00  0.00    +0.026 A 
ATOM     36  C   UNL     1       8.977   5.411   9.635  0.00  0.00    +0.001 A 
ATOM     37  C   UNL     1       9.309   4.113   9.253  0.00  0.00    +0.002 A 
ATOM     41  H   UNL     1      10.735   4.152   5.280  0.00  0.00    +0.165 HD
ENDBRANCH  21  22
ENDBRANCH  18  21
ENDBRANCH   7  18
ENDBRANCH  13  16
TORSDOF 8
ENDMDL
MODEL 9
REMARK VINA RESULT:      -6.2      2.963      7.765
REMARK  Name = 7127943
REMARK  11 active torsions:
REMARK  status: ('A' for Active; 'I' for Inactive)
REMARK    1  A    between atoms: N_6  and  C_12
REMARK    2  A    between atoms: N_7  and  C_18
REMARK    3  A    between atoms: N_8  and  C_29
REMARK    4  A    between atoms: N_9  and  C_25
REMARK    5  A    between atoms: C_13  and  C_16
REMARK    6  A    between atoms: C_17  and  C_19
REMARK    7  A    between atoms: C_18  and  C_21
REMARK    8  A    between atoms: C_18  and  C_24
REMARK    9  A    between atoms: C_21  and  C_22
REMARK   10  A    between atoms: C_25  and  C_32
REMARK   11  A    between atoms: C_25  and  C_33
REMARK                            x       y       z     vdW  Elec       q    Type
REMARK                         _______ _______ _______ _____ _____    ______ ____
ROOT
ATOM      2  O   UNL     1      -3.109 -14.886  15.195  0.00  0.00    -0.268 OA
ATOM      5  N   UNL     1      -2.481 -12.982  14.055  0.00  0.00    -0.283 N 
ATOM     12  C   UNL     1      -2.159 -10.798  13.167  0.00  0.00    +0.094 C 
ATOM     13  C   UNL     1      -2.918 -12.055  15.090  0.00  0.00    +0.164 C 
ATOM     14  C   UNL     1      -2.335 -10.702  14.686  0.00  0.00    +0.056 C 
ATOM     15  C   UNL     1      -1.856 -12.274  12.936  0.00  0.00    +0.131 C 
ATOM     17  C   UNL     1      -2.563 -14.367  14.221  0.00  0.00    +0.264 C 
ENDROOT
BRANCH  12   6
ATOM      3  O   UNL     1      -2.252  -9.533  10.575  0.00  0.00    -0.253 OA
ATOM      6  N   UNL     1      -3.334 -10.375  12.449  0.00  0.00    -0.295 N 
ATOM      9  N   UNL     1      -4.566  -9.464  10.731  0.00  0.00    -0.297 N 
ATOM     20  C   UNL     1      -3.288  -9.768  11.195  0.00  0.00    +0.300 C 
ATOM     38  H   UNL     1      -4.237 -10.463  12.906  0.00  0.00    +0.151 HD
ATOM     40  H   UNL     1      -5.364  -9.765  11.282  0.00  0.00    +0.150 HD
BRANCH   9  25
ATOM     25  C   UNL     1      -4.805  -8.829   9.457  0.00  0.00    +0.068 C 
ATOM     32  C   UNL     1      -6.107  -8.039   9.495  0.00  0.00    +0.027 C 
ATOM     33  C   UNL     1      -4.820  -9.864   8.339  0.00  0.00    +0.027 C 
ENDBRANCH   9  25
ENDBRANCH  12   6
BRANCH  17  19
ATOM      8  N   UNL     1      -2.647 -15.532  12.006  0.00  0.00    -0.346 N 
ATOM     19  C   UNL     1      -1.992 -15.184  13.158  0.00  0.00    +0.104 A 
ATOM     23  C   UNL     1      -0.733 -15.741  13.112  0.00  0.00    +0.032 A 
ATOM     27  C   UNL     1      -1.826 -16.302  11.225  0.00  0.00    +0.086 A 
ATOM     28  C   UNL     1      -0.628 -16.449  11.889  0.00  0.00    +0.020 A 
ATOM     29  C   UNL     1      -3.997 -15.152  11.651  0.00  0.00    +0.149 C 
ENDBRANCH  17  19
BRANCH  13  16
ATOM      1  O   UNL     1      -5.084 -12.242  14.105  0.00  0.00    -0.274 OA
ATOM      7  N   UNL     1      -4.915 -11.702  16.363  0.00  0.00    -0.302 N 
ATOM     16  C   UNL     1      -4.416 -12.023  15.111  0.00  0.00    +0.234 C 
ATOM     39  H   UNL     1      -4.268 -11.568  17.135  0.00  0.00    +0.150 HD
BRANCH   7  18
ATOM     18  C   UNL     1      -6.328 -11.583  16.644  0.00  0.00    +0.163 C 
BRANCH  18  24
ATOM      4  O   UNL     1      -7.499 -12.050  18.721  0.00  0.00    -0.274 OA
ATOM     11  N   UNL     1      -5.728 -13.390  18.134  0.00  0.00    -0.328 N 
ATOM     24  C   UNL     1      -6.589 -12.330  17.944  0.00  0.00    +0.231 C 
ATOM     42  H   UNL     1      -5.804 -13.981  18.955  0.00  0.00    +0.145 HD
ATOM     43  H   UNL     1      -4.996 -13.624  17.471  0.00  0.00    +0.145 HD
ENDBRANCH  18  24
BRANCH  18  21
ATOM     21  C   UNL     1      -6.775 -10.121  16.766  0.00  0.00    +0.069 C 
BRANCH  21  22
ATOM     10  N   UNL     1      -9.102  -9.624  13.964  0.00  0.00    -0.360 N 
ATOM     22  C   UNL     1      -7.875  -9.760  15.809  0.00  0.00    -0.020 A 
ATOM     26  C   UNL     1      -9.012  -8.952  16.090  0.00  0.00    +0.003 A 
ATOM     30  C   UNL     1      -7.958 -10.159  14.494  0.00  0.00    +0.087 A 
ATOM     31  C   UNL     1      -9.765  -8.883  14.916  0.00  0.00    +0.047 A 
ATOM     34  C   UNL     1      -9.473  -8.270  17.233  0.00  0.00    +0.010 A 
ATOM     35  C   UNL     1     -10.962  -8.163  14.828  0.00  0.00    +0.026 A 
ATOM     36  C   UNL     1     -10.669  -7.546  17.160  0.00  0.00    +0.001 A 
ATOM     37  C   UNL     1     -11.401  -7.495  15.975  0.00  0.00    +0.002 A 
ATOM     41  H   UNL     1      -9.424  -9.768  13.018  0.00  0.00    +0.165 HD
ENDBRANCH  21  22
ENDBRANCH  18  21
ENDBRANCH   7  18
ENDBRANCH  13  16
TORSDOF 8
ENDMDL
MODEL 10
REMARK VINA RESULT:      -6.1     21.237     25.483
REMARK  Name = 7127943
REMARK  11 active torsions:
REMARK  status: ('A' for Active; 'I' for Inactive)
REMARK    1  A    between atoms: N_6  and  C_12
REMARK    2  A    between atoms: N_7  and  C_18
REMARK    3  A    between atoms: N_8  and  C_29
REMARK    4  A    between atoms: N_9  and  C_25
REMARK    5  A    between atoms: C_13  and  C_16
REMARK    6  A    between atoms: C_17  and  C_19
REMARK    7  A    between atoms: C_18  and  C_21
REMARK    8  A    between atoms: C_18  and  C_24
REMARK    9  A    between atoms: C_21  and  C_22
REMARK   10  A    between atoms: C_25  and  C_32
REMARK   11  A    between atoms: C_25  and  C_33
REMARK                            x       y       z     vdW  Elec       q    Type
REMARK                         _______ _______ _______ _____ _____    ______ ____
ROOT
ATOM      2  O   UNL     1      -5.242  -9.418  39.620  0.00  0.00    -0.268 OA
ATOM      5  N   UNL     1      -6.514  -8.011  40.932  0.00  0.00    -0.283 N 
ATOM     12  C   UNL     1      -8.201  -6.810  42.104  0.00  0.00    +0.094 C 
ATOM     13  C   UNL     1      -7.669  -8.895  40.998  0.00  0.00    +0.164 C 
ATOM     14  C   UNL     1      -8.569  -8.298  42.078  0.00  0.00    +0.056 C 
ATOM     15  C   UNL     1      -6.723  -6.801  41.731  0.00  0.00    +0.131 C 
ATOM     17  C   UNL     1      -5.337  -8.380  40.276  0.00  0.00    +0.264 C 
ENDROOT
BRANCH  12   6
ATOM      3  O   UNL     1      -8.821  -3.998  42.287  0.00  0.00    -0.253 OA
ATOM      6  N   UNL     1      -8.989  -6.033  41.181  0.00  0.00    -0.295 N 
ATOM      9  N   UNL     1     -10.027  -4.171  40.312  0.00  0.00    -0.297 N 
ATOM     20  C   UNL     1      -9.241  -4.672  41.347  0.00  0.00    +0.300 C 
ATOM     38  H   UNL     1      -9.438  -6.512  40.407  0.00  0.00    +0.151 HD
ATOM     40  H   UNL     1     -10.262  -4.789  39.541  0.00  0.00    +0.150 HD
BRANCH   9  25
ATOM     25  C   UNL     1     -10.436  -2.788  40.239  0.00  0.00    +0.068 C 
ATOM     32  C   UNL     1     -11.777  -2.595  40.935  0.00  0.00    +0.027 C 
ATOM     33  C   UNL     1     -10.496  -2.326  38.788  0.00  0.00    +0.027 C 
ENDBRANCH   9  25
ENDBRANCH  12   6
BRANCH  17  19
ATOM      8  N   UNL     1      -3.175  -7.580  41.256  0.00  0.00    -0.346 N 
ATOM     19  C   UNL     1      -4.218  -7.452  40.376  0.00  0.00    +0.104 A 
ATOM     23  C   UNL     1      -4.005  -6.311  39.633  0.00  0.00    +0.032 A 
ATOM     27  C   UNL     1      -2.299  -6.540  41.086  0.00  0.00    +0.086 A 
ATOM     28  C   UNL     1      -2.791  -5.734  40.082  0.00  0.00    +0.020 A 
ATOM     29  C   UNL     1      -3.008  -8.644  42.222  0.00  0.00    +0.149 C 
ENDBRANCH  17  19
BRANCH  13  16
ATOM      1  O   UNL     1      -8.810  -7.884  39.161  0.00  0.00    -0.274 OA
ATOM      7  N   UNL     1      -8.401 -10.175  39.111  0.00  0.00    -0.302 N 
ATOM     16  C   UNL     1      -8.348  -8.906  39.662  0.00  0.00    +0.234 C 
ATOM     39  H   UNL     1      -7.961 -10.948  39.604  0.00  0.00    +0.150 HD
BRANCH   7  18
ATOM     18  C   UNL     1      -9.025 -10.460  37.840  0.00  0.00    +0.163 C 
BRANCH  18  24
ATOM      4  O   UNL     1      -8.087 -11.615  35.919  0.00  0.00    -0.274 OA
ATOM     11  N   UNL     1      -6.710 -10.268  37.170  0.00  0.00    -0.328 N 
ATOM     24  C   UNL     1      -7.917 -10.868  36.879  0.00  0.00    +0.231 C 
ATOM     42  H   UNL     1      -5.891 -10.443  36.598  0.00  0.00    +0.145 HD
ATOM     43  H   UNL     1      -6.591  -9.634  37.954  0.00  0.00    +0.145 HD
ENDBRANCH  18  24
BRANCH  18  21
ATOM     21  C   UNL     1     -10.079 -11.570  37.945  0.00  0.00    +0.069 C 
BRANCH  21  22
ATOM     10  N   UNL     1     -13.095 -10.432  36.179  0.00  0.00    -0.360 N 
ATOM     22  C   UNL     1     -11.269 -11.336  37.059  0.00  0.00    -0.020 A 
ATOM     26  C   UNL     1     -11.685 -12.147  35.965  0.00  0.00    +0.003 A 
ATOM     30  C   UNL     1     -12.157 -10.289  37.165  0.00  0.00    +0.087 A 
ATOM     31  C   UNL     1     -12.832 -11.558  35.431  0.00  0.00    +0.047 A 
ATOM     34  C   UNL     1     -11.193 -13.330  35.378  0.00  0.00    +0.010 A 
ATOM     35  C   UNL     1     -13.515 -12.095  34.334  0.00  0.00    +0.026 A 
ATOM     36  C   UNL     1     -11.866 -13.877  34.280  0.00  0.00    +0.001 A 
ATOM     37  C   UNL     1     -13.009 -13.267  33.767  0.00  0.00    +0.002 A 
ATOM     41  H   UNL     1     -13.860  -9.795  36.010  0.00  0.00    +0.165 HD
ENDBRANCH  21  22
ENDBRANCH  18  21
ENDBRANCH   7  18
ENDBRANCH  13  16
TORSDOF 8
ENDMDL
