REMARK  Name = 11882857
REMARK  12 active torsions:
REMARK  status: ('A' for Active; 'I' for Inactive)
REMARK    1  A    between atoms: O_3  and  C_16
REMARK    2  A    between atoms: O_4  and  C_21
REMARK    3  A    between atoms: O_7  and  C_38
REMARK    4  A    between atoms: O_7  and  C_39
REMARK    5  A    between atoms: N_9  and  C_27
REMARK    6  A    between atoms: C_11  and  C_19
REMARK    7  A    between atoms: C_13  and  C_21
REMARK    8  A    between atoms: C_13  and  C_22
REMARK    9  A    between atoms: C_14  and  C_24
REMARK   10  A    between atoms: C_24  and  C_25
REMARK   11  A    between atoms: C_27  and  C_29
REMARK   12  A    between atoms: C_28  and  C_30
REMARK                            x       y       z     vdW  Elec       q    Type
REMARK                         _______ _______ _______ _____ _____    ______ ____
ROOT
ATOM      1  S   UNL     1      -0.521   2.798   0.249  0.00  0.00    -0.057 S 
ATOM      6  O   UNL     1       2.825  -0.412  -0.172  0.00  0.00    -0.270 OA
ATOM      8  N   UNL     1      -0.051   0.272  -0.054  0.00  0.00    -0.229 NA
ATOM     10  N   UNL     1       1.867   1.725   0.094  0.00  0.00    -0.261 N 
ATOM     11  C   UNL     1      -3.838  -0.346   0.325  0.00  0.00    -0.019 C 
ATOM     12  C   UNL     1      -4.212   1.062  -0.318  0.00  0.00    +0.011 C 
ATOM     13  C   UNL     1      -5.738   1.462  -0.329  0.00  0.00    +0.021 C 
ATOM     14  C   UNL     1      -2.363  -0.731  -0.155  0.00  0.00    +0.054 C 
ATOM     15  C   UNL     1      -4.819  -1.427  -0.196  0.00  0.00    +0.010 C 
ATOM     16  C   UNL     1      -6.579   0.254  -0.831  0.00  0.00    +0.123 C 
ATOM     17  C   UNL     1      -3.272   2.191   0.199  0.00  0.00    +0.049 C 
ATOM     18  C   UNL     1      -6.286  -1.038  -0.077  0.00  0.00    +0.032 C 
ATOM     19  C   UNL     1      -3.888  -0.333   1.873  0.00  0.00    +0.012 C 
ATOM     20  C   UNL     1      -1.423   0.438  -0.007  0.00  0.00    +0.058 A 
ATOM     22  C   UNL     1      -5.950   2.625  -1.339  0.00  0.00    +0.016 C 
ATOM     23  C   UNL     1      -1.851   1.742   0.132  0.00  0.00    +0.015 A 
ATOM     26  C   UNL     1       0.526   1.447   0.078  0.00  0.00    +0.165 A 
ATOM     28  C   UNL     1       2.918   0.802  -0.029  0.00  0.00    +0.250 C 
ATOM     43  H   UNL     1       2.074   2.716   0.166  0.00  0.00    +0.157 HD
ENDROOT
BRANCH  28  30
ATOM     30  C   UNL     1       4.285   1.387  -0.009  0.00  0.00    +0.037 A 
ATOM     32  C   UNL     1       5.333   0.734  -0.657  0.00  0.00    +0.016 A 
ATOM     33  C   UNL     1       4.519   2.591   0.657  0.00  0.00    +0.016 A 
ATOM     36  C   UNL     1       6.615   1.283  -0.639  0.00  0.00    +0.046 A 
ATOM     37  C   UNL     1       5.801   3.140   0.675  0.00  0.00    +0.046 A 
ATOM     38  C   UNL     1       6.849   2.486   0.028  0.00  0.00    +0.120 A 
BRANCH  38   7
ATOM      7  O   UNL     1       8.099   3.023   0.044  0.00  0.00    -0.495 OA
ATOM     39  C   UNL     1       9.124   2.304  -0.641  0.00  0.00    +0.277 C 
ENDBRANCH  38   7
ENDBRANCH  28  30
BRANCH  16   3
ATOM      3  O   UNL     1      -7.974   0.538  -0.731  0.00  0.00    -0.391 OA
ATOM     40  H   UNL     1      -8.457  -0.223  -1.098  0.00  0.00    +0.210 HD
ENDBRANCH  16   3
BRANCH  13  21
ATOM     21  C   UNL     1      -6.274   1.982   1.023  0.00  0.00    +0.165 C 
BRANCH  21   4
ATOM      4  O   UNL     1      -7.635   2.305   0.852  0.00  0.00    -0.394 OA
ATOM     41  H   UNL     1      -7.963   2.641   1.703  0.00  0.00    +0.209 HD
ENDBRANCH  21   4
ENDBRANCH  13  21
BRANCH  14  24
ATOM     24  C   UNL     1      -1.791  -1.998   0.495  0.00  0.00    +0.106 C 
BRANCH  24  25
ATOM      5  O   UNL     1      -0.432  -2.253  -1.491  0.00  0.00    -0.276 OA
ATOM      9  N   UNL     1      -0.250  -3.804   0.230  0.00  0.00    -0.311 N 
ATOM     25  C   UNL     1      -0.761  -2.669  -0.383  0.00  0.00    +0.214 C 
ATOM     42  H   UNL     1      -0.579  -4.058   1.157  0.00  0.00    +0.149 HD
BRANCH   9  27
ATOM     27  C   UNL     1       0.751  -4.649  -0.381  0.00  0.00    +0.146 C 
BRANCH  27  29
ATOM      2  S   UNL     1       3.227  -3.667  -1.161  0.00  0.00    -0.100 S 
ATOM     29  C   UNL     1       2.115  -4.187   0.033  0.00  0.00    +0.007 A 
ATOM     31  C   UNL     1       2.647  -4.113   1.302  0.00  0.00    +0.013 A 
ATOM     34  C   UNL     1       3.985  -3.622   1.294  0.00  0.00    +0.008 A 
ATOM     35  C   UNL     1       4.424  -3.340   0.019  0.00  0.00    +0.045 A 
ENDBRANCH  27  29
ENDBRANCH   9  27
ENDBRANCH  24  25
ENDBRANCH  14  24
TORSDOF 9
