MODEL 1
REMARK VINA RESULT:      -7.0      0.000      0.000
REMARK  Name = 38030393
REMARK  11 active torsions:
REMARK  status: ('A' for Active; 'I' for Inactive)
REMARK    1  A    between atoms: O_1  and  C_24
REMARK    2  A    between atoms: N_3  and  C_11
REMARK    3  A    between atoms: C_7  and  C_12
REMARK    4  A    between atoms: C_8  and  C_11
REMARK    5  A    between atoms: C_10  and  C_20
REMARK    6  A    between atoms: C_12  and  C_21
REMARK    7  A    between atoms: C_12  and  C_22
REMARK    8  A    between atoms: C_14  and  C_23
REMARK    9  A    between atoms: C_17  and  C_24
REMARK   10  A    between atoms: C_20  and  C_25
REMARK   11  A    between atoms: C_26  and  C_27
REMARK                            x       y       z     vdW  Elec       q    Type
REMARK                         _______ _______ _______ _____ _____    ______ ____
ROOT
ATOM      7  C   UNL     1      14.174  10.518  20.826  0.00  0.00    +0.000 C 
ATOM      8  C   UNL     1      12.768  10.568  20.183  0.00  0.00    +0.029 C 
ATOM      9  C   UNL     1      14.651   9.066  20.961  0.00  0.00    +0.012 C 
ATOM     10  C   UNL     1      14.673   8.302  19.619  0.00  0.00    +0.024 C 
ATOM     13  C   UNL     1      12.637   9.637  19.006  0.00  0.00    -0.023 C 
ATOM     14  C   UNL     1      13.483   8.627  18.731  0.00  0.00    -0.073 C 
ATOM     23  C   UNL     1      13.307   7.811  17.480  0.00  0.00    +0.039 C 
ENDROOT
BRANCH   7  12
ATOM     12  C   UNL     1      15.182  11.363  20.035  0.00  0.00    -0.013 C 
ATOM     21  C   UNL     1      16.567  11.269  20.668  0.00  0.00    +0.007 C 
ATOM     22  C   UNL     1      14.719  12.815  19.962  0.00  0.00    +0.007 C 
ENDBRANCH   7  12
BRANCH   8  11
ATOM     11  C   UNL     1      11.668  10.253  21.202  0.00  0.00    +0.092 C 
BRANCH  11   3
ATOM      3  N   UNL     1      11.656  11.248  22.275  0.00  0.00    -0.302 NA
ATOM     15  C   UNL     1      10.904  10.744  23.432  0.00  0.00    +0.085 C 
ATOM     16  C   UNL     1      11.099  12.518  21.792  0.00  0.00    +0.085 C 
ATOM     17  C   UNL     1      10.387  13.116  24.142  0.00  0.00    +0.017 C 
ATOM     18  C   UNL     1      10.928  11.751  24.584  0.00  0.00    +0.021 C 
ATOM     19  C   UNL     1      11.129  13.585  22.887  0.00  0.00    +0.021 C 
BRANCH  17  24
ATOM     24  C   UNL     1      10.506  14.143  25.266  0.00  0.00    +0.159 C 
BRANCH  24   1
ATOM      1  O   UNL     1      10.501  13.456  26.505  0.00  0.00    -0.395 OA
ATOM     32  H   UNL     1      11.167  13.883  27.071  0.00  0.00    +0.209 HD
ENDBRANCH  24   1
ENDBRANCH  17  24
ENDBRANCH  11   3
ENDBRANCH   8  11
BRANCH  10  20
ATOM     20  C   UNL     1      14.807   6.802  19.912  0.00  0.00    +0.105 C 
BRANCH  20  25
ATOM      2  O   UNL     1      17.111   6.542  20.677  0.00  0.00    -0.420 OA
ATOM      4  N   UNL     1      16.721   5.704  18.640  0.00  0.00    -0.112 NA
ATOM      5  N   UNL     1      18.052   5.489  18.943  0.00  0.00    -0.107 NA
ATOM     25  C   UNL     1      16.210   6.321  19.680  0.00  0.00    +0.218 A 
ATOM     26  C   UNL     1      18.235   5.994  20.141  0.00  0.00    +0.250 A 
BRANCH  26  27
ATOM      6  N   UNL     1      20.514   6.913  22.930  0.00  0.00    -0.263 NA
ATOM     27  C   UNL     1      19.413   6.056  20.955  0.00  0.00    +0.057 A 
ATOM     28  C   UNL     1      20.565   5.362  20.605  0.00  0.00    +0.016 A 
ATOM     29  C   UNL     1      19.439   6.811  22.117  0.00  0.00    +0.124 A 
ATOM     30  C   UNL     1      21.692   5.442  21.417  0.00  0.00    +0.020 A 
ATOM     31  C   UNL     1      21.615   6.224  22.558  0.00  0.00    +0.111 A 
ENDBRANCH  26  27
ENDBRANCH  20  25
ENDBRANCH  10  20
TORSDOF 8
ENDMDL
MODEL 2
REMARK VINA RESULT:      -6.7     27.266     30.502
REMARK  Name = 38030393
REMARK  11 active torsions:
REMARK  status: ('A' for Active; 'I' for Inactive)
REMARK    1  A    between atoms: O_1  and  C_24
REMARK    2  A    between atoms: N_3  and  C_11
REMARK    3  A    between atoms: C_7  and  C_12
REMARK    4  A    between atoms: C_8  and  C_11
REMARK    5  A    between atoms: C_10  and  C_20
REMARK    6  A    between atoms: C_12  and  C_21
REMARK    7  A    between atoms: C_12  and  C_22
REMARK    8  A    between atoms: C_14  and  C_23
REMARK    9  A    between atoms: C_17  and  C_24
REMARK   10  A    between atoms: C_20  and  C_25
REMARK   11  A    between atoms: C_26  and  C_27
REMARK                            x       y       z     vdW  Elec       q    Type
REMARK                         _______ _______ _______ _____ _____    ______ ____
ROOT
ATOM      7  C   UNL     1      -5.453 -10.494  10.731  0.00  0.00    +0.000 C 
ATOM      8  C   UNL     1      -4.676 -10.174   9.433  0.00  0.00    +0.029 C 
ATOM      9  C   UNL     1      -4.535 -11.177  11.753  0.00  0.00    +0.012 C 
ATOM     10  C   UNL     1      -3.280 -10.346  12.098  0.00  0.00    +0.024 C 
ATOM     13  C   UNL     1      -3.313  -9.591   9.704  0.00  0.00    -0.023 C 
ATOM     14  C   UNL     1      -2.678  -9.647  10.889  0.00  0.00    -0.073 C 
ATOM     23  C   UNL     1      -1.356  -8.956  11.074  0.00  0.00    +0.039 C 
ENDROOT
BRANCH   7  12
ATOM     12  C   UNL     1      -6.102  -9.234  11.320  0.00  0.00    -0.013 C 
ATOM     21  C   UNL     1      -6.650  -9.521  12.715  0.00  0.00    +0.007 C 
ATOM     22  C   UNL     1      -7.205  -8.722  10.400  0.00  0.00    +0.007 C 
ENDBRANCH   7  12
BRANCH   8  11
ATOM     11  C   UNL     1      -4.527 -11.412   8.542  0.00  0.00    +0.092 C 
BRANCH  11   3
ATOM      3  N   UNL     1      -5.468 -11.359   7.422  0.00  0.00    -0.302 NA
ATOM     15  C   UNL     1      -4.926 -12.079   6.263  0.00  0.00    +0.085 C 
ATOM     16  C   UNL     1      -5.783  -9.965   7.081  0.00  0.00    +0.085 C 
ATOM     17  C   UNL     1      -6.321 -10.652   4.709  0.00  0.00    +0.017 C 
ATOM     18  C   UNL     1      -5.921 -12.080   5.100  0.00  0.00    +0.021 C 
ATOM     19  C   UNL     1      -6.807  -9.893   5.947  0.00  0.00    +0.021 C 
BRANCH  17  24
ATOM     24  C   UNL     1      -7.388 -10.662   3.617  0.00  0.00    +0.159 C 
BRANCH  24   1
ATOM      1  O   UNL     1      -6.910 -11.431   2.529  0.00  0.00    -0.395 OA
ATOM     32  H   UNL     1      -6.438 -10.824   1.934  0.00  0.00    +0.209 HD
ENDBRANCH  24   1
ENDBRANCH  17  24
ENDBRANCH  11   3
ENDBRANCH   8  11
BRANCH  10  20
ATOM     20  C   UNL     1      -2.277 -11.253  12.824  0.00  0.00    +0.105 C 
BRANCH  20  25
ATOM      2  O   UNL     1      -3.604 -10.996  14.857  0.00  0.00    -0.420 OA
ATOM      4  N   UNL     1      -1.393 -10.992  15.199  0.00  0.00    -0.112 NA
ATOM      5  N   UNL     1      -2.015 -10.840  16.424  0.00  0.00    -0.107 NA
ATOM     25  C   UNL     1      -2.358 -11.079  14.313  0.00  0.00    +0.218 A 
ATOM     26  C   UNL     1      -3.305 -10.848  16.176  0.00  0.00    +0.250 A 
BRANCH  26  27
ATOM      6  N   UNL     1      -6.647  -9.871  17.478  0.00  0.00    -0.263 NA
ATOM     27  C   UNL     1      -4.424 -10.728  17.064  0.00  0.00    +0.057 A 
ATOM     28  C   UNL     1      -4.407 -11.315  18.324  0.00  0.00    +0.016 A 
ATOM     29  C   UNL     1      -5.558 -10.023  16.692  0.00  0.00    +0.124 A 
ATOM     30  C   UNL     1      -5.509 -11.180  19.162  0.00  0.00    +0.020 A 
ATOM     31  C   UNL     1      -6.594 -10.456  18.696  0.00  0.00    +0.111 A 
ENDBRANCH  26  27
ENDBRANCH  20  25
ENDBRANCH  10  20
TORSDOF 8
ENDMDL
MODEL 3
REMARK VINA RESULT:      -6.4     27.382     30.466
REMARK  Name = 38030393
REMARK  11 active torsions:
REMARK  status: ('A' for Active; 'I' for Inactive)
REMARK    1  A    between atoms: O_1  and  C_24
REMARK    2  A    between atoms: N_3  and  C_11
REMARK    3  A    between atoms: C_7  and  C_12
REMARK    4  A    between atoms: C_8  and  C_11
REMARK    5  A    between atoms: C_10  and  C_20
REMARK    6  A    between atoms: C_12  and  C_21
REMARK    7  A    between atoms: C_12  and  C_22
REMARK    8  A    between atoms: C_14  and  C_23
REMARK    9  A    between atoms: C_17  and  C_24
REMARK   10  A    between atoms: C_20  and  C_25
REMARK   11  A    between atoms: C_26  and  C_27
REMARK                            x       y       z     vdW  Elec       q    Type
REMARK                         _______ _______ _______ _____ _____    ______ ____
ROOT
ATOM      7  C   UNL     1      -3.552 -10.664  15.252  0.00  0.00    +0.000 C 
ATOM      8  C   UNL     1      -4.597 -11.587  14.582  0.00  0.00    +0.029 C 
ATOM      9  C   UNL     1      -3.976 -10.325  16.687  0.00  0.00    +0.012 C 
ATOM     10  C   UNL     1      -4.200 -11.572  17.569  0.00  0.00    +0.024 C 
ATOM     13  C   UNL     1      -5.061 -12.693  15.495  0.00  0.00    -0.023 C 
ATOM     14  C   UNL     1      -4.884 -12.710  16.828  0.00  0.00    -0.073 C 
ATOM     23  C   UNL     1      -5.311 -13.906  17.634  0.00  0.00    +0.039 C 
ENDROOT
BRANCH   7  12
ATOM     12  C   UNL     1      -2.151 -11.289  15.219  0.00  0.00    -0.013 C 
ATOM     21  C   UNL     1      -1.106 -10.275  15.676  0.00  0.00    +0.007 C 
ATOM     22  C   UNL     1      -1.829 -11.804  13.820  0.00  0.00    +0.007 C 
ENDBRANCH   7  12
BRANCH   8  11
ATOM     11  C   UNL     1      -5.814 -10.798  14.085  0.00  0.00    +0.092 C 
BRANCH  11   3
ATOM      3  N   UNL     1      -5.558 -10.234  12.759  0.00  0.00    -0.302 NA
ATOM     15  C   UNL     1      -6.766  -9.583  12.237  0.00  0.00    +0.085 C 
ATOM     16  C   UNL     1      -5.077 -11.276  11.842  0.00  0.00    +0.085 C 
ATOM     17  C   UNL     1      -5.965  -9.967   9.869  0.00  0.00    +0.017 C 
ATOM     18  C   UNL     1      -6.501  -8.941  10.874  0.00  0.00    +0.021 C 
ATOM     19  C   UNL     1      -4.754 -10.692  10.465  0.00  0.00    +0.021 C 
BRANCH  17  24
ATOM     24  C   UNL     1      -5.607  -9.301   8.543  0.00  0.00    +0.159 C 
BRANCH  24   1
ATOM      1  O   UNL     1      -4.411  -8.565   8.718  0.00  0.00    -0.395 OA
ATOM     32  H   UNL     1      -3.752  -9.173   9.096  0.00  0.00    +0.209 HD
ENDBRANCH  24   1
ENDBRANCH  17  24
ENDBRANCH  11   3
ENDBRANCH   8  11
BRANCH  10  20
ATOM     20  C   UNL     1      -4.955 -11.146  18.836  0.00  0.00    +0.105 C 
BRANCH  20  25
ATOM      2  O   UNL     1      -6.825 -10.037  17.726  0.00  0.00    -0.420 OA
ATOM      4  N   UNL     1      -7.425 -11.729  19.062  0.00  0.00    -0.112 NA
ATOM      5  N   UNL     1      -8.572 -11.197  18.504  0.00  0.00    -0.107 NA
ATOM     25  C   UNL     1      -6.429 -11.022  18.580  0.00  0.00    +0.218 A 
ATOM     26  C   UNL     1      -8.175 -10.213  17.732  0.00  0.00    +0.250 A 
BRANCH  26  27
ATOM      6  N   UNL     1      -9.671  -8.665  14.701  0.00  0.00    -0.263 NA
ATOM     27  C   UNL     1      -8.928  -9.313  16.909  0.00  0.00    +0.057 A 
ATOM     28  C   UNL     1      -9.628  -8.248  17.466  0.00  0.00    +0.016 A 
ATOM     29  C   UNL     1      -8.981  -9.476  15.534  0.00  0.00    +0.124 A 
ATOM     30  C   UNL     1     -10.350  -7.391  16.641  0.00  0.00    +0.020 A 
ATOM     31  C   UNL     1     -10.340  -7.641  15.278  0.00  0.00    +0.111 A 
ENDBRANCH  26  27
ENDBRANCH  20  25
ENDBRANCH  10  20
TORSDOF 8
ENDMDL
MODEL 4
REMARK VINA RESULT:      -6.4     18.648     23.103
REMARK  Name = 38030393
REMARK  11 active torsions:
REMARK  status: ('A' for Active; 'I' for Inactive)
REMARK    1  A    between atoms: O_1  and  C_24
REMARK    2  A    between atoms: N_3  and  C_11
REMARK    3  A    between atoms: C_7  and  C_12
REMARK    4  A    between atoms: C_8  and  C_11
REMARK    5  A    between atoms: C_10  and  C_20
REMARK    6  A    between atoms: C_12  and  C_21
REMARK    7  A    between atoms: C_12  and  C_22
REMARK    8  A    between atoms: C_14  and  C_23
REMARK    9  A    between atoms: C_17  and  C_24
REMARK   10  A    between atoms: C_20  and  C_25
REMARK   11  A    between atoms: C_26  and  C_27
REMARK                            x       y       z     vdW  Elec       q    Type
REMARK                         _______ _______ _______ _____ _____    ______ ____
ROOT
ATOM      7  C   UNL     1      10.829   4.912  -1.285  0.00  0.00    +0.000 C 
ATOM      8  C   UNL     1      11.824   3.829  -1.762  0.00  0.00    +0.029 C 
ATOM      9  C   UNL     1      10.362   4.619   0.147  0.00  0.00    +0.012 C 
ATOM     10  C   UNL     1      11.523   4.507   1.159  0.00  0.00    +0.024 C 
ATOM     13  C   UNL     1      12.845   3.478  -0.711  0.00  0.00    -0.023 C 
ATOM     14  C   UNL     1      12.735   3.782   0.595  0.00  0.00    -0.073 C 
ATOM     23  C   UNL     1      13.855   3.459   1.545  0.00  0.00    +0.039 C 
ENDROOT
BRANCH   7  12
ATOM     12  C   UNL     1      11.437   6.317  -1.395  0.00  0.00    -0.013 C 
ATOM     21  C   UNL     1      10.399   7.375  -1.030  0.00  0.00    +0.007 C 
ATOM     22  C   UNL     1      11.979   6.555  -2.800  0.00  0.00    +0.007 C 
ENDBRANCH   7  12
BRANCH   8  11
ATOM     11  C   UNL     1      11.100   2.554  -2.210  0.00  0.00    +0.092 C 
BRANCH  11   3
ATOM      3  N   UNL     1      11.072   2.461  -3.670  0.00  0.00    -0.302 NA
ATOM     15  C   UNL     1      12.231   3.152  -4.250  0.00  0.00    +0.085 C 
ATOM     16  C   UNL     1       9.813   3.003  -4.195  0.00  0.00    +0.085 C 
ATOM     17  C   UNL     1      10.944   3.539  -6.392  0.00  0.00    +0.017 C 
ATOM     18  C   UNL     1      12.247   3.019  -5.774  0.00  0.00    +0.021 C 
ATOM     19  C   UNL     1       9.745   2.865  -5.717  0.00  0.00    +0.021 C 
BRANCH  17  24
ATOM     24  C   UNL     1      10.924   3.312  -7.901  0.00  0.00    +0.159 C 
BRANCH  24   1
ATOM      1  O   UNL     1       9.977   2.300  -8.190  0.00  0.00    -0.395 OA
ATOM     32  H   UNL     1       9.200   2.737  -8.580  0.00  0.00    +0.209 HD
ENDBRANCH  24   1
ENDBRANCH  17  24
ENDBRANCH  11   3
ENDBRANCH   8  11
BRANCH  10  20
ATOM     20  C   UNL     1      10.990   3.868   2.447  0.00  0.00    +0.105 C 
BRANCH  20  25
ATOM      2  O   UNL     1      10.378   4.447   4.738  0.00  0.00    -0.420 OA
ATOM      4  N   UNL     1      11.457   6.070   3.640  0.00  0.00    -0.112 NA
ATOM      5  N   UNL     1      11.174   6.530   4.912  0.00  0.00    -0.107 NA
ATOM     25  C   UNL     1      10.974   4.851   3.582  0.00  0.00    +0.218 A 
ATOM     26  C   UNL     1      10.545   5.550   5.518  0.00  0.00    +0.250 A 
BRANCH  26  27
ATOM      6  N   UNL     1       8.943   6.560   8.717  0.00  0.00    -0.263 NA
ATOM     27  C   UNL     1      10.015   5.464   6.847  0.00  0.00    +0.057 A 
ATOM     28  C   UNL     1      10.042   4.267   7.554  0.00  0.00    +0.016 A 
ATOM     29  C   UNL     1       9.460   6.572   7.468  0.00  0.00    +0.124 A 
ATOM     30  C   UNL     1       9.520   4.216   8.843  0.00  0.00    +0.020 A 
ATOM     31  C   UNL     1       8.987   5.379   9.373  0.00  0.00    +0.111 A 
ENDBRANCH  26  27
ENDBRANCH  20  25
ENDBRANCH  10  20
TORSDOF 8
ENDMDL
MODEL 5
REMARK VINA RESULT:      -6.3     27.614     30.300
REMARK  Name = 38030393
REMARK  11 active torsions:
REMARK  status: ('A' for Active; 'I' for Inactive)
REMARK    1  A    between atoms: O_1  and  C_24
REMARK    2  A    between atoms: N_3  and  C_11
REMARK    3  A    between atoms: C_7  and  C_12
REMARK    4  A    between atoms: C_8  and  C_11
REMARK    5  A    between atoms: C_10  and  C_20
REMARK    6  A    between atoms: C_12  and  C_21
REMARK    7  A    between atoms: C_12  and  C_22
REMARK    8  A    between atoms: C_14  and  C_23
REMARK    9  A    between atoms: C_17  and  C_24
REMARK   10  A    between atoms: C_20  and  C_25
REMARK   11  A    between atoms: C_26  and  C_27
REMARK                            x       y       z     vdW  Elec       q    Type
REMARK                         _______ _______ _______ _____ _____    ______ ____
ROOT
ATOM      7  C   UNL     1      -4.167 -11.912  13.776  0.00  0.00    +0.000 C 
ATOM      8  C   UNL     1      -2.919 -11.320  14.471  0.00  0.00    +0.029 C 
ATOM      9  C   UNL     1      -4.741 -10.914  12.761  0.00  0.00    +0.012 C 
ATOM     10  C   UNL     1      -3.718 -10.474  11.691  0.00  0.00    +0.024 C 
ATOM     13  C   UNL     1      -1.988 -10.635  13.503  0.00  0.00    -0.023 C 
ATOM     14  C   UNL     1      -2.322 -10.260  12.255  0.00  0.00    -0.073 C 
ATOM     23  C   UNL     1      -1.289  -9.661  11.342  0.00  0.00    +0.039 C 
ENDROOT
BRANCH   7  12
ATOM     12  C   UNL     1      -3.852 -13.260  13.113  0.00  0.00    -0.013 C 
ATOM     21  C   UNL     1      -5.133 -13.914  12.605  0.00  0.00    +0.007 C 
ATOM     22  C   UNL     1      -3.128 -14.178  14.091  0.00  0.00    +0.007 C 
ENDBRANCH   7  12
BRANCH   8  11
ATOM     11  C   UNL     1      -3.302 -10.338  15.583  0.00  0.00    +0.092 C 
BRANCH  11   3
ATOM      3  N   UNL     1      -4.394 -10.877  16.395  0.00  0.00    -0.302 NA
ATOM     15  C   UNL     1      -5.442  -9.865  16.582  0.00  0.00    +0.085 C 
ATOM     16  C   UNL     1      -3.885 -11.360  17.686  0.00  0.00    +0.085 C 
ATOM     17  C   UNL     1      -6.153 -10.982  18.736  0.00  0.00    +0.017 C 
ATOM     18  C   UNL     1      -6.616 -10.429  17.384  0.00  0.00    +0.021 C 
ATOM     19  C   UNL     1      -5.006 -11.976  18.525  0.00  0.00    +0.021 C 
BRANCH  17  24
ATOM     24  C   UNL     1      -7.312 -11.634  19.488  0.00  0.00    +0.159 C 
BRANCH  24   1
ATOM      1  O   UNL     1      -8.213 -10.619  19.892  0.00  0.00    -0.395 OA
ATOM     32  H   UNL     1      -8.260 -10.647  20.863  0.00  0.00    +0.209 HD
ENDBRANCH  24   1
ENDBRANCH  17  24
ENDBRANCH  11   3
ENDBRANCH   8  11
BRANCH  10  20
ATOM     20  C   UNL     1      -4.267  -9.235  10.970  0.00  0.00    +0.105 C 
BRANCH  20  25
ATOM      2  O   UNL     1      -4.230 -10.652   8.983  0.00  0.00    -0.420 OA
ATOM      4  N   UNL     1      -5.739  -9.002   8.905  0.00  0.00    -0.112 NA
ATOM      5  N   UNL     1      -5.827  -9.718   7.726  0.00  0.00    -0.107 NA
ATOM     25  C   UNL     1      -4.795  -9.582   9.608  0.00  0.00    +0.218 A 
ATOM     26  C   UNL     1      -4.929 -10.671   7.815  0.00  0.00    +0.250 A 
BRANCH  26  27
ATOM      6  N   UNL     1      -3.690 -13.927   6.518  0.00  0.00    -0.263 NA
ATOM     27  C   UNL     1      -4.577 -11.709   6.891  0.00  0.00    +0.057 A 
ATOM     28  C   UNL     1      -4.761 -11.544   5.523  0.00  0.00    +0.016 A 
ATOM     29  C   UNL     1      -4.043 -12.909   7.334  0.00  0.00    +0.124 A 
ATOM     30  C   UNL     1      -4.409 -12.569   4.651  0.00  0.00    +0.020 A 
ATOM     31  C   UNL     1      -3.884 -13.730   5.194  0.00  0.00    +0.111 A 
ENDBRANCH  26  27
ENDBRANCH  20  25
ENDBRANCH  10  20
TORSDOF 8
ENDMDL
MODEL 6
REMARK VINA RESULT:      -6.2     28.090     30.239
REMARK  Name = 38030393
REMARK  11 active torsions:
REMARK  status: ('A' for Active; 'I' for Inactive)
REMARK    1  A    between atoms: O_1  and  C_24
REMARK    2  A    between atoms: N_3  and  C_11
REMARK    3  A    between atoms: C_7  and  C_12
REMARK    4  A    between atoms: C_8  and  C_11
REMARK    5  A    between atoms: C_10  and  C_20
REMARK    6  A    between atoms: C_12  and  C_21
REMARK    7  A    between atoms: C_12  and  C_22
REMARK    8  A    between atoms: C_14  and  C_23
REMARK    9  A    between atoms: C_17  and  C_24
REMARK   10  A    between atoms: C_20  and  C_25
REMARK   11  A    between atoms: C_26  and  C_27
REMARK                            x       y       z     vdW  Elec       q    Type
REMARK                         _______ _______ _______ _____ _____    ______ ____
ROOT
ATOM      7  C   UNL     1      -7.057 -12.040  16.932  0.00  0.00    +0.000 C 
ATOM      8  C   UNL     1      -7.188 -11.721  18.440  0.00  0.00    +0.029 C 
ATOM      9  C   UNL     1      -5.770 -11.428  16.364  0.00  0.00    +0.012 C 
ATOM     10  C   UNL     1      -4.495 -11.893  17.100  0.00  0.00    +0.024 C 
ATOM     13  C   UNL     1      -5.892 -11.907  19.186  0.00  0.00    -0.023 C 
ATOM     14  C   UNL     1      -4.682 -11.998  18.606  0.00  0.00    -0.073 C 
ATOM     23  C   UNL     1      -3.460 -12.269  19.440  0.00  0.00    +0.039 C 
ENDROOT
BRANCH   7  12
ATOM     12  C   UNL     1      -7.116 -13.552  16.673  0.00  0.00    -0.013 C 
ATOM     21  C   UNL     1      -7.218 -13.830  15.177  0.00  0.00    +0.007 C 
ATOM     22  C   UNL     1      -8.291 -14.175  17.420  0.00  0.00    +0.007 C 
ENDBRANCH   7  12
BRANCH   8  11
ATOM     11  C   UNL     1      -7.706 -10.297  18.675  0.00  0.00    +0.092 C 
BRANCH  11   3
ATOM      3  N   UNL     1      -8.927 -10.058  17.905  0.00  0.00    -0.302 NA
ATOM     15  C   UNL     1      -8.856  -8.760  17.221  0.00  0.00    +0.085 C 
ATOM     16  C   UNL     1     -10.108 -10.136  18.775  0.00  0.00    +0.085 C 
ATOM     17  C   UNL     1     -11.381  -8.615  17.209  0.00  0.00    +0.017 C 
ATOM     18  C   UNL     1     -10.103  -8.517  16.368  0.00  0.00    +0.021 C 
ATOM     19  C   UNL     1     -11.397  -9.941  17.976  0.00  0.00    +0.021 C 
BRANCH  17  24
ATOM     24  C   UNL     1     -12.625  -8.472  16.334  0.00  0.00    +0.159 C 
BRANCH  24   1
ATOM      1  O   UNL     1     -12.302  -8.895  15.022  0.00  0.00    -0.395 OA
ATOM     32  H   UNL     1     -11.355  -9.119  15.017  0.00  0.00    +0.209 HD
ENDBRANCH  24   1
ENDBRANCH  17  24
ENDBRANCH  11   3
ENDBRANCH   8  11
BRANCH  10  20
ATOM     20  C   UNL     1      -3.336 -10.968  16.705  0.00  0.00    +0.105 C 
BRANCH  20  25
ATOM      2  O   UNL     1      -3.704 -10.398  14.360  0.00  0.00    -0.420 OA
ATOM      4  N   UNL     1      -2.054 -11.871  14.697  0.00  0.00    -0.112 NA
ATOM      5  N   UNL     1      -2.151 -11.642  13.338  0.00  0.00    -0.107 NA
ATOM     25  C   UNL     1      -2.979 -11.125  15.255  0.00  0.00    +0.218 A 
ATOM     26  C   UNL     1      -3.126 -10.776  13.187  0.00  0.00    +0.250 A 
BRANCH  26  27
ATOM      6  N   UNL     1      -5.597  -9.360  10.798  0.00  0.00    -0.263 NA
ATOM     27  C   UNL     1      -3.666 -10.178  12.001  0.00  0.00    +0.057 A 
ATOM     28  C   UNL     1      -2.846  -9.839  10.931  0.00  0.00    +0.016 A 
ATOM     29  C   UNL     1      -5.022  -9.920  11.885  0.00  0.00    +0.124 A 
ATOM     30  C   UNL     1      -3.400  -9.260   9.794  0.00  0.00    +0.020 A 
ATOM     31  C   UNL     1      -4.768  -9.044   9.778  0.00  0.00    +0.111 A 
ENDBRANCH  26  27
ENDBRANCH  20  25
ENDBRANCH  10  20
TORSDOF 8
ENDMDL
MODEL 7
REMARK VINA RESULT:      -6.2     28.278     30.418
REMARK  Name = 38030393
REMARK  11 active torsions:
REMARK  status: ('A' for Active; 'I' for Inactive)
REMARK    1  A    between atoms: O_1  and  C_24
REMARK    2  A    between atoms: N_3  and  C_11
REMARK    3  A    between atoms: C_7  and  C_12
REMARK    4  A    between atoms: C_8  and  C_11
REMARK    5  A    between atoms: C_10  and  C_20
REMARK    6  A    between atoms: C_12  and  C_21
REMARK    7  A    between atoms: C_12  and  C_22
REMARK    8  A    between atoms: C_14  and  C_23
REMARK    9  A    between atoms: C_17  and  C_24
REMARK   10  A    between atoms: C_20  and  C_25
REMARK   11  A    between atoms: C_26  and  C_27
REMARK                            x       y       z     vdW  Elec       q    Type
REMARK                         _______ _______ _______ _____ _____    ______ ____
ROOT
ATOM      7  C   UNL     1      -9.261  -9.122  15.918  0.00  0.00    +0.000 C 
ATOM      8  C   UNL     1     -10.545  -8.852  16.737  0.00  0.00    +0.029 C 
ATOM      9  C   UNL     1      -8.044  -9.233  16.846  0.00  0.00    +0.012 C 
ATOM     10  C   UNL     1      -8.200 -10.321  17.931  0.00  0.00    +0.024 C 
ATOM     13  C   UNL     1     -10.635  -9.712  17.971  0.00  0.00    -0.023 C 
ATOM     14  C   UNL     1      -9.604 -10.385  18.512  0.00  0.00    -0.073 C 
ATOM     23  C   UNL     1      -9.824 -11.284  19.697  0.00  0.00    +0.039 C 
ENDROOT
BRANCH   7  12
ATOM     12  C   UNL     1      -9.409 -10.374  15.043  0.00  0.00    -0.013 C 
ATOM     21  C   UNL     1      -8.127 -10.625  14.254  0.00  0.00    +0.007 C 
ATOM     22  C   UNL     1     -10.602 -10.231  14.104  0.00  0.00    +0.007 C 
ENDBRANCH   7  12
BRANCH   8  11
ATOM     11  C   UNL     1     -10.660  -7.377  17.140  0.00  0.00    +0.092 C 
BRANCH  11   3
ATOM      3  N   UNL     1     -11.721  -6.715  16.380  0.00  0.00    -0.302 NA
ATOM     15  C   UNL     1     -12.800  -7.664  16.073  0.00  0.00    +0.085 C 
ATOM     16  C   UNL     1     -11.178  -6.114  15.155  0.00  0.00    +0.085 C 
ATOM     17  C   UNL     1     -13.442  -6.295  14.046  0.00  0.00    +0.017 C 
ATOM     18  C   UNL     1     -13.943  -6.975  15.325  0.00  0.00    +0.021 C 
ATOM     19  C   UNL     1     -12.265  -5.372  14.376  0.00  0.00    +0.021 C 
BRANCH  17  24
ATOM     24  C   UNL     1     -14.567  -5.526  13.358  0.00  0.00    +0.159 C 
BRANCH  24   1
ATOM      1  O   UNL     1     -15.717  -5.577  14.182  0.00  0.00    -0.395 OA
ATOM     32  H   UNL     1     -16.270  -6.308  13.858  0.00  0.00    +0.209 HD
ENDBRANCH  24   1
ENDBRANCH  17  24
ENDBRANCH  11   3
ENDBRANCH   8  11
BRANCH  10  20
ATOM     20  C   UNL     1      -7.120 -10.105  18.999  0.00  0.00    +0.105 C 
BRANCH  20  25
ATOM      2  O   UNL     1      -5.326 -10.298  17.356  0.00  0.00    -0.420 OA
ATOM      4  N   UNL     1      -5.014 -11.524  19.201  0.00  0.00    -0.112 NA
ATOM      5  N   UNL     1      -3.932 -11.727  18.365  0.00  0.00    -0.107 NA
ATOM     25  C   UNL     1      -5.802 -10.683  18.572  0.00  0.00    +0.218 A 
ATOM     26  C   UNL     1      -4.156 -10.992  17.301  0.00  0.00    +0.250 A 
BRANCH  26  27
ATOM      6  N   UNL     1      -1.203 -10.492  15.099  0.00  0.00    -0.263 NA
ATOM     27  C   UNL     1      -3.375 -10.811  16.113  0.00  0.00    +0.057 A 
ATOM     28  C   UNL     1      -3.974 -10.775  14.858  0.00  0.00    +0.016 A 
ATOM     29  C   UNL     1      -1.998 -10.666  16.178  0.00  0.00    +0.124 A 
ATOM     30  C   UNL     1      -3.189 -10.598  13.724  0.00  0.00    +0.020 A 
ATOM     31  C   UNL     1      -1.821 -10.463  13.897  0.00  0.00    +0.111 A 
ENDBRANCH  26  27
ENDBRANCH  20  25
ENDBRANCH  10  20
TORSDOF 8
ENDMDL
MODEL 8
REMARK VINA RESULT:      -6.1     27.757     30.686
REMARK  Name = 38030393
REMARK  11 active torsions:
REMARK  status: ('A' for Active; 'I' for Inactive)
REMARK    1  A    between atoms: O_1  and  C_24
REMARK    2  A    between atoms: N_3  and  C_11
REMARK    3  A    between atoms: C_7  and  C_12
REMARK    4  A    between atoms: C_8  and  C_11
REMARK    5  A    between atoms: C_10  and  C_20
REMARK    6  A    between atoms: C_12  and  C_21
REMARK    7  A    between atoms: C_12  and  C_22
REMARK    8  A    between atoms: C_14  and  C_23
REMARK    9  A    between atoms: C_17  and  C_24
REMARK   10  A    between atoms: C_20  and  C_25
REMARK   11  A    between atoms: C_26  and  C_27
REMARK                            x       y       z     vdW  Elec       q    Type
REMARK                         _______ _______ _______ _____ _____    ______ ____
ROOT
ATOM      7  C   UNL     1      -5.081 -11.748  12.408  0.00  0.00    +0.000 C 
ATOM      8  C   UNL     1      -4.196 -11.216  13.560  0.00  0.00    +0.029 C 
ATOM      9  C   UNL     1      -5.130 -10.734  11.257  0.00  0.00    +0.012 C 
ATOM     10  C   UNL     1      -3.736 -10.366  10.706  0.00  0.00    +0.024 C 
ATOM     13  C   UNL     1      -2.914 -10.598  13.067  0.00  0.00    -0.023 C 
ATOM     14  C   UNL     1      -2.685 -10.223  11.795  0.00  0.00    -0.073 C 
ATOM     23  C   UNL     1      -1.335  -9.695  11.392  0.00  0.00    +0.039 C 
ENDROOT
BRANCH   7  12
ATOM     12  C   UNL     1      -4.598 -13.121  11.920  0.00  0.00    -0.013 C 
ATOM     21  C   UNL     1      -5.598 -13.715  10.933  0.00  0.00    +0.007 C 
ATOM     22  C   UNL     1      -4.382 -14.061  13.101  0.00  0.00    +0.007 C 
ENDBRANCH   7  12
BRANCH   8  11
ATOM     11  C   UNL     1      -4.946 -10.199  14.427  0.00  0.00    +0.092 C 
BRANCH  11   3
ATOM      3  N   UNL     1      -5.245 -10.763  15.744  0.00  0.00    -0.302 NA
ATOM     15  C   UNL     1      -6.318 -10.001  16.397  0.00  0.00    +0.085 C 
ATOM     16  C   UNL     1      -4.034 -10.794  16.576  0.00  0.00    +0.085 C 
ATOM     17  C   UNL     1      -5.452 -10.703  18.667  0.00  0.00    +0.017 C 
ATOM     18  C   UNL     1      -6.679 -10.610  17.753  0.00  0.00    +0.021 C 
ATOM     19  C   UNL     1      -4.318 -11.431  17.938  0.00  0.00    +0.021 C 
BRANCH  17  24
ATOM     24  C   UNL     1      -5.798 -11.403  19.979  0.00  0.00    +0.159 C 
BRANCH  24   1
ATOM      1  O   UNL     1      -7.207 -11.439  20.111  0.00  0.00    -0.395 OA
ATOM     32  H   UNL     1      -7.580 -11.008  19.323  0.00  0.00    +0.209 HD
ENDBRANCH  24   1
ENDBRANCH  17  24
ENDBRANCH  11   3
ENDBRANCH   8  11
BRANCH  10  20
ATOM     20  C   UNL     1      -3.870  -9.110   9.836  0.00  0.00    +0.105 C 
BRANCH  20  25
ATOM      2  O   UNL     1      -5.977  -8.342   8.872  0.00  0.00    -0.420 OA
ATOM      4  N   UNL     1      -5.117 -10.151   7.874  0.00  0.00    -0.112 NA
ATOM      5  N   UNL     1      -6.299  -9.830   7.233  0.00  0.00    -0.107 NA
ATOM     25  C   UNL     1      -4.969  -9.257   8.824  0.00  0.00    +0.218 A 
ATOM     26  C   UNL     1      -6.765  -8.768   7.847  0.00  0.00    +0.250 A 
BRANCH  26  27
ATOM      6  N   UNL     1     -10.097  -7.805   6.509  0.00  0.00    -0.263 NA
ATOM     27  C   UNL     1      -7.954  -8.003   7.612  0.00  0.00    +0.057 A 
ATOM     28  C   UNL     1      -8.143  -6.765   8.217  0.00  0.00    +0.016 A 
ATOM     29  C   UNL     1      -8.953  -8.474   6.774  0.00  0.00    +0.124 A 
ATOM     30  C   UNL     1      -9.308  -6.047   7.968  0.00  0.00    +0.020 A 
ATOM     31  C   UNL     1     -10.245  -6.605   7.115  0.00  0.00    +0.111 A 
ENDBRANCH  26  27
ENDBRANCH  20  25
ENDBRANCH  10  20
TORSDOF 8
ENDMDL
MODEL 9
REMARK VINA RESULT:      -6.0     13.107     16.143
REMARK  Name = 38030393
REMARK  11 active torsions:
REMARK  status: ('A' for Active; 'I' for Inactive)
REMARK    1  A    between atoms: O_1  and  C_24
REMARK    2  A    between atoms: N_3  and  C_11
REMARK    3  A    between atoms: C_7  and  C_12
REMARK    4  A    between atoms: C_8  and  C_11
REMARK    5  A    between atoms: C_10  and  C_20
REMARK    6  A    between atoms: C_12  and  C_21
REMARK    7  A    between atoms: C_12  and  C_22
REMARK    8  A    between atoms: C_14  and  C_23
REMARK    9  A    between atoms: C_17  and  C_24
REMARK   10  A    between atoms: C_20  and  C_25
REMARK   11  A    between atoms: C_26  and  C_27
REMARK                            x       y       z     vdW  Elec       q    Type
REMARK                         _______ _______ _______ _____ _____    ______ ____
ROOT
ATOM      7  C   UNL     1      10.232  10.689   6.318  0.00  0.00    +0.000 C 
ATOM      8  C   UNL     1       9.755  10.669   7.789  0.00  0.00    +0.029 C 
ATOM      9  C   UNL     1      11.072   9.443   6.008  0.00  0.00    +0.012 C 
ATOM     10  C   UNL     1      10.329   8.119   6.288  0.00  0.00    +0.024 C 
ATOM     13  C   UNL     1       9.250   9.314   8.214  0.00  0.00    -0.023 C 
ATOM     14  C   UNL     1       9.485   8.167   7.553  0.00  0.00    -0.073 C 
ATOM     23  C   UNL     1       8.860   6.881   8.019  0.00  0.00    +0.039 C 
ENDROOT
BRANCH   7  12
ATOM     12  C   UNL     1       9.049  10.818   5.348  0.00  0.00    -0.013 C 
ATOM     21  C   UNL     1       9.549  10.886   3.908  0.00  0.00    +0.007 C 
ATOM     22  C   UNL     1       8.211  12.045   5.689  0.00  0.00    +0.007 C 
ENDBRANCH   7  12
BRANCH   8  11
ATOM     11  C   UNL     1      10.861  11.120   8.749  0.00  0.00    +0.092 C 
BRANCH  11   3
ATOM      3  N   UNL     1      10.294  11.533  10.033  0.00  0.00    -0.302 NA
ATOM     15  C   UNL     1       9.279  12.576   9.833  0.00  0.00    +0.085 C 
ATOM     16  C   UNL     1      11.355  11.992  10.940  0.00  0.00    +0.085 C 
ATOM     17  C   UNL     1       9.693  13.444  12.172  0.00  0.00    +0.017 C 
ATOM     18  C   UNL     1       8.637  12.982  11.162  0.00  0.00    +0.021 C 
ATOM     19  C   UNL     1      10.785  12.377  12.306  0.00  0.00    +0.021 C 
BRANCH  17  24
ATOM     24  C   UNL     1       9.058  13.752  13.526  0.00  0.00    +0.159 C 
BRANCH  24   1
ATOM      1  O   UNL     1       8.603  12.538  14.095  0.00  0.00    -0.395 OA
ATOM     32  H   UNL     1       8.209  12.756  14.958  0.00  0.00    +0.209 HD
ENDBRANCH  24   1
ENDBRANCH  17  24
ENDBRANCH  11   3
ENDBRANCH   8  11
BRANCH  10  20
ATOM     20  C   UNL     1      11.353   6.976   6.297  0.00  0.00    +0.105 C 
BRANCH  20  25
ATOM      2  O   UNL     1      11.462   5.842   4.138  0.00  0.00    -0.420 OA
ATOM      4  N   UNL     1      10.108   4.858   5.623  0.00  0.00    -0.112 NA
ATOM      5  N   UNL     1      10.074   4.117   4.457  0.00  0.00    -0.107 NA
ATOM     25  C   UNL     1      10.930   5.855   5.392  0.00  0.00    +0.218 A 
ATOM     26  C   UNL     1      10.878   4.727   3.618  0.00  0.00    +0.250 A 
BRANCH  26  27
ATOM      6  N   UNL     1      10.566   4.224  -0.052  0.00  0.00    -0.263 NA
ATOM     27  C   UNL     1      11.231   4.408   2.266  0.00  0.00    +0.057 A 
ATOM     28  C   UNL     1      12.516   3.989   1.939  0.00  0.00    +0.016 A 
ATOM     29  C   UNL     1      10.302   4.508   1.243  0.00  0.00    +0.124 A 
ATOM     30  C   UNL     1      12.827   3.687   0.617  0.00  0.00    +0.020 A 
ATOM     31  C   UNL     1      11.826   3.820  -0.331  0.00  0.00    +0.111 A 
ENDBRANCH  26  27
ENDBRANCH  20  25
ENDBRANCH  10  20
TORSDOF 8
ENDMDL
MODEL 10
REMARK VINA RESULT:      -6.0     30.758     32.411
REMARK  Name = 38030393
REMARK  11 active torsions:
REMARK  status: ('A' for Active; 'I' for Inactive)
REMARK    1  A    between atoms: O_1  and  C_24
REMARK    2  A    between atoms: N_3  and  C_11
REMARK    3  A    between atoms: C_7  and  C_12
REMARK    4  A    between atoms: C_8  and  C_11
REMARK    5  A    between atoms: C_10  and  C_20
REMARK    6  A    between atoms: C_12  and  C_21
REMARK    7  A    between atoms: C_12  and  C_22
REMARK    8  A    between atoms: C_14  and  C_23
REMARK    9  A    between atoms: C_17  and  C_24
REMARK   10  A    between atoms: C_20  and  C_25
REMARK   11  A    between atoms: C_26  and  C_27
REMARK                            x       y       z     vdW  Elec       q    Type
REMARK                         _______ _______ _______ _____ _____    ______ ____
ROOT
ATOM      7  C   UNL     1      -9.755  -6.496   7.004  0.00  0.00    +0.000 C 
ATOM      8  C   UNL     1     -10.712  -6.401   8.216  0.00  0.00    +0.029 C 
ATOM      9  C   UNL     1      -8.328  -6.811   7.469  0.00  0.00    +0.012 C 
ATOM     10  C   UNL     1      -8.228  -8.106   8.304  0.00  0.00    +0.024 C 
ATOM     13  C   UNL     1     -10.489  -7.506   9.216  0.00  0.00    -0.023 C 
ATOM     14  C   UNL     1      -9.394  -8.285   9.265  0.00  0.00    -0.073 C 
ATOM     23  C   UNL     1      -9.312  -9.417  10.251  0.00  0.00    +0.039 C 
ENDROOT
BRANCH   7  12
ATOM     12  C   UNL     1     -10.248  -7.530   5.982  0.00  0.00    -0.013 C 
ATOM     21  C   UNL     1      -9.365  -7.509   4.738  0.00  0.00    +0.007 C 
ATOM     22  C   UNL     1     -11.705  -7.265   5.616  0.00  0.00    +0.007 C 
ENDBRANCH   7  12
BRANCH   8  11
ATOM     11  C   UNL     1     -10.595  -5.047   8.924  0.00  0.00    +0.092 C 
BRANCH  11   3
ATOM      3  N   UNL     1     -11.746  -4.820   9.799  0.00  0.00    -0.302 NA
ATOM     15  C   UNL     1     -12.980  -4.729   9.008  0.00  0.00    +0.085 C 
ATOM     16  C   UNL     1     -11.545  -3.613  10.610  0.00  0.00    +0.085 C 
ATOM     17  C   UNL     1     -14.047  -3.316  10.814  0.00  0.00    +0.017 C 
ATOM     18  C   UNL     1     -14.201  -4.545   9.912  0.00  0.00    +0.021 C 
ATOM     19  C   UNL     1     -12.716  -3.391  11.569  0.00  0.00    +0.021 C 
BRANCH  17  24
ATOM     24  C   UNL     1     -15.221  -3.196  11.782  0.00  0.00    +0.159 C 
BRANCH  24   1
ATOM      1  O   UNL     1     -14.718  -2.846  13.058  0.00  0.00    -0.395 OA
ATOM     32  H   UNL     1     -13.945  -2.272  12.914  0.00  0.00    +0.209 HD
ENDBRANCH  24   1
ENDBRANCH  17  24
ENDBRANCH  11   3
ENDBRANCH   8  11
BRANCH  10  20
ATOM     20  C   UNL     1      -6.865  -8.131   9.008  0.00  0.00    +0.105 C 
BRANCH  20  25
ATOM      2  O   UNL     1      -6.172  -9.602   7.188  0.00  0.00    -0.420 OA
ATOM      4  N   UNL     1      -5.081  -9.946   9.111  0.00  0.00    -0.112 NA
ATOM      5  N   UNL     1      -4.593 -10.840   8.177  0.00  0.00    -0.107 NA
ATOM     25  C   UNL     1      -6.001  -9.244   8.491  0.00  0.00    +0.218 A 
ATOM     26  C   UNL     1      -5.257 -10.603   7.070  0.00  0.00    +0.250 A 
BRANCH  26  27
ATOM      6  N   UNL     1      -6.123 -11.560   3.584  0.00  0.00    -0.263 NA
ATOM     27  C   UNL     1      -5.170 -11.223   5.780  0.00  0.00    +0.057 A 
ATOM     28  C   UNL     1      -4.108 -12.060   5.457  0.00  0.00    +0.016 A 
ATOM     29  C   UNL     1      -6.143 -11.008   4.817  0.00  0.00    +0.124 A 
ATOM     30  C   UNL     1      -4.052 -12.647   4.197  0.00  0.00    +0.020 A 
ATOM     31  C   UNL     1      -5.074 -12.367   3.305  0.00  0.00    +0.111 A 
ENDBRANCH  26  27
ENDBRANCH  20  25
ENDBRANCH  10  20
TORSDOF 8
ENDMDL
