REMARK  Name = 40777337
REMARK  9 active torsions:
REMARK  status: ('A' for Active; 'I' for Inactive)
REMARK    1  A    between atoms: N_7  and  C_23
REMARK    2  A    between atoms: N_7  and  C_24
REMARK    3  A    between atoms: N_7  and  C_25
REMARK    4  A    between atoms: C_8  and  C_12
REMARK    5  A    between atoms: C_9  and  C_14
REMARK    6  A    between atoms: C_12  and  C_15
REMARK    7  A    between atoms: C_14  and  C_16
REMARK    8  A    between atoms: C_22  and  C_23
REMARK    9  A    between atoms: C_24  and  C_26
REMARK                            x       y       z     vdW  Elec       q    Type
REMARK                         _______ _______ _______ _____ _____    ______ ____
ROOT
ATOM      4  N   UNL     1       0.365   2.378  -0.090  0.00  0.00    -0.316 NA
ATOM      8  C   UNL     1       2.319   0.438  -1.151  0.00  0.00    +0.004 C 
ATOM      9  C   UNL     1       0.888   0.034  -0.724  0.00  0.00    +0.012 C 
ATOM     10  C   UNL     1       2.332   1.931  -1.517  0.00  0.00    +0.019 C 
ATOM     11  C   UNL     1       0.327   0.983   0.349  0.00  0.00    +0.085 C 
ATOM     13  C   UNL     1       1.723   2.806  -0.422  0.00  0.00    +0.081 C 
ATOM     32  H   UNL     1      -0.006   2.975   0.648  0.00  0.00    +0.122 HD
ENDROOT
BRANCH   8  12
ATOM     12  C   UNL     1       3.394   0.124  -0.103  0.00  0.00    +0.100 C 
BRANCH  12  15
ATOM      1  O   UNL     1       4.846   0.243  -1.974  0.00  0.00    -0.276 OA
ATOM      2  O   UNL     1       8.089   0.024   1.753  0.00  0.00    -0.377 OA
ATOM      5  N   UNL     1       5.833  -0.203   0.079  0.00  0.00    -0.297 N 
ATOM     15  C   UNL     1       4.751   0.060  -0.758  0.00  0.00    +0.216 C 
ATOM     17  C   UNL     1       7.186  -0.277  -0.474  0.00  0.00    +0.136 C 
ATOM     18  C   UNL     1       5.744  -0.549   1.502  0.00  0.00    +0.136 C 
ATOM     20  C   UNL     1       8.161   0.495   0.405  0.00  0.00    +0.179 C 
ATOM     21  C   UNL     1       6.783   0.230   2.300  0.00  0.00    +0.179 C 
ENDBRANCH  12  15
ENDBRANCH   8  12
BRANCH   9  14
ATOM     14  C   UNL     1       0.788  -1.420  -0.261  0.00  0.00    +0.064 C 
BRANCH  14  16
ATOM      3  O   UNL     1      -2.354  -2.868  -1.257  0.00  0.00    -0.358 OA
ATOM      6  N   UNL     1      -1.031  -2.518  -1.496  0.00  0.00    -0.083 NA
ATOM     16  C   UNL     1      -0.619  -1.932  -0.367  0.00  0.00    +0.084 A 
ATOM     19  C   UNL     1      -1.630  -1.884   0.608  0.00  0.00    +0.072 A 
ATOM     22  C   UNL     1      -2.700  -2.485  -0.001  0.00  0.00    +0.151 A 
BRANCH  22  23
ATOM     23  C   UNL     1      -4.075  -2.781   0.419  0.00  0.00    +0.161 C 
BRANCH  23   7
ATOM      7  N   UNL     1      -4.834  -1.580   0.806  0.00  0.00    -0.294 NA
ATOM     25  C   UNL     1      -5.974  -1.954   1.636  0.00  0.00    +0.105 C 
BRANCH   7  24
ATOM     24  C   UNL     1      -5.273  -0.859  -0.384  0.00  0.00    +0.119 C 
BRANCH  24  26
ATOM     26  C   UNL     1      -5.567   0.587  -0.088  0.00  0.00    -0.033 A 
ATOM     27  C   UNL     1      -6.850   0.972   0.300  0.00  0.00    +0.005 A 
ATOM     28  C   UNL     1      -4.556   1.542  -0.200  0.00  0.00    +0.005 A 
ATOM     29  C   UNL     1      -7.123   2.312   0.575  0.00  0.00    +0.000 A 
ATOM     30  C   UNL     1      -4.829   2.882   0.075  0.00  0.00    +0.000 A 
ATOM     31  C   UNL     1      -6.113   3.267   0.462  0.00  0.00    +0.000 A 
ENDBRANCH  24  26
ENDBRANCH   7  24
ENDBRANCH  23   7
ENDBRANCH  22  23
ENDBRANCH  14  16
ENDBRANCH   9  14
TORSDOF 8
