MODEL 1
REMARK VINA RESULT:      -7.0      0.000      0.000
REMARK  Name = 11886486
REMARK  7 active torsions:
REMARK  status: ('A' for Active; 'I' for Inactive)
REMARK    1  A    between atoms: O_3  and  C_10
REMARK    2  A    between atoms: O_3  and  C_13
REMARK    3  A    between atoms: O_5  and  C_25
REMARK    4  A    between atoms: O_5  and  C_27
REMARK    5  A    between atoms: N_6  and  C_9
REMARK    6  A    between atoms: C_13  and  C_15
REMARK    7  A    between atoms: C_14  and  C_16
REMARK                            x       y       z     vdW  Elec       q    Type
REMARK                         _______ _______ _______ _____ _____    ______ ____
ROOT
ATOM      1  O   UNL     1      12.969   8.288  21.805  0.00  0.00    -0.369 OA
ATOM      2  O   UNL     1      12.569   7.951  18.784  0.00  0.00    -0.369 OA
ATOM      7  C   UNL     1      13.760   8.146  19.574  0.00  0.00    +0.172 C 
ATOM      8  C   UNL     1      13.392   9.098  20.695  0.00  0.00    +0.180 C 
ATOM      9  C   UNL     1      14.123   6.866  20.290  0.00  0.00    +0.130 C 
ATOM     10  C   UNL     1      12.244   9.875  20.099  0.00  0.00    +0.175 C 
ATOM     11  C   UNL     1      13.211   6.905  21.503  0.00  0.00    +0.185 C 
ATOM     12  C   UNL     1      11.539   8.823  19.274  0.00  0.00    +0.194 C 
ENDROOT
BRANCH   9   6
ATOM      4  O   UNL     1      16.330   5.869  18.747  0.00  0.00    -0.270 OA
ATOM      6  N   UNL     1      15.513   6.859  20.678  0.00  0.00    -0.304 N 
ATOM     14  C   UNL     1      16.513   6.354  19.860  0.00  0.00    +0.244 C 
ATOM     28  H   UNL     1      15.724   7.139  21.630  0.00  0.00    +0.149 HD
BRANCH  14  16
ATOM     16  C   UNL     1      17.891   6.396  20.415  0.00  0.00    +0.037 A 
ATOM     19  C   UNL     1      18.827   5.498  19.945  0.00  0.00    +0.016 A 
ATOM     20  C   UNL     1      18.190   7.331  21.384  0.00  0.00    +0.016 A 
ATOM     21  C   UNL     1      20.119   5.538  20.466  0.00  0.00    +0.046 A 
ATOM     22  C   UNL     1      19.483   7.370  21.906  0.00  0.00    +0.046 A 
ATOM     25  C   UNL     1      20.448   6.475  21.447  0.00  0.00    +0.120 A 
BRANCH  25   5
ATOM      5  O   UNL     1      21.709   6.512  21.957  0.00  0.00    -0.495 OA
ATOM     27  C   UNL     1      21.884   6.038  23.291  0.00  0.00    +0.277 C 
ENDBRANCH  25   5
ENDBRANCH  14  16
ENDBRANCH   9   6
BRANCH  10   3
ATOM      3  O   UNL     1      11.392  10.450  21.065  0.00  0.00    -0.367 OA
BRANCH   3  13
ATOM     13  C   UNL     1      11.725  11.811  21.328  0.00  0.00    +0.195 C 
BRANCH  13  15
ATOM     15  C   UNL     1      11.339  12.146  22.738  0.00  0.00    -0.022 A 
ATOM     17  C   UNL     1      10.724  13.363  23.013  0.00  0.00    +0.006 A 
ATOM     18  C   UNL     1      11.599  11.237  23.758  0.00  0.00    +0.006 A 
ATOM     23  C   UNL     1      10.366  13.675  24.324  0.00  0.00    +0.000 A 
ATOM     24  C   UNL     1      11.240  11.549  25.069  0.00  0.00    +0.000 A 
ATOM     26  C   UNL     1      10.624  12.767  25.352  0.00  0.00    +0.000 A 
ENDBRANCH  13  15
ENDBRANCH   3  13
ENDBRANCH  10   3
TORSDOF 6
ENDMDL
MODEL 2
REMARK VINA RESULT:      -6.9     26.788     29.792
REMARK  Name = 11886486
REMARK  7 active torsions:
REMARK  status: ('A' for Active; 'I' for Inactive)
REMARK    1  A    between atoms: O_3  and  C_10
REMARK    2  A    between atoms: O_3  and  C_13
REMARK    3  A    between atoms: O_5  and  C_25
REMARK    4  A    between atoms: O_5  and  C_27
REMARK    5  A    between atoms: N_6  and  C_9
REMARK    6  A    between atoms: C_13  and  C_15
REMARK    7  A    between atoms: C_14  and  C_16
REMARK                            x       y       z     vdW  Elec       q    Type
REMARK                         _______ _______ _______ _____ _____    ______ ____
ROOT
ATOM      1  O   UNL     1      -3.981 -12.041  14.422  0.00  0.00    -0.369 OA
ATOM      2  O   UNL     1      -2.059 -10.922  16.532  0.00  0.00    -0.369 OA
ATOM      7  C   UNL     1      -3.419 -10.575  16.199  0.00  0.00    +0.172 C 
ATOM      8  C   UNL     1      -3.547 -10.698  14.693  0.00  0.00    +0.180 C 
ATOM      9  C   UNL     1      -4.368 -11.624  16.730  0.00  0.00    +0.130 C 
ATOM     10  C   UNL     1      -2.131 -10.463  14.226  0.00  0.00    +0.175 C 
ATOM     11  C   UNL     1      -4.291 -12.699  15.660  0.00  0.00    +0.185 C 
ATOM     12  C   UNL     1      -1.319 -11.121  15.318  0.00  0.00    +0.194 C 
ENDROOT
BRANCH   9   6
ATOM      4  O   UNL     1      -5.611 -10.652  19.128  0.00  0.00    -0.270 OA
ATOM      6  N   UNL     1      -5.707 -11.103  16.856  0.00  0.00    -0.304 N 
ATOM     14  C   UNL     1      -6.222 -10.654  18.063  0.00  0.00    +0.244 C 
ATOM     28  H   UNL     1      -6.307 -11.181  16.042  0.00  0.00    +0.149 HD
BRANCH  14  16
ATOM     16  C   UNL     1      -7.627 -10.171  18.032  0.00  0.00    +0.037 A 
ATOM     19  C   UNL     1      -7.948  -9.105  17.215  0.00  0.00    +0.016 A 
ATOM     20  C   UNL     1      -8.565 -10.802  18.821  0.00  0.00    +0.016 A 
ATOM     21  C   UNL     1      -9.265  -8.652  17.186  0.00  0.00    +0.046 A 
ATOM     22  C   UNL     1      -9.884 -10.348  18.792  0.00  0.00    +0.046 A 
ATOM     25  C   UNL     1     -10.235  -9.273  17.975  0.00  0.00    +0.120 A 
BRANCH  25   5
ATOM      5  O   UNL     1     -11.521  -8.830  17.948  0.00  0.00    -0.495 OA
ATOM     27  C   UNL     1     -12.007  -8.322  16.706  0.00  0.00    +0.277 C 
ENDBRANCH  25   5
ENDBRANCH  14  16
ENDBRANCH   9   6
BRANCH  10   3
ATOM      3  O   UNL     1      -1.858 -11.014  12.956  0.00  0.00    -0.367 OA
BRANCH   3  13
ATOM     13  C   UNL     1      -1.723 -10.009  11.955  0.00  0.00    +0.195 C 
BRANCH  13  15
ATOM     15  C   UNL     1      -2.776 -10.217  10.907  0.00  0.00    -0.022 A 
ATOM     17  C   UNL     1      -3.321 -11.483  10.720  0.00  0.00    +0.006 A 
ATOM     18  C   UNL     1      -3.197  -9.142  10.131  0.00  0.00    +0.006 A 
ATOM     23  C   UNL     1      -4.300 -11.676   9.745  0.00  0.00    +0.000 A 
ATOM     24  C   UNL     1      -4.175  -9.335   9.156  0.00  0.00    +0.000 A 
ATOM     26  C   UNL     1      -4.727 -10.602   8.963  0.00  0.00    +0.000 A 
ENDBRANCH  13  15
ENDBRANCH   3  13
ENDBRANCH  10   3
TORSDOF 6
ENDMDL
MODEL 3
REMARK VINA RESULT:      -6.6     28.233     31.617
REMARK  Name = 11886486
REMARK  7 active torsions:
REMARK  status: ('A' for Active; 'I' for Inactive)
REMARK    1  A    between atoms: O_3  and  C_10
REMARK    2  A    between atoms: O_3  and  C_13
REMARK    3  A    between atoms: O_5  and  C_25
REMARK    4  A    between atoms: O_5  and  C_27
REMARK    5  A    between atoms: N_6  and  C_9
REMARK    6  A    between atoms: C_13  and  C_15
REMARK    7  A    between atoms: C_14  and  C_16
REMARK                            x       y       z     vdW  Elec       q    Type
REMARK                         _______ _______ _______ _____ _____    ______ ____
ROOT
ATOM      1  O   UNL     1     -16.875   4.864  25.318  0.00  0.00    -0.369 OA
ATOM      2  O   UNL     1     -16.696   2.219  23.778  0.00  0.00    -0.369 OA
ATOM      7  C   UNL     1     -16.121   2.634  25.034  0.00  0.00    +0.172 C 
ATOM      8  C   UNL     1     -15.742   4.094  24.883  0.00  0.00    +0.180 C 
ATOM      9  C   UNL     1     -17.180   2.644  26.112  0.00  0.00    +0.130 C 
ATOM     10  C   UNL     1     -15.518   4.220  23.395  0.00  0.00    +0.175 C 
ATOM     11  C   UNL     1     -17.858   3.984  25.884  0.00  0.00    +0.185 C 
ATOM     12  C   UNL     1     -16.571   3.294  22.833  0.00  0.00    +0.194 C 
ENDROOT
BRANCH   9   6
ATOM      4  O   UNL     1     -17.170   0.368  27.862  0.00  0.00    -0.270 OA
ATOM      6  N   UNL     1     -16.590   2.571  27.426  0.00  0.00    -0.304 N 
ATOM     14  C   UNL     1     -16.635   1.421  28.201  0.00  0.00    +0.244 C 
ATOM     28  H   UNL     1     -16.233   3.437  27.817  0.00  0.00    +0.149 HD
BRANCH  14  16
ATOM     16  C   UNL     1     -16.004   1.515  29.543  0.00  0.00    +0.037 A 
ATOM     19  C   UNL     1     -15.590   0.357  30.168  0.00  0.00    +0.016 A 
ATOM     20  C   UNL     1     -15.852   2.758  30.122  0.00  0.00    +0.016 A 
ATOM     21  C   UNL     1     -14.998   0.445  31.426  0.00  0.00    +0.046 A 
ATOM     22  C   UNL     1     -15.260   2.846  31.382  0.00  0.00    +0.046 A 
ATOM     25  C   UNL     1     -14.832   1.691  32.035  0.00  0.00    +0.120 A 
BRANCH  25   5
ATOM      5  O   UNL     1     -14.255   1.777  33.264  0.00  0.00    -0.495 OA
ATOM     27  C   UNL     1     -14.534   2.947  34.031  0.00  0.00    +0.277 C 
ENDBRANCH  25   5
ENDBRANCH  14  16
ENDBRANCH   9   6
BRANCH  10   3
ATOM      3  O   UNL     1     -15.660   5.538  22.915  0.00  0.00    -0.367 OA
BRANCH   3  13
ATOM     13  C   UNL     1     -15.615   5.596  21.492  0.00  0.00    +0.195 C 
BRANCH  13  15
ATOM     15  C   UNL     1     -14.368   6.314  21.069  0.00  0.00    -0.022 A 
ATOM     17  C   UNL     1     -14.460   7.413  20.221  0.00  0.00    +0.006 A 
ATOM     18  C   UNL     1     -13.131   5.875  21.529  0.00  0.00    +0.006 A 
ATOM     23  C   UNL     1     -13.300   8.081  19.828  0.00  0.00    +0.000 A 
ATOM     24  C   UNL     1     -11.971   6.543  21.136  0.00  0.00    +0.000 A 
ATOM     26  C   UNL     1     -12.056   7.646  20.286  0.00  0.00    +0.000 A 
ENDBRANCH  13  15
ENDBRANCH   3  13
ENDBRANCH  10   3
TORSDOF 6
ENDMDL
MODEL 4
REMARK VINA RESULT:      -6.5      3.525     11.181
REMARK  Name = 11886486
REMARK  7 active torsions:
REMARK  status: ('A' for Active; 'I' for Inactive)
REMARK    1  A    between atoms: O_3  and  C_10
REMARK    2  A    between atoms: O_3  and  C_13
REMARK    3  A    between atoms: O_5  and  C_25
REMARK    4  A    between atoms: O_5  and  C_27
REMARK    5  A    between atoms: N_6  and  C_9
REMARK    6  A    between atoms: C_13  and  C_15
REMARK    7  A    between atoms: C_14  and  C_16
REMARK                            x       y       z     vdW  Elec       q    Type
REMARK                         _______ _______ _______ _____ _____    ______ ____
ROOT
ATOM      1  O   UNL     1      20.591   5.403  22.281  0.00  0.00    -0.369 OA
ATOM      2  O   UNL     1      21.689   7.777  20.682  0.00  0.00    -0.369 OA
ATOM      7  C   UNL     1      20.420   7.092  20.626  0.00  0.00    +0.172 C 
ATOM      8  C   UNL     1      20.705   5.622  20.865  0.00  0.00    +0.180 C 
ATOM      9  C   UNL     1      19.562   7.491  21.803  0.00  0.00    +0.130 C 
ATOM     10  C   UNL     1      22.131   5.485  20.390  0.00  0.00    +0.175 C 
ATOM     11  C   UNL     1      20.092   6.595  22.908  0.00  0.00    +0.185 C 
ATOM     12  C   UNL     1      22.737   6.804  20.809  0.00  0.00    +0.194 C 
ENDROOT
BRANCH   9   6
ATOM      4  O   UNL     1      17.524   9.450  21.298  0.00  0.00    -0.270 OA
ATOM      6  N   UNL     1      18.166   7.235  21.544  0.00  0.00    -0.304 N 
ATOM     14  C   UNL     1      17.252   8.252  21.309  0.00  0.00    +0.244 C 
ATOM     28  H   UNL     1      17.848   6.277  21.651  0.00  0.00    +0.149 HD
BRANCH  14  16
ATOM     16  C   UNL     1      15.847   7.825  21.084  0.00  0.00    +0.037 A 
ATOM     19  C   UNL     1      14.900   8.114  22.045  0.00  0.00    +0.016 A 
ATOM     20  C   UNL     1      15.534   7.150  19.922  0.00  0.00    +0.016 A 
ATOM     21  C   UNL     1      13.582   7.713  21.834  0.00  0.00    +0.046 A 
ATOM     22  C   UNL     1      14.215   6.749  19.711  0.00  0.00    +0.046 A 
ATOM     25  C   UNL     1      13.238   7.030  20.666  0.00  0.00    +0.120 A 
BRANCH  25   5
ATOM      5  O   UNL     1      11.952   6.637  20.460  0.00  0.00    -0.495 OA
ATOM     27  C   UNL     1      11.051   6.761  21.560  0.00  0.00    +0.277 C 
ENDBRANCH  25   5
ENDBRANCH  14  16
ENDBRANCH   9   6
BRANCH  10   3
ATOM      3  O   UNL     1      22.809   4.386  20.957  0.00  0.00    -0.367 OA
BRANCH   3  13
ATOM     13  C   UNL     1      24.079   4.169  20.347  0.00  0.00    +0.195 C 
BRANCH  13  15
ATOM     15  C   UNL     1      24.722   2.964  20.968  0.00  0.00    -0.022 A 
ATOM     17  C   UNL     1      24.016   1.768  21.041  0.00  0.00    +0.006 A 
ATOM     18  C   UNL     1      26.018   3.055  21.464  0.00  0.00    +0.006 A 
ATOM     23  C   UNL     1      24.614   0.648  21.619  0.00  0.00    +0.000 A 
ATOM     24  C   UNL     1      26.616   1.935  22.041  0.00  0.00    +0.000 A 
ATOM     26  C   UNL     1      25.914   0.731  22.119  0.00  0.00    +0.000 A 
ENDBRANCH  13  15
ENDBRANCH   3  13
ENDBRANCH  10   3
TORSDOF 6
ENDMDL
MODEL 5
REMARK VINA RESULT:      -6.5     27.539     30.931
REMARK  Name = 11886486
REMARK  7 active torsions:
REMARK  status: ('A' for Active; 'I' for Inactive)
REMARK    1  A    between atoms: O_3  and  C_10
REMARK    2  A    between atoms: O_3  and  C_13
REMARK    3  A    between atoms: O_5  and  C_25
REMARK    4  A    between atoms: O_5  and  C_27
REMARK    5  A    between atoms: N_6  and  C_9
REMARK    6  A    between atoms: C_13  and  C_15
REMARK    7  A    between atoms: C_14  and  C_16
REMARK                            x       y       z     vdW  Elec       q    Type
REMARK                         _______ _______ _______ _____ _____    ______ ____
ROOT
ATOM      1  O   UNL     1     -15.979   2.566  24.292  0.00  0.00    -0.369 OA
ATOM      2  O   UNL     1     -18.010   4.715  25.103  0.00  0.00    -0.369 OA
ATOM      7  C   UNL     1     -16.688   4.816  24.534  0.00  0.00    +0.172 C 
ATOM      8  C   UNL     1     -15.858   3.709  25.155  0.00  0.00    +0.180 C 
ATOM      9  C   UNL     1     -16.726   4.460  23.066  0.00  0.00    +0.130 C 
ATOM     10  C   UNL     1     -16.549   3.488  26.479  0.00  0.00    +0.175 C 
ATOM     11  C   UNL     1     -16.687   2.942  23.101  0.00  0.00    +0.185 C 
ATOM     12  C   UNL     1     -18.001   3.704  26.122  0.00  0.00    +0.194 C 
ENDROOT
BRANCH   9   6
ATOM      4  O   UNL     1     -16.513   7.068  21.885  0.00  0.00    -0.270 OA
ATOM      6  N   UNL     1     -15.585   4.999  22.367  0.00  0.00    -0.304 N 
ATOM     14  C   UNL     1     -15.575   6.277  21.829  0.00  0.00    +0.244 C 
ATOM     28  H   UNL     1     -14.817   4.361  22.182  0.00  0.00    +0.149 HD
BRANCH  14  16
ATOM     16  C   UNL     1     -14.333   6.675  21.117  0.00  0.00    +0.037 A 
ATOM     19  C   UNL     1     -14.430   7.497  20.014  0.00  0.00    +0.016 A 
ATOM     20  C   UNL     1     -13.121   6.207  21.582  0.00  0.00    +0.016 A 
ATOM     21  C   UNL     1     -13.265   7.870  19.346  0.00  0.00    +0.046 A 
ATOM     22  C   UNL     1     -11.955   6.579  20.913  0.00  0.00    +0.046 A 
ATOM     25  C   UNL     1     -12.025   7.411  19.796  0.00  0.00    +0.120 A 
BRANCH  25   5
ATOM      5  O   UNL     1     -10.888   7.773  19.143  0.00  0.00    -0.495 OA
ATOM     27  C   UNL     1     -10.965   7.896  17.724  0.00  0.00    +0.277 C 
ENDBRANCH  25   5
ENDBRANCH  14  16
ENDBRANCH   9   6
BRANCH  10   3
ATOM      3  O   UNL     1     -16.321   2.207  27.024  0.00  0.00    -0.367 OA
BRANCH   3  13
ATOM     13  C   UNL     1     -16.913   2.063  28.312  0.00  0.00    +0.195 C 
BRANCH  13  15
ATOM     15  C   UNL     1     -15.833   1.806  29.322  0.00  0.00    -0.022 A 
ATOM     17  C   UNL     1     -14.938   2.820  29.645  0.00  0.00    +0.006 A 
ATOM     18  C   UNL     1     -15.737   0.557  29.925  0.00  0.00    +0.006 A 
ATOM     23  C   UNL     1     -13.933   2.581  30.583  0.00  0.00    +0.000 A 
ATOM     24  C   UNL     1     -14.733   0.318  30.863  0.00  0.00    +0.000 A 
ATOM     26  C   UNL     1     -13.831   1.330  31.192  0.00  0.00    +0.000 A 
ENDBRANCH  13  15
ENDBRANCH   3  13
ENDBRANCH  10   3
TORSDOF 6
ENDMDL
MODEL 6
REMARK VINA RESULT:      -6.4     27.910     30.506
REMARK  Name = 11886486
REMARK  7 active torsions:
REMARK  status: ('A' for Active; 'I' for Inactive)
REMARK    1  A    between atoms: O_3  and  C_10
REMARK    2  A    between atoms: O_3  and  C_13
REMARK    3  A    between atoms: O_5  and  C_25
REMARK    4  A    between atoms: O_5  and  C_27
REMARK    5  A    between atoms: N_6  and  C_9
REMARK    6  A    between atoms: C_13  and  C_15
REMARK    7  A    between atoms: C_14  and  C_16
REMARK                            x       y       z     vdW  Elec       q    Type
REMARK                         _______ _______ _______ _____ _____    ______ ____
ROOT
ATOM      1  O   UNL     1      -9.586  -7.970   9.294  0.00  0.00    -0.369 OA
ATOM      2  O   UNL     1      -8.785  -7.365   6.398  0.00  0.00    -0.369 OA
ATOM      7  C   UNL     1      -7.992  -7.576   7.584  0.00  0.00    +0.172 C 
ATOM      8  C   UNL     1      -8.748  -6.945   8.736  0.00  0.00    +0.180 C 
ATOM      9  C   UNL     1      -7.962  -9.046   7.933  0.00  0.00    +0.130 C 
ATOM     10  C   UNL     1      -9.559  -5.874   8.046  0.00  0.00    +0.175 C 
ATOM     11  C   UNL     1      -9.274  -9.228   8.676  0.00  0.00    +0.185 C 
ATOM     12  C   UNL     1      -9.908  -6.534   6.732  0.00  0.00    +0.194 C 
ENDROOT
BRANCH   9   6
ATOM      4  O   UNL     1      -5.391  -9.993   7.072  0.00  0.00    -0.270 OA
ATOM      6  N   UNL     1      -6.834  -9.361   8.775  0.00  0.00    -0.304 N 
ATOM     14  C   UNL     1      -5.626  -9.814   8.265  0.00  0.00    +0.244 C 
ATOM     28  H   UNL     1      -6.992  -9.347   9.777  0.00  0.00    +0.149 HD
BRANCH  14  16
ATOM     16  C   UNL     1      -4.570 -10.119   9.265  0.00  0.00    +0.037 A 
ATOM     19  C   UNL     1      -4.465 -11.405   9.753  0.00  0.00    +0.016 A 
ATOM     20  C   UNL     1      -3.729  -9.105   9.675  0.00  0.00    +0.016 A 
ATOM     21  C   UNL     1      -3.475 -11.691  10.692  0.00  0.00    +0.046 A 
ATOM     22  C   UNL     1      -2.738  -9.391  10.615  0.00  0.00    +0.046 A 
ATOM     25  C   UNL     1      -2.610 -10.684  11.123  0.00  0.00    +0.120 A 
BRANCH  25   5
ATOM      5  O   UNL     1      -1.645 -10.962  12.040  0.00  0.00    -0.495 OA
ATOM     27  C   UNL     1      -1.906 -12.026  12.955  0.00  0.00    +0.277 C 
ENDBRANCH  25   5
ENDBRANCH  14  16
ENDBRANCH   9   6
BRANCH  10   3
ATOM      3  O   UNL     1     -10.707  -5.486   8.766  0.00  0.00    -0.367 OA
BRANCH   3  13
ATOM     13  C   UNL     1     -10.700  -4.095   9.073  0.00  0.00    +0.195 C 
BRANCH  13  15
ATOM     15  C   UNL     1     -11.985  -3.738   9.761  0.00  0.00    -0.022 A 
ATOM     17  C   UNL     1     -12.034  -3.697  11.150  0.00  0.00    +0.006 A 
ATOM     18  C   UNL     1     -13.115  -3.450   9.002  0.00  0.00    +0.006 A 
ATOM     23  C   UNL     1     -13.229  -3.366  11.789  0.00  0.00    +0.000 A 
ATOM     24  C   UNL     1     -14.310  -3.118   9.641  0.00  0.00    +0.000 A 
ATOM     26  C   UNL     1     -14.367  -3.076  11.035  0.00  0.00    +0.000 A 
ENDBRANCH  13  15
ENDBRANCH   3  13
ENDBRANCH  10   3
TORSDOF 6
ENDMDL
MODEL 7
REMARK VINA RESULT:      -6.4     27.186     30.670
REMARK  Name = 11886486
REMARK  7 active torsions:
REMARK  status: ('A' for Active; 'I' for Inactive)
REMARK    1  A    between atoms: O_3  and  C_10
REMARK    2  A    between atoms: O_3  and  C_13
REMARK    3  A    between atoms: O_5  and  C_25
REMARK    4  A    between atoms: O_5  and  C_27
REMARK    5  A    between atoms: N_6  and  C_9
REMARK    6  A    between atoms: C_13  and  C_15
REMARK    7  A    between atoms: C_14  and  C_16
REMARK                            x       y       z     vdW  Elec       q    Type
REMARK                         _______ _______ _______ _____ _____    ______ ____
ROOT
ATOM      1  O   UNL     1      -6.832 -11.439  16.480  0.00  0.00    -0.369 OA
ATOM      2  O   UNL     1      -6.422 -10.797  19.450  0.00  0.00    -0.369 OA
ATOM      7  C   UNL     1      -7.032 -10.040  18.384  0.00  0.00    +0.172 C 
ATOM      8  C   UNL     1      -6.222 -10.313  17.132  0.00  0.00    +0.180 C 
ATOM      9  C   UNL     1      -8.397 -10.604  18.063  0.00  0.00    +0.130 C 
ATOM     10  C   UNL     1      -4.864 -10.660  17.693  0.00  0.00    +0.175 C 
ATOM     11  C   UNL     1      -8.058 -11.771  17.152  0.00  0.00    +0.185 C 
ATOM     12  C   UNL     1      -5.220 -11.408  18.957  0.00  0.00    +0.194 C 
ENDROOT
BRANCH   9   6
ATOM      4  O   UNL     1     -10.906  -9.545  18.972  0.00  0.00    -0.270 OA
ATOM      6  N   UNL     1      -9.218  -9.630  17.385  0.00  0.00    -0.304 N 
ATOM     14  C   UNL     1     -10.421  -9.177  17.906  0.00  0.00    +0.244 C 
ATOM     28  H   UNL     1      -8.937  -9.368  16.446  0.00  0.00    +0.149 HD
BRANCH  14  16
ATOM     16  C   UNL     1     -11.161  -8.193  17.073  0.00  0.00    +0.037 A 
ATOM     19  C   UNL     1     -10.513  -7.047  16.661  0.00  0.00    +0.016 A 
ATOM     20  C   UNL     1     -12.474  -8.457  16.740  0.00  0.00    +0.016 A 
ATOM     21  C   UNL     1     -11.208  -6.124  15.881  0.00  0.00    +0.046 A 
ATOM     22  C   UNL     1     -13.169  -7.533  15.959  0.00  0.00    +0.046 A 
ATOM     25  C   UNL     1     -12.537  -6.367  15.529  0.00  0.00    +0.120 A 
BRANCH  25   5
ATOM      5  O   UNL     1     -13.215  -5.466  14.769  0.00  0.00    -0.495 OA
ATOM     27  C   UNL     1     -12.529  -4.917  13.645  0.00  0.00    +0.277 C 
ENDBRANCH  25   5
ENDBRANCH  14  16
ENDBRANCH   9   6
BRANCH  10   3
ATOM      3  O   UNL     1      -4.077 -11.439  16.819  0.00  0.00    -0.367 OA
BRANCH   3  13
ATOM     13  C   UNL     1      -2.939 -10.724  16.345  0.00  0.00    +0.195 C 
BRANCH  13  15
ATOM     15  C   UNL     1      -2.961 -10.705  14.845  0.00  0.00    -0.022 A 
ATOM     17  C   UNL     1      -1.827 -10.309  14.144  0.00  0.00    +0.006 A 
ATOM     18  C   UNL     1      -4.116 -11.084  14.169  0.00  0.00    +0.006 A 
ATOM     23  C   UNL     1      -1.849 -10.291  12.750  0.00  0.00    +0.000 A 
ATOM     24  C   UNL     1      -4.138 -11.067  12.775  0.00  0.00    +0.000 A 
ATOM     26  C   UNL     1      -3.004 -10.670  12.065  0.00  0.00    +0.000 A 
ENDBRANCH  13  15
ENDBRANCH   3  13
ENDBRANCH  10   3
TORSDOF 6
ENDMDL
MODEL 8
REMARK VINA RESULT:      -6.3     30.294     32.227
REMARK  Name = 11886486
REMARK  7 active torsions:
REMARK  status: ('A' for Active; 'I' for Inactive)
REMARK    1  A    between atoms: O_3  and  C_10
REMARK    2  A    between atoms: O_3  and  C_13
REMARK    3  A    between atoms: O_5  and  C_25
REMARK    4  A    between atoms: O_5  and  C_27
REMARK    5  A    between atoms: N_6  and  C_9
REMARK    6  A    between atoms: C_13  and  C_15
REMARK    7  A    between atoms: C_14  and  C_16
REMARK                            x       y       z     vdW  Elec       q    Type
REMARK                         _______ _______ _______ _____ _____    ______ ____
ROOT
ATOM      1  O   UNL     1     -13.652   3.703  31.571  0.00  0.00    -0.369 OA
ATOM      2  O   UNL     1     -14.936   1.052  32.422  0.00  0.00    -0.369 OA
ATOM      7  C   UNL     1     -15.313   2.017  31.418  0.00  0.00    +0.172 C 
ATOM      8  C   UNL     1     -14.992   3.387  31.984  0.00  0.00    +0.180 C 
ATOM      9  C   UNL     1     -14.404   1.900  30.217  0.00  0.00    +0.130 C 
ATOM     10  C   UNL     1     -15.077   3.152  33.473  0.00  0.00    +0.175 C 
ATOM     11  C   UNL     1     -13.189   2.701  30.651  0.00  0.00    +0.185 C 
ATOM     12  C   UNL     1     -14.529   1.750  33.608  0.00  0.00    +0.194 C 
ENDROOT
BRANCH   9   6
ATOM      4  O   UNL     1     -16.234   0.593  28.432  0.00  0.00    -0.270 OA
ATOM      6  N   UNL     1     -15.015   2.469  29.041  0.00  0.00    -0.304 N 
ATOM     14  C   UNL     1     -15.892   1.756  28.237  0.00  0.00    +0.244 C 
ATOM     28  H   UNL     1     -14.690   3.386  28.754  0.00  0.00    +0.149 HD
BRANCH  14  16
ATOM     16  C   UNL     1     -16.416   2.476  27.047  0.00  0.00    +0.037 A 
ATOM     19  C   UNL     1     -16.514   3.852  27.089  0.00  0.00    +0.016 A 
ATOM     20  C   UNL     1     -16.790   1.746  25.938  0.00  0.00    +0.016 A 
ATOM     21  C   UNL     1     -17.006   4.527  25.973  0.00  0.00    +0.046 A 
ATOM     22  C   UNL     1     -17.282   2.421  24.821  0.00  0.00    +0.046 A 
ATOM     25  C   UNL     1     -17.391   3.812  24.838  0.00  0.00    +0.120 A 
BRANCH  25   5
ATOM      5  O   UNL     1     -17.872   4.470  23.749  0.00  0.00    -0.495 OA
ATOM     27  C   UNL     1     -17.152   4.317  22.527  0.00  0.00    +0.277 C 
ENDBRANCH  25   5
ENDBRANCH  14  16
ENDBRANCH   9   6
BRANCH  10   3
ATOM      3  O   UNL     1     -14.342   4.085  34.232  0.00  0.00    -0.367 OA
BRANCH   3  13
ATOM     13  C   UNL     1     -15.051   5.308  34.409  0.00  0.00    +0.195 C 
BRANCH  13  15
ATOM     15  C   UNL     1     -14.123   6.456  34.140  0.00  0.00    -0.022 A 
ATOM     17  C   UNL     1     -13.437   7.048  35.195  0.00  0.00    +0.006 A 
ATOM     18  C   UNL     1     -13.958   6.918  32.839  0.00  0.00    +0.006 A 
ATOM     23  C   UNL     1     -12.575   8.116  34.945  0.00  0.00    +0.000 A 
ATOM     24  C   UNL     1     -13.095   7.985  32.589  0.00  0.00    +0.000 A 
ATOM     26  C   UNL     1     -12.404   8.584  33.642  0.00  0.00    +0.000 A 
ENDBRANCH  13  15
ENDBRANCH   3  13
ENDBRANCH  10   3
TORSDOF 6
ENDMDL
MODEL 9
REMARK VINA RESULT:      -6.3     27.872     30.470
REMARK  Name = 11886486
REMARK  7 active torsions:
REMARK  status: ('A' for Active; 'I' for Inactive)
REMARK    1  A    between atoms: O_3  and  C_10
REMARK    2  A    between atoms: O_3  and  C_13
REMARK    3  A    between atoms: O_5  and  C_25
REMARK    4  A    between atoms: O_5  and  C_27
REMARK    5  A    between atoms: N_6  and  C_9
REMARK    6  A    between atoms: C_13  and  C_15
REMARK    7  A    between atoms: C_14  and  C_16
REMARK                            x       y       z     vdW  Elec       q    Type
REMARK                         _______ _______ _______ _____ _____    ______ ____
ROOT
ATOM      1  O   UNL     1      -5.922 -11.535  14.462  0.00  0.00    -0.369 OA
ATOM      2  O   UNL     1      -4.165 -10.416  16.712  0.00  0.00    -0.369 OA
ATOM      7  C   UNL     1      -5.234  -9.820  15.949  0.00  0.00    +0.172 C 
ATOM      8  C   UNL     1      -5.111 -10.350  14.533  0.00  0.00    +0.180 C 
ATOM      9  C   UNL     1      -6.568 -10.351  16.420  0.00  0.00    +0.130 C 
ATOM     10  C   UNL     1      -3.640 -10.673  14.433  0.00  0.00    +0.175 C 
ATOM     11  C   UNL     1      -6.667 -11.675  15.683  0.00  0.00    +0.185 C 
ATOM     12  C   UNL     1      -3.325 -11.170  15.825  0.00  0.00    +0.194 C 
ENDROOT
BRANCH   9   6
ATOM      4  O   UNL     1      -9.030  -9.959  17.844  0.00  0.00    -0.270 OA
ATOM      6  N   UNL     1      -7.643  -9.463  16.052  0.00  0.00    -0.304 N 
ATOM     14  C   UNL     1      -8.800  -9.340  16.808  0.00  0.00    +0.244 C 
ATOM     28  H   UNL     1      -7.573  -9.007  15.148  0.00  0.00    +0.149 HD
BRANCH  14  16
ATOM     16  C   UNL     1      -9.826  -8.403  16.281  0.00  0.00    +0.037 A 
ATOM     19  C   UNL     1     -10.324  -8.605  15.010  0.00  0.00    +0.016 A 
ATOM     20  C   UNL     1     -10.246  -7.359  17.078  0.00  0.00    +0.016 A 
ATOM     21  C   UNL     1     -11.285  -7.725  14.515  0.00  0.00    +0.046 A 
ATOM     22  C   UNL     1     -11.208  -6.478  16.583  0.00  0.00    +0.046 A 
ATOM     25  C   UNL     1     -11.728  -6.660  15.302  0.00  0.00    +0.120 A 
BRANCH  25   5
ATOM      5  O   UNL     1     -12.665  -5.801  14.819  0.00  0.00    -0.495 OA
ATOM     27  C   UNL     1     -12.318  -5.047  13.659  0.00  0.00    +0.277 C 
ENDBRANCH  25   5
ENDBRANCH  14  16
ENDBRANCH   9   6
BRANCH  10   3
ATOM      3  O   UNL     1      -3.341 -11.634  13.445  0.00  0.00    -0.367 OA
BRANCH   3  13
ATOM     13  C   UNL     1      -2.393 -11.150  12.498  0.00  0.00    +0.195 C 
BRANCH  13  15
ATOM     15  C   UNL     1      -3.106 -10.799  11.226  0.00  0.00    -0.022 A 
ATOM     17  C   UNL     1      -3.044  -9.498  10.738  0.00  0.00    +0.006 A 
ATOM     18  C   UNL     1      -3.823 -11.778  10.546  0.00  0.00    +0.006 A 
ATOM     23  C   UNL     1      -3.708  -9.172   9.555  0.00  0.00    +0.000 A 
ATOM     24  C   UNL     1      -4.486 -11.452   9.363  0.00  0.00    +0.000 A 
ATOM     26  C   UNL     1      -4.429 -10.149   8.868  0.00  0.00    +0.000 A 
ENDBRANCH  13  15
ENDBRANCH   3  13
ENDBRANCH  10   3
TORSDOF 6
ENDMDL
MODEL 10
REMARK VINA RESULT:      -6.2     27.655     30.131
REMARK  Name = 11886486
REMARK  7 active torsions:
REMARK  status: ('A' for Active; 'I' for Inactive)
REMARK    1  A    between atoms: O_3  and  C_10
REMARK    2  A    between atoms: O_3  and  C_13
REMARK    3  A    between atoms: O_5  and  C_25
REMARK    4  A    between atoms: O_5  and  C_27
REMARK    5  A    between atoms: N_6  and  C_9
REMARK    6  A    between atoms: C_13  and  C_15
REMARK    7  A    between atoms: C_14  and  C_16
REMARK                            x       y       z     vdW  Elec       q    Type
REMARK                         _______ _______ _______ _____ _____    ______ ____
ROOT
ATOM      1  O   UNL     1      -9.986  -7.082  16.282  0.00  0.00    -0.369 OA
ATOM      2  O   UNL     1     -11.890  -9.475  16.063  0.00  0.00    -0.369 OA
ATOM      7  C   UNL     1     -10.527  -9.296  15.626  0.00  0.00    +0.172 C 
ATOM      8  C   UNL     1     -10.403  -7.862  15.149  0.00  0.00    +0.180 C 
ATOM      9  C   UNL     1      -9.589  -9.366  16.809  0.00  0.00    +0.130 C 
ATOM     10  C   UNL     1     -11.818  -7.534  14.735  0.00  0.00    +0.175 C 
ATOM     11  C   UNL     1      -9.680  -7.961  17.377  0.00  0.00    +0.185 C 
ATOM     12  C   UNL     1     -12.634  -8.285  15.761  0.00  0.00    +0.194 C 
ENDROOT
BRANCH   9   6
ATOM      4  O   UNL     1      -7.442 -10.274  18.485  0.00  0.00    -0.270 OA
ATOM      6  N   UNL     1      -8.243  -9.677  16.393  0.00  0.00    -0.304 N 
ATOM     14  C   UNL     1      -7.270 -10.112  17.280  0.00  0.00    +0.244 C 
ATOM     28  H   UNL     1      -7.998  -9.457  15.433  0.00  0.00    +0.149 HD
BRANCH  14  16
ATOM     16  C   UNL     1      -5.926 -10.366  16.698  0.00  0.00    +0.037 A 
ATOM     19  C   UNL     1      -5.758 -10.255  15.333  0.00  0.00    +0.016 A 
ATOM     20  C   UNL     1      -4.889 -10.707  17.542  0.00  0.00    +0.016 A 
ATOM     21  C   UNL     1      -4.498 -10.494  14.788  0.00  0.00    +0.046 A 
ATOM     22  C   UNL     1      -3.628 -10.946  16.996  0.00  0.00    +0.046 A 
ATOM     25  C   UNL     1      -3.431 -10.839  15.620  0.00  0.00    +0.120 A 
BRANCH  25   5
ATOM      5  O   UNL     1      -2.201 -11.074  15.088  0.00  0.00    -0.495 OA
ATOM     27  C   UNL     1      -1.093 -10.416  15.700  0.00  0.00    +0.277 C 
ENDBRANCH  25   5
ENDBRANCH  14  16
ENDBRANCH   9   6
BRANCH  10   3
ATOM      3  O   UNL     1     -12.099  -6.152  14.741  0.00  0.00    -0.367 OA
BRANCH   3  13
ATOM     13  C   UNL     1     -13.481  -5.888  14.517  0.00  0.00    +0.195 C 
BRANCH  13  15
ATOM     15  C   UNL     1     -13.616  -4.901  13.395  0.00  0.00    -0.022 A 
ATOM     17  C   UNL     1     -12.476  -4.430  12.752  0.00  0.00    +0.006 A 
ATOM     18  C   UNL     1     -14.879  -4.467  13.007  0.00  0.00    +0.006 A 
ATOM     23  C   UNL     1     -12.602  -3.512  11.709  0.00  0.00    +0.000 A 
ATOM     24  C   UNL     1     -15.005  -3.550  11.964  0.00  0.00    +0.000 A 
ATOM     26  C   UNL     1     -13.866  -3.073  11.315  0.00  0.00    +0.000 A 
ENDBRANCH  13  15
ENDBRANCH   3  13
ENDBRANCH  10   3
TORSDOF 6
ENDMDL
