MODEL 1
REMARK VINA RESULT:      -6.7      0.000      0.000
REMARK  Name = 38030827
REMARK  15 active torsions:
REMARK  status: ('A' for Active; 'I' for Inactive)
REMARK    1  A    between atoms: O_2  and  C_30
REMARK    2  A    between atoms: O_2  and  C_31
REMARK    3  A    between atoms: N_3  and  C_14
REMARK    4  A    between atoms: N_3  and  C_20
REMARK    5  A    between atoms: N_3  and  C_21
REMARK    6  A    between atoms: C_7  and  C_11
REMARK    7  A    between atoms: C_8  and  C_14
REMARK    8  A    between atoms: C_10  and  C_15
REMARK    9  A    between atoms: C_11  and  C_16
REMARK   10  A    between atoms: C_11  and  C_17
REMARK   11  A    between atoms: C_12  and  C_18
REMARK   12  A    between atoms: C_15  and  C_19
REMARK   13  A    between atoms: C_20  and  C_22
REMARK   14  A    between atoms: C_22  and  C_24
REMARK   15  A    between atoms: C_23  and  C_25
REMARK                            x       y       z     vdW  Elec       q    Type
REMARK                         _______ _______ _______ _____ _____    ______ ____
ROOT
ATOM      7  C   UNL     1      -5.490 -10.550  10.766  0.00  0.00    +0.000 C 
ATOM      8  C   UNL     1      -4.724 -10.200   9.469  0.00  0.00    +0.029 C 
ATOM      9  C   UNL     1      -4.561 -11.253  11.765  0.00  0.00    +0.012 C 
ATOM     10  C   UNL     1      -3.305 -10.429  12.118  0.00  0.00    +0.024 C 
ATOM     12  C   UNL     1      -2.714  -9.702  10.919  0.00  0.00    -0.073 C 
ATOM     13  C   UNL     1      -3.359  -9.621   9.741  0.00  0.00    -0.023 C 
ATOM     18  C   UNL     1      -1.391  -9.013  11.107  0.00  0.00    +0.039 C 
ENDROOT
BRANCH   7  11
ATOM     11  C   UNL     1      -6.134  -9.304  11.389  0.00  0.00    -0.013 C 
ATOM     16  C   UNL     1      -7.235  -8.765  10.483  0.00  0.00    +0.007 C 
ATOM     17  C   UNL     1      -6.684  -9.626  12.775  0.00  0.00    +0.007 C 
ENDBRANCH   7  11
BRANCH   8  14
ATOM     14  C   UNL     1      -4.582 -11.418   8.550  0.00  0.00    +0.092 C 
BRANCH  14   3
ATOM      3  N   UNL     1      -4.746 -11.033   7.159  0.00  0.00    -0.304 NA
ATOM     21  C   UNL     1      -5.840 -10.069   7.011  0.00  0.00    +0.104 C 
BRANCH   3  20
ATOM     20  C   UNL     1      -4.993 -12.209   6.319  0.00  0.00    +0.099 C 
BRANCH  20  22
ATOM     22  C   UNL     1      -4.237 -12.086   4.999  0.00  0.00    +0.134 C 
BRANCH  22  24
ATOM      6  N   UNL     1      -5.894 -12.118   2.958  0.00  0.00    -0.197 NA
ATOM     24  C   UNL     1      -5.163 -12.102   3.859  0.00  0.00    +0.064 C 
ENDBRANCH  22  24
ENDBRANCH  20  22
ENDBRANCH   3  20
ENDBRANCH  14   3
ENDBRANCH   8  14
BRANCH  10  15
ATOM     15  C   UNL     1      -2.295 -11.349  12.815  0.00  0.00    +0.105 C 
BRANCH  15  19
ATOM      1  O   UNL     1      -3.511 -11.176  14.923  0.00  0.00    -0.420 OA
ATOM      4  N   UNL     1      -1.296 -10.932  15.120  0.00  0.00    -0.112 NA
ATOM      5  N   UNL     1      -1.853 -10.811  16.380  0.00  0.00    -0.107 NA
ATOM     19  C   UNL     1      -2.300 -11.143  14.302  0.00  0.00    +0.218 A 
ATOM     23  C   UNL     1      -3.147 -10.961  16.217  0.00  0.00    +0.248 A 
BRANCH  23  25
ATOM     25  C   UNL     1      -4.216 -10.932  17.173  0.00  0.00    +0.039 A 
ATOM     26  C   UNL     1      -5.391 -10.238  16.885  0.00  0.00    +0.017 A 
ATOM     27  C   UNL     1      -4.080 -11.599  18.390  0.00  0.00    +0.017 A 
ATOM     28  C   UNL     1      -6.430 -10.209  17.815  0.00  0.00    +0.046 A 
ATOM     29  C   UNL     1      -5.120 -11.571  19.321  0.00  0.00    +0.046 A 
ATOM     30  C   UNL     1      -6.294 -10.876  19.032  0.00  0.00    +0.120 A 
BRANCH  30   2
ATOM      2  O   UNL     1      -7.310 -10.852  19.938  0.00  0.00    -0.495 OA
ATOM     31  C   UNL     1      -8.609 -11.207  19.468  0.00  0.00    +0.277 C 
ENDBRANCH  30   2
ENDBRANCH  23  25
ENDBRANCH  15  19
ENDBRANCH  10  15
TORSDOF 10
ENDMDL
MODEL 2
REMARK VINA RESULT:      -6.7      1.046      1.793
REMARK  Name = 38030827
REMARK  15 active torsions:
REMARK  status: ('A' for Active; 'I' for Inactive)
REMARK    1  A    between atoms: O_2  and  C_30
REMARK    2  A    between atoms: O_2  and  C_31
REMARK    3  A    between atoms: N_3  and  C_14
REMARK    4  A    between atoms: N_3  and  C_20
REMARK    5  A    between atoms: N_3  and  C_21
REMARK    6  A    between atoms: C_7  and  C_11
REMARK    7  A    between atoms: C_8  and  C_14
REMARK    8  A    between atoms: C_10  and  C_15
REMARK    9  A    between atoms: C_11  and  C_16
REMARK   10  A    between atoms: C_11  and  C_17
REMARK   11  A    between atoms: C_12  and  C_18
REMARK   12  A    between atoms: C_15  and  C_19
REMARK   13  A    between atoms: C_20  and  C_22
REMARK   14  A    between atoms: C_22  and  C_24
REMARK   15  A    between atoms: C_23  and  C_25
REMARK                            x       y       z     vdW  Elec       q    Type
REMARK                         _______ _______ _______ _____ _____    ______ ____
ROOT
ATOM      7  C   UNL     1      -5.421 -10.569  10.846  0.00  0.00    +0.000 C 
ATOM      8  C   UNL     1      -4.668 -10.227   9.539  0.00  0.00    +0.029 C 
ATOM      9  C   UNL     1      -4.480 -11.257  11.845  0.00  0.00    +0.012 C 
ATOM     10  C   UNL     1      -3.226 -10.421  12.180  0.00  0.00    +0.024 C 
ATOM     12  C   UNL     1      -2.650  -9.702  10.969  0.00  0.00    -0.073 C 
ATOM     13  C   UNL     1      -3.304  -9.636   9.795  0.00  0.00    -0.023 C 
ATOM     18  C   UNL     1      -1.330  -9.002  11.140  0.00  0.00    +0.039 C 
ENDROOT
BRANCH   7  11
ATOM     11  C   UNL     1      -6.069  -9.321  11.462  0.00  0.00    -0.013 C 
ATOM     16  C   UNL     1      -7.197  -8.812  10.571  0.00  0.00    +0.007 C 
ATOM     17  C   UNL     1      -6.583  -9.627  12.865  0.00  0.00    +0.007 C 
ENDBRANCH   7  11
BRANCH   8  14
ATOM     14  C   UNL     1      -4.525 -11.452   8.631  0.00  0.00    +0.092 C 
BRANCH  14   3
ATOM      3  N   UNL     1      -5.312 -11.289   7.421  0.00  0.00    -0.304 NA
ATOM     21  C   UNL     1      -4.551 -11.718   6.244  0.00  0.00    +0.104 C 
BRANCH   3  20
ATOM     20  C   UNL     1      -5.742  -9.897   7.263  0.00  0.00    +0.099 C 
BRANCH  20  22
ATOM     22  C   UNL     1      -7.226  -9.836   6.913  0.00  0.00    +0.134 C 
BRANCH  22  24
ATOM      6  N   UNL     1      -8.043  -7.347   6.692  0.00  0.00    -0.197 NA
ATOM     24  C   UNL     1      -7.681  -8.445   6.789  0.00  0.00    +0.064 C 
ENDBRANCH  22  24
ENDBRANCH  20  22
ENDBRANCH   3  20
ENDBRANCH  14   3
ENDBRANCH   8  14
BRANCH  10  15
ATOM     15  C   UNL     1      -2.205 -11.328  12.877  0.00  0.00    +0.105 C 
BRANCH  15  19
ATOM      1  O   UNL     1      -3.445 -11.171  14.973  0.00  0.00    -0.420 OA
ATOM      4  N   UNL     1      -1.232 -10.933  15.197  0.00  0.00    -0.112 NA
ATOM      5  N   UNL     1      -1.803 -10.822  16.451  0.00  0.00    -0.107 NA
ATOM     19  C   UNL     1      -2.227 -11.135  14.366  0.00  0.00    +0.218 A 
ATOM     23  C   UNL     1      -3.095 -10.968  16.272  0.00  0.00    +0.248 A 
BRANCH  23  25
ATOM     25  C   UNL     1      -4.174 -10.946  17.216  0.00  0.00    +0.039 A 
ATOM     26  C   UNL     1      -5.346 -10.250  16.920  0.00  0.00    +0.017 A 
ATOM     27  C   UNL     1      -4.052 -11.620  18.431  0.00  0.00    +0.017 A 
ATOM     28  C   UNL     1      -6.396 -10.228  17.838  0.00  0.00    +0.046 A 
ATOM     29  C   UNL     1      -5.101 -11.599  19.350  0.00  0.00    +0.046 A 
ATOM     30  C   UNL     1      -6.273 -10.903  19.053  0.00  0.00    +0.120 A 
BRANCH  30   2
ATOM      2  O   UNL     1      -7.299 -10.885  19.948  0.00  0.00    -0.495 OA
ATOM     31  C   UNL     1      -8.612 -11.101  19.435  0.00  0.00    +0.277 C 
ENDBRANCH  30   2
ENDBRANCH  23  25
ENDBRANCH  15  19
ENDBRANCH  10  15
TORSDOF 10
ENDMDL
MODEL 3
REMARK VINA RESULT:      -5.9     27.213     30.267
REMARK  Name = 38030827
REMARK  15 active torsions:
REMARK  status: ('A' for Active; 'I' for Inactive)
REMARK    1  A    between atoms: O_2  and  C_30
REMARK    2  A    between atoms: O_2  and  C_31
REMARK    3  A    between atoms: N_3  and  C_14
REMARK    4  A    between atoms: N_3  and  C_20
REMARK    5  A    between atoms: N_3  and  C_21
REMARK    6  A    between atoms: C_7  and  C_11
REMARK    7  A    between atoms: C_8  and  C_14
REMARK    8  A    between atoms: C_10  and  C_15
REMARK    9  A    between atoms: C_11  and  C_16
REMARK   10  A    between atoms: C_11  and  C_17
REMARK   11  A    between atoms: C_12  and  C_18
REMARK   12  A    between atoms: C_15  and  C_19
REMARK   13  A    between atoms: C_20  and  C_22
REMARK   14  A    between atoms: C_22  and  C_24
REMARK   15  A    between atoms: C_23  and  C_25
REMARK                            x       y       z     vdW  Elec       q    Type
REMARK                         _______ _______ _______ _____ _____    ______ ____
ROOT
ATOM      7  C   UNL     1      16.606   8.910  21.586  0.00  0.00    +0.000 C 
ATOM      8  C   UNL     1      16.176  10.178  20.812  0.00  0.00    +0.029 C 
ATOM      9  C   UNL     1      15.477   7.869  21.581  0.00  0.00    +0.012 C 
ATOM     10  C   UNL     1      15.018   7.472  20.161  0.00  0.00    +0.024 C 
ATOM     12  C   UNL     1      14.963   8.652  19.202  0.00  0.00    -0.073 C 
ATOM     13  C   UNL     1      15.477   9.855  19.516  0.00  0.00    -0.023 C 
ATOM     18  C   UNL     1      14.361   8.416  17.844  0.00  0.00    +0.039 C 
ENDROOT
BRANCH   7  11
ATOM     11  C   UNL     1      17.906   8.322  21.021  0.00  0.00    -0.013 C 
ATOM     16  C   UNL     1      19.108   9.128  21.502  0.00  0.00    +0.007 C 
ATOM     17  C   UNL     1      18.044   6.856  21.418  0.00  0.00    +0.007 C 
ENDBRANCH   7  11
BRANCH   8  14
ATOM     14  C   UNL     1      15.277  11.082  21.660  0.00  0.00    +0.092 C 
BRANCH  14   3
ATOM      3  N   UNL     1      15.974  12.302  22.027  0.00  0.00    -0.304 NA
ATOM     21  C   UNL     1      17.273  12.382  21.353  0.00  0.00    +0.104 C 
BRANCH   3  20
ATOM     20  C   UNL     1      16.154  12.382  23.479  0.00  0.00    +0.099 C 
BRANCH  20  22
ATOM     22  C   UNL     1      14.869  12.862  24.148  0.00  0.00    +0.134 C 
BRANCH  22  24
ATOM      6  N   UNL     1      14.270  11.358  26.220  0.00  0.00    -0.197 NA
ATOM     24  C   UNL     1      14.533  12.021  25.306  0.00  0.00    +0.064 C 
ENDBRANCH  22  24
ENDBRANCH  20  22
ENDBRANCH   3  20
ENDBRANCH  14   3
ENDBRANCH   8  14
BRANCH  10  15
ATOM     15  C   UNL     1      13.680   6.730  20.270  0.00  0.00    +0.105 C 
BRANCH  15  19
ATOM      1  O   UNL     1      12.676   8.689  21.323  0.00  0.00    -0.420 OA
ATOM      4  N   UNL     1      11.382   7.712  19.782  0.00  0.00    -0.112 NA
ATOM      5  N   UNL     1      10.694   8.798  20.292  0.00  0.00    -0.107 NA
ATOM     19  C   UNL     1      12.532   7.687  20.413  0.00  0.00    +0.218 A 
ATOM     23  C   UNL     1      11.488   9.338  21.187  0.00  0.00    +0.248 A 
BRANCH  23  25
ATOM     25  C   UNL     1      11.299  10.483  22.029  0.00  0.00    +0.039 A 
ATOM     26  C   UNL     1      11.428  11.768  21.499  0.00  0.00    +0.017 A 
ATOM     27  C   UNL     1      10.987  10.314  23.378  0.00  0.00    +0.017 A 
ATOM     28  C   UNL     1      11.245  12.882  22.317  0.00  0.00    +0.046 A 
ATOM     29  C   UNL     1      10.803  11.429  24.197  0.00  0.00    +0.046 A 
ATOM     30  C   UNL     1      10.932  12.712  23.666  0.00  0.00    +0.120 A 
BRANCH  30   2
ATOM      2  O   UNL     1      10.750  13.799  24.464  0.00  0.00    -0.495 OA
ATOM     31  C   UNL     1      11.318  13.747  25.772  0.00  0.00    +0.277 C 
ENDBRANCH  30   2
ENDBRANCH  23  25
ENDBRANCH  15  19
ENDBRANCH  10  15
TORSDOF 10
ENDMDL
MODEL 4
REMARK VINA RESULT:      -5.9      3.271      9.521
REMARK  Name = 38030827
REMARK  15 active torsions:
REMARK  status: ('A' for Active; 'I' for Inactive)
REMARK    1  A    between atoms: O_2  and  C_30
REMARK    2  A    between atoms: O_2  and  C_31
REMARK    3  A    between atoms: N_3  and  C_14
REMARK    4  A    between atoms: N_3  and  C_20
REMARK    5  A    between atoms: N_3  and  C_21
REMARK    6  A    between atoms: C_7  and  C_11
REMARK    7  A    between atoms: C_8  and  C_14
REMARK    8  A    between atoms: C_10  and  C_15
REMARK    9  A    between atoms: C_11  and  C_16
REMARK   10  A    between atoms: C_11  and  C_17
REMARK   11  A    between atoms: C_12  and  C_18
REMARK   12  A    between atoms: C_15  and  C_19
REMARK   13  A    between atoms: C_20  and  C_22
REMARK   14  A    between atoms: C_22  and  C_24
REMARK   15  A    between atoms: C_23  and  C_25
REMARK                            x       y       z     vdW  Elec       q    Type
REMARK                         _______ _______ _______ _____ _____    ______ ____
ROOT
ATOM      7  C   UNL     1      -7.598 -12.340  17.150  0.00  0.00    +0.000 C 
ATOM      8  C   UNL     1      -7.638 -12.159  18.685  0.00  0.00    +0.029 C 
ATOM      9  C   UNL     1      -6.506 -11.454  16.533  0.00  0.00    +0.012 C 
ATOM     10  C   UNL     1      -5.102 -11.716  17.118  0.00  0.00    +0.024 C 
ATOM     12  C   UNL     1      -5.118 -11.960  18.619  0.00  0.00    -0.073 C 
ATOM     13  C   UNL     1      -6.263 -12.144  19.303  0.00  0.00    -0.023 C 
ATOM     18  C   UNL     1      -3.793 -12.050  19.323  0.00  0.00    +0.039 C 
ENDROOT
BRANCH   7  11
ATOM     11  C   UNL     1      -7.400 -13.812  16.765  0.00  0.00    -0.013 C 
ATOM     16  C   UNL     1      -8.446 -14.686  17.449  0.00  0.00    +0.007 C 
ATOM     17  C   UNL     1      -7.462 -13.979  15.250  0.00  0.00    +0.007 C 
ENDBRANCH   7  11
BRANCH   8  14
ATOM     14  C   UNL     1      -8.384 -10.882  19.085  0.00  0.00    +0.092 C 
BRANCH  14   3
ATOM      3  N   UNL     1      -9.363 -11.162  20.121  0.00  0.00    -0.304 NA
ATOM     21  C   UNL     1      -9.810 -12.556  20.051  0.00  0.00    +0.104 C 
BRANCH   3  20
ATOM     20  C   UNL     1     -10.512 -10.259  20.011  0.00  0.00    +0.099 C 
BRANCH  20  22
ATOM     22  C   UNL     1     -11.264 -10.513  18.707  0.00  0.00    +0.134 C 
BRANCH  22  24
ATOM      6  N   UNL     1     -11.468  -8.305  17.293  0.00  0.00    -0.197 NA
ATOM     24  C   UNL     1     -11.379  -9.279  17.917  0.00  0.00    +0.064 C 
ENDBRANCH  22  24
ENDBRANCH  20  22
ENDBRANCH   3  20
ENDBRANCH  14   3
ENDBRANCH   8  14
BRANCH  10  15
ATOM     15  C   UNL     1      -4.179 -10.560  16.712  0.00  0.00    +0.105 C 
BRANCH  15  19
ATOM      1  O   UNL     1      -4.178 -10.373  14.278  0.00  0.00    -0.420 OA
ATOM      4  N   UNL     1      -2.392 -11.427  15.117  0.00  0.00    -0.112 NA
ATOM      5  N   UNL     1      -2.262 -11.394  13.741  0.00  0.00    -0.107 NA
ATOM     19  C   UNL     1      -3.525 -10.821  15.386  0.00  0.00    +0.218 A 
ATOM     23  C   UNL     1      -3.326 -10.770  13.294  0.00  0.00    +0.248 A 
BRANCH  23  25
ATOM     25  C   UNL     1      -3.723 -10.447  11.954  0.00  0.00    +0.039 A 
ATOM     26  C   UNL     1      -4.921 -10.946  11.442  0.00  0.00    +0.017 A 
ATOM     27  C   UNL     1      -2.911  -9.636  11.162  0.00  0.00    +0.017 A 
ATOM     28  C   UNL     1      -5.307 -10.633  10.139  0.00  0.00    +0.046 A 
ATOM     29  C   UNL     1      -3.296  -9.323   9.858  0.00  0.00    +0.046 A 
ATOM     30  C   UNL     1      -4.495  -9.821   9.348  0.00  0.00    +0.120 A 
BRANCH  30   2
ATOM      2  O   UNL     1      -4.872  -9.513   8.077  0.00  0.00    -0.495 OA
ATOM     31  C   UNL     1      -5.200 -10.601   7.215  0.00  0.00    +0.277 C 
ENDBRANCH  30   2
ENDBRANCH  23  25
ENDBRANCH  15  19
ENDBRANCH  10  15
TORSDOF 10
ENDMDL
MODEL 5
REMARK VINA RESULT:      -5.9     23.371     26.322
REMARK  Name = 38030827
REMARK  15 active torsions:
REMARK  status: ('A' for Active; 'I' for Inactive)
REMARK    1  A    between atoms: O_2  and  C_30
REMARK    2  A    between atoms: O_2  and  C_31
REMARK    3  A    between atoms: N_3  and  C_14
REMARK    4  A    between atoms: N_3  and  C_20
REMARK    5  A    between atoms: N_3  and  C_21
REMARK    6  A    between atoms: C_7  and  C_11
REMARK    7  A    between atoms: C_8  and  C_14
REMARK    8  A    between atoms: C_10  and  C_15
REMARK    9  A    between atoms: C_11  and  C_16
REMARK   10  A    between atoms: C_11  and  C_17
REMARK   11  A    between atoms: C_12  and  C_18
REMARK   12  A    between atoms: C_15  and  C_19
REMARK   13  A    between atoms: C_20  and  C_22
REMARK   14  A    between atoms: C_22  and  C_24
REMARK   15  A    between atoms: C_23  and  C_25
REMARK                            x       y       z     vdW  Elec       q    Type
REMARK                         _______ _______ _______ _____ _____    ______ ____
ROOT
ATOM      7  C   UNL     1       8.193   9.621   4.042  0.00  0.00    +0.000 C 
ATOM      8  C   UNL     1       9.219  10.199   5.044  0.00  0.00    +0.029 C 
ATOM      9  C   UNL     1       8.282   8.089   4.005  0.00  0.00    +0.012 C 
ATOM     10  C   UNL     1       8.076   7.430   5.386  0.00  0.00    +0.024 C 
ATOM     12  C   UNL     1       8.742   8.199   6.517  0.00  0.00    -0.073 C 
ATOM     13  C   UNL     1       9.257   9.430   6.341  0.00  0.00    -0.023 C 
ATOM     18  C   UNL     1       8.758   7.559   7.877  0.00  0.00    +0.039 C 
ENDROOT
BRANCH   7  11
ATOM     11  C   UNL     1       6.768  10.087   4.368  0.00  0.00    -0.013 C 
ATOM     16  C   UNL     1       6.770  11.552   4.791  0.00  0.00    +0.007 C 
ATOM     17  C   UNL     1       5.849   9.871   3.170  0.00  0.00    +0.007 C 
ENDBRANCH   7  11
BRANCH   8  14
ATOM     14  C   UNL     1      10.628  10.248   4.446  0.00  0.00    +0.092 C 
BRANCH  14   3
ATOM      3  N   UNL     1      11.625  10.408   5.491  0.00  0.00    -0.304 NA
ATOM     21  C   UNL     1      12.064  11.804   5.582  0.00  0.00    +0.104 C 
BRANCH   3  20
ATOM     20  C   UNL     1      12.775   9.533   5.252  0.00  0.00    +0.099 C 
BRANCH  20  22
ATOM     22  C   UNL     1      13.550   9.309   6.548  0.00  0.00    +0.134 C 
BRANCH  22  24
ATOM      6  N   UNL     1      13.986   6.748   6.954  0.00  0.00    -0.197 NA
ATOM     24  C   UNL     1      13.795   7.878   6.774  0.00  0.00    +0.064 C 
ENDBRANCH  22  24
ENDBRANCH  20  22
ENDBRANCH   3  20
ENDBRANCH  14   3
ENDBRANCH   8  14
BRANCH  10  15
ATOM     15  C   UNL     1       8.537   5.970   5.305  0.00  0.00    +0.105 C 
BRANCH  15  19
ATOM      1  O   UNL     1       9.883   5.184   3.427  0.00  0.00    -0.420 OA
ATOM      4  N   UNL     1      11.041   6.302   4.981  0.00  0.00    -0.112 NA
ATOM      5  N   UNL     1      11.920   5.919   3.986  0.00  0.00    -0.107 NA
ATOM     19  C   UNL     1       9.865   5.851   4.614  0.00  0.00    +0.218 A 
ATOM     23  C   UNL     1      11.201   5.270   3.100  0.00  0.00    +0.248 A 
BRANCH  23  25
ATOM     25  C   UNL     1      11.582   4.649   1.866  0.00  0.00    +0.039 A 
ATOM     26  C   UNL     1      12.782   3.942   1.781  0.00  0.00    +0.017 A 
ATOM     27  C   UNL     1      10.754   4.751   0.748  0.00  0.00    +0.017 A 
ATOM     28  C   UNL     1      13.154   3.337   0.580  0.00  0.00    +0.046 A 
ATOM     29  C   UNL     1      11.125   4.147  -0.454  0.00  0.00    +0.046 A 
ATOM     30  C   UNL     1      12.324   3.440  -0.537  0.00  0.00    +0.120 A 
BRANCH  30   2
ATOM      2  O   UNL     1      12.685   2.848  -1.708  0.00  0.00    -0.495 OA
ATOM     31  C   UNL     1      11.659   2.181  -2.441  0.00  0.00    +0.277 C 
ENDBRANCH  30   2
ENDBRANCH  23  25
ENDBRANCH  15  19
ENDBRANCH  10  15
TORSDOF 10
ENDMDL
MODEL 6
REMARK VINA RESULT:      -5.7     22.104     26.158
REMARK  Name = 38030827
REMARK  15 active torsions:
REMARK  status: ('A' for Active; 'I' for Inactive)
REMARK    1  A    between atoms: O_2  and  C_30
REMARK    2  A    between atoms: O_2  and  C_31
REMARK    3  A    between atoms: N_3  and  C_14
REMARK    4  A    between atoms: N_3  and  C_20
REMARK    5  A    between atoms: N_3  and  C_21
REMARK    6  A    between atoms: C_7  and  C_11
REMARK    7  A    between atoms: C_8  and  C_14
REMARK    8  A    between atoms: C_10  and  C_15
REMARK    9  A    between atoms: C_11  and  C_16
REMARK   10  A    between atoms: C_11  and  C_17
REMARK   11  A    between atoms: C_12  and  C_18
REMARK   12  A    between atoms: C_15  and  C_19
REMARK   13  A    between atoms: C_20  and  C_22
REMARK   14  A    between atoms: C_22  and  C_24
REMARK   15  A    between atoms: C_23  and  C_25
REMARK                            x       y       z     vdW  Elec       q    Type
REMARK                         _______ _______ _______ _____ _____    ______ ____
ROOT
ATOM      7  C   UNL     1       9.255   6.059   7.337  0.00  0.00    +0.000 C 
ATOM      8  C   UNL     1       9.952   7.364   7.787  0.00  0.00    +0.029 C 
ATOM      9  C   UNL     1       9.230   5.964   5.805  0.00  0.00    +0.012 C 
ATOM     10  C   UNL     1      10.633   6.043   5.165  0.00  0.00    +0.024 C 
ATOM     12  C   UNL     1      11.541   7.057   5.845  0.00  0.00    -0.073 C 
ATOM     13  C   UNL     1      11.213   7.644   7.011  0.00  0.00    -0.023 C 
ATOM     18  C   UNL     1      12.867   7.346   5.198  0.00  0.00    +0.039 C 
ENDROOT
BRANCH   7  11
ATOM     11  C   UNL     1       9.921   4.825   7.960  0.00  0.00    -0.013 C 
ATOM     16  C   UNL     1       9.394   4.591   9.371  0.00  0.00    +0.007 C 
ATOM     17  C   UNL     1       9.689   3.597   7.085  0.00  0.00    +0.007 C 
ENDBRANCH   7  11
BRANCH   8  14
ATOM     14  C   UNL     1       9.015   8.572   7.681  0.00  0.00    +0.092 C 
BRANCH  14   3
ATOM      3  N   UNL     1       9.763   9.776   7.361  0.00  0.00    -0.304 NA
ATOM     21  C   UNL     1       9.953  10.603   8.556  0.00  0.00    +0.104 C 
BRANCH   3  20
ATOM     20  C   UNL     1       9.086  10.548   6.316  0.00  0.00    +0.099 C 
BRANCH  20  22
ATOM     22  C   UNL     1       8.658   9.633   5.172  0.00  0.00    +0.134 C 
BRANCH  22  24
ATOM      6  N   UNL     1       6.253  10.261   4.316  0.00  0.00    -0.197 NA
ATOM     24  C   UNL     1       7.314   9.983   4.692  0.00  0.00    +0.064 C 
ENDBRANCH  22  24
ENDBRANCH  20  22
ENDBRANCH   3  20
ENDBRANCH  14   3
ENDBRANCH   8  14
BRANCH  10  15
ATOM     15  C   UNL     1      10.471   6.302   3.662  0.00  0.00    +0.105 C 
BRANCH  15  19
ATOM      1  O   UNL     1      11.322   5.406   1.557  0.00  0.00    -0.420 OA
ATOM      4  N   UNL     1      11.147   3.892   3.194  0.00  0.00    -0.112 NA
ATOM      5  N   UNL     1      11.636   3.252   2.071  0.00  0.00    -0.107 NA
ATOM     19  C   UNL     1      10.978   5.146   2.849  0.00  0.00    +0.218 A 
ATOM     23  C   UNL     1      11.722   4.174   1.141  0.00  0.00    +0.248 A 
BRANCH  23  25
ATOM     25  C   UNL     1      12.164   4.086  -0.221  0.00  0.00    +0.039 A 
ATOM     26  C   UNL     1      11.230   3.981  -1.252  0.00  0.00    +0.017 A 
ATOM     27  C   UNL     1      13.527   4.103  -0.514  0.00  0.00    +0.017 A 
ATOM     28  C   UNL     1      11.659   3.895  -2.576  0.00  0.00    +0.046 A 
ATOM     29  C   UNL     1      13.957   4.017  -1.839  0.00  0.00    +0.046 A 
ATOM     30  C   UNL     1      13.023   3.913  -2.869  0.00  0.00    +0.120 A 
BRANCH  30   2
ATOM      2  O   UNL     1      13.442   3.832  -4.162  0.00  0.00    -0.495 OA
ATOM     31  C   UNL     1      12.680   3.006  -5.041  0.00  0.00    +0.277 C 
ENDBRANCH  30   2
ENDBRANCH  23  25
ENDBRANCH  15  19
ENDBRANCH  10  15
TORSDOF 10
ENDMDL
MODEL 7
REMARK VINA RESULT:      -5.7     22.248     25.252
REMARK  Name = 38030827
REMARK  15 active torsions:
REMARK  status: ('A' for Active; 'I' for Inactive)
REMARK    1  A    between atoms: O_2  and  C_30
REMARK    2  A    between atoms: O_2  and  C_31
REMARK    3  A    between atoms: N_3  and  C_14
REMARK    4  A    between atoms: N_3  and  C_20
REMARK    5  A    between atoms: N_3  and  C_21
REMARK    6  A    between atoms: C_7  and  C_11
REMARK    7  A    between atoms: C_8  and  C_14
REMARK    8  A    between atoms: C_10  and  C_15
REMARK    9  A    between atoms: C_11  and  C_16
REMARK   10  A    between atoms: C_11  and  C_17
REMARK   11  A    between atoms: C_12  and  C_18
REMARK   12  A    between atoms: C_15  and  C_19
REMARK   13  A    between atoms: C_20  and  C_22
REMARK   14  A    between atoms: C_22  and  C_24
REMARK   15  A    between atoms: C_23  and  C_25
REMARK                            x       y       z     vdW  Elec       q    Type
REMARK                         _______ _______ _______ _____ _____    ______ ____
ROOT
ATOM      7  C   UNL     1      13.528   7.066   0.309  0.00  0.00    +0.000 C 
ATOM      8  C   UNL     1      13.499   5.682  -0.381  0.00  0.00    +0.029 C 
ATOM      9  C   UNL     1      12.100   7.572   0.558  0.00  0.00    +0.012 C 
ATOM     10  C   UNL     1      11.243   6.599   1.395  0.00  0.00    +0.024 C 
ATOM     12  C   UNL     1      11.476   5.140   1.034  0.00  0.00    -0.073 C 
ATOM     13  C   UNL     1      12.482   4.752   0.230  0.00  0.00    -0.023 C 
ATOM     18  C   UNL     1      10.569   4.116   1.660  0.00  0.00    +0.039 C 
ENDROOT
BRANCH   7  11
ATOM     11  C   UNL     1      14.337   7.025   1.612  0.00  0.00    -0.013 C 
ATOM     16  C   UNL     1      15.823   6.860   1.311  0.00  0.00    +0.007 C 
ATOM     17  C   UNL     1      14.088   8.286   2.434  0.00  0.00    +0.007 C 
ENDBRANCH   7  11
BRANCH   8  14
ATOM     14  C   UNL     1      13.232   5.806  -1.885  0.00  0.00    +0.092 C 
BRANCH  14   3
ATOM      3  N   UNL     1      13.643   4.599  -2.580  0.00  0.00    -0.304 NA
ATOM     21  C   UNL     1      14.687   4.897  -3.566  0.00  0.00    +0.104 C 
BRANCH   3  20
ATOM     20  C   UNL     1      12.500   3.958  -3.235  0.00  0.00    +0.099 C 
BRANCH  20  22
ATOM     22  C   UNL     1      12.193   2.616  -2.576  0.00  0.00    +0.134 C 
BRANCH  22  24
ATOM      6  N   UNL     1       9.710   1.885  -3.038  0.00  0.00    -0.197 NA
ATOM     24  C   UNL     1      10.805   2.209  -2.833  0.00  0.00    +0.064 C 
ENDBRANCH  22  24
ENDBRANCH  20  22
ENDBRANCH   3  20
ENDBRANCH  14   3
ENDBRANCH   8  14
BRANCH  10  15
ATOM     15  C   UNL     1       9.772   7.016   1.276  0.00  0.00    +0.105 C 
BRANCH  15  19
ATOM      1  O   UNL     1       9.630   6.558   3.669  0.00  0.00    -0.420 OA
ATOM      4  N   UNL     1       8.251   8.170   2.961  0.00  0.00    -0.112 NA
ATOM      5  N   UNL     1       8.066   8.017   4.322  0.00  0.00    -0.107 NA
ATOM     19  C   UNL     1       9.171   7.299   2.623  0.00  0.00    +0.218 A 
ATOM     23  C   UNL     1       8.892   7.066   4.692  0.00  0.00    +0.248 A 
BRANCH  23  25
ATOM     25  C   UNL     1       9.130   6.491   5.984  0.00  0.00    +0.039 A 
ATOM     26  C   UNL     1       8.735   7.172   7.136  0.00  0.00    +0.017 A 
ATOM     27  C   UNL     1       9.758   5.250   6.089  0.00  0.00    +0.017 A 
ATOM     28  C   UNL     1       8.967   6.613   8.392  0.00  0.00    +0.046 A 
ATOM     29  C   UNL     1       9.991   4.690   7.346  0.00  0.00    +0.046 A 
ATOM     30  C   UNL     1       9.595   5.371   8.497  0.00  0.00    +0.120 A 
BRANCH  30   2
ATOM      2  O   UNL     1       9.819   4.824   9.722  0.00  0.00    -0.495 OA
ATOM     31  C   UNL     1       8.679   4.593  10.549  0.00  0.00    +0.277 C 
ENDBRANCH  30   2
ENDBRANCH  23  25
ENDBRANCH  15  19
ENDBRANCH  10  15
TORSDOF 10
ENDMDL
MODEL 8
REMARK VINA RESULT:      -5.7     24.943     26.820
REMARK  Name = 38030827
REMARK  15 active torsions:
REMARK  status: ('A' for Active; 'I' for Inactive)
REMARK    1  A    between atoms: O_2  and  C_30
REMARK    2  A    between atoms: O_2  and  C_31
REMARK    3  A    between atoms: N_3  and  C_14
REMARK    4  A    between atoms: N_3  and  C_20
REMARK    5  A    between atoms: N_3  and  C_21
REMARK    6  A    between atoms: C_7  and  C_11
REMARK    7  A    between atoms: C_8  and  C_14
REMARK    8  A    between atoms: C_10  and  C_15
REMARK    9  A    between atoms: C_11  and  C_16
REMARK   10  A    between atoms: C_11  and  C_17
REMARK   11  A    between atoms: C_12  and  C_18
REMARK   12  A    between atoms: C_15  and  C_19
REMARK   13  A    between atoms: C_20  and  C_22
REMARK   14  A    between atoms: C_22  and  C_24
REMARK   15  A    between atoms: C_23  and  C_25
REMARK                            x       y       z     vdW  Elec       q    Type
REMARK                         _______ _______ _______ _____ _____    ______ ____
ROOT
ATOM      7  C   UNL     1      17.261  -2.676  24.590  0.00  0.00    +0.000 C 
ATOM      8  C   UNL     1      18.039  -3.817  23.895  0.00  0.00    +0.029 C 
ATOM      9  C   UNL     1      17.541  -2.676  26.100  0.00  0.00    +0.012 C 
ATOM     10  C   UNL     1      19.041  -2.558  26.444  0.00  0.00    +0.024 C 
ATOM     12  C   UNL     1      19.931  -3.364  25.510  0.00  0.00    -0.073 C 
ATOM     13  C   UNL     1      19.462  -3.928  24.382  0.00  0.00    -0.023 C 
ATOM     18  C   UNL     1      21.391  -3.466  25.856  0.00  0.00    +0.039 C 
ENDROOT
BRANCH   7  11
ATOM     11  C   UNL     1      17.589  -1.313  23.966  0.00  0.00    -0.013 C 
ATOM     16  C   UNL     1      17.271  -1.321  22.474  0.00  0.00    +0.007 C 
ATOM     17  C   UNL     1      16.822  -0.203  24.677  0.00  0.00    +0.007 C 
ENDBRANCH   7  11
BRANCH   8  14
ATOM     14  C   UNL     1      17.339  -5.168  24.071  0.00  0.00    +0.092 C 
BRANCH  14   3
ATOM      3  N   UNL     1      18.253  -6.261  23.789  0.00  0.00    -0.304 NA
ATOM     21  C   UNL     1      18.266  -6.572  22.356  0.00  0.00    +0.104 C 
BRANCH   3  20
ATOM     20  C   UNL     1      17.893  -7.454  24.560  0.00  0.00    +0.099 C 
BRANCH  20  22
ATOM     22  C   UNL     1      16.699  -7.161  25.465  0.00  0.00    +0.134 C 
BRANCH  22  24
ATOM      6  N   UNL     1      15.292  -9.338  25.904  0.00  0.00    -0.197 NA
ATOM     24  C   UNL     1      15.912  -8.378  25.709  0.00  0.00    +0.064 C 
ENDBRANCH  22  24
ENDBRANCH  20  22
ENDBRANCH   3  20
ENDBRANCH  14   3
ENDBRANCH   8  14
BRANCH  10  15
ATOM     15  C   UNL     1      19.235  -2.929  27.920  0.00  0.00    +0.105 C 
BRANCH  15  19
ATOM      1  O   UNL     1      17.307  -4.000  28.963  0.00  0.00    -0.420 OA
ATOM      4  N   UNL     1      18.753  -5.428  28.028  0.00  0.00    -0.112 NA
ATOM      5  N   UNL     1      17.719  -6.164  28.576  0.00  0.00    -0.107 NA
ATOM     19  C   UNL     1      18.471  -4.171  28.278  0.00  0.00    +0.218 A 
ATOM     23  C   UNL     1      16.899  -5.290  29.111  0.00  0.00    +0.248 A 
BRANCH  23  25
ATOM     25  C   UNL     1      15.664  -5.481  29.814  0.00  0.00    +0.039 A 
ATOM     26  C   UNL     1      15.336  -4.652  30.887  0.00  0.00    +0.017 A 
ATOM     27  C   UNL     1      14.790  -6.497  29.427  0.00  0.00    +0.017 A 
ATOM     28  C   UNL     1      14.135  -4.837  31.571  0.00  0.00    +0.046 A 
ATOM     29  C   UNL     1      13.589  -6.683  30.111  0.00  0.00    +0.046 A 
ATOM     30  C   UNL     1      13.262  -5.852  31.183  0.00  0.00    +0.120 A 
BRANCH  30   2
ATOM      2  O   UNL     1      12.088  -6.032  31.848  0.00  0.00    -0.495 OA
ATOM     31  C   UNL     1      11.998  -7.163  32.713  0.00  0.00    +0.277 C 
ENDBRANCH  30   2
ENDBRANCH  23  25
ENDBRANCH  15  19
ENDBRANCH  10  15
TORSDOF 10
ENDMDL
MODEL 9
REMARK VINA RESULT:      -5.7     22.878     26.384
REMARK  Name = 38030827
REMARK  15 active torsions:
REMARK  status: ('A' for Active; 'I' for Inactive)
REMARK    1  A    between atoms: O_2  and  C_30
REMARK    2  A    between atoms: O_2  and  C_31
REMARK    3  A    between atoms: N_3  and  C_14
REMARK    4  A    between atoms: N_3  and  C_20
REMARK    5  A    between atoms: N_3  and  C_21
REMARK    6  A    between atoms: C_7  and  C_11
REMARK    7  A    between atoms: C_8  and  C_14
REMARK    8  A    between atoms: C_10  and  C_15
REMARK    9  A    between atoms: C_11  and  C_16
REMARK   10  A    between atoms: C_11  and  C_17
REMARK   11  A    between atoms: C_12  and  C_18
REMARK   12  A    between atoms: C_15  and  C_19
REMARK   13  A    between atoms: C_20  and  C_22
REMARK   14  A    between atoms: C_22  and  C_24
REMARK   15  A    between atoms: C_23  and  C_25
REMARK                            x       y       z     vdW  Elec       q    Type
REMARK                         _______ _______ _______ _____ _____    ______ ____
ROOT
ATOM      7  C   UNL     1       9.622   8.651   3.175  0.00  0.00    +0.000 C 
ATOM      8  C   UNL     1       9.162   8.747   4.648  0.00  0.00    +0.029 C 
ATOM      9  C   UNL     1      10.640   7.514   3.002  0.00  0.00    +0.012 C 
ATOM     10  C   UNL     1      10.107   6.141   3.463  0.00  0.00    +0.024 C 
ATOM     12  C   UNL     1       9.271   6.222   4.732  0.00  0.00    -0.073 C 
ATOM     13  C   UNL     1       8.869   7.397   5.252  0.00  0.00    -0.023 C 
ATOM     18  C   UNL     1       8.849   4.928   5.371  0.00  0.00    +0.039 C 
ENDROOT
BRANCH   7  11
ATOM     11  C   UNL     1       8.429   8.477   2.225  0.00  0.00    -0.013 C 
ATOM     16  C   UNL     1       7.349   9.508   2.533  0.00  0.00    +0.007 C 
ATOM     17  C   UNL     1       8.884   8.586   0.774  0.00  0.00    +0.007 C 
ENDBRANCH   7  11
BRANCH   8  14
ATOM     14  C   UNL     1      10.193   9.475   5.516  0.00  0.00    +0.092 C 
BRANCH  14   3
ATOM      3  N   UNL     1      10.411   8.761   6.763  0.00  0.00    -0.304 NA
ATOM     21  C   UNL     1       9.830   9.496   7.891  0.00  0.00    +0.104 C 
BRANCH   3  20
ATOM     20  C   UNL     1      11.840   8.535   6.991  0.00  0.00    +0.099 C 
BRANCH  20  22
ATOM     22  C   UNL     1      12.189   7.067   6.760  0.00  0.00    +0.134 C 
BRANCH  22  24
ATOM      6  N   UNL     1      10.916   5.520   8.463  0.00  0.00    -0.197 NA
ATOM     24  C   UNL     1      11.478   6.201   7.711  0.00  0.00    +0.064 C 
ENDBRANCH  22  24
ENDBRANCH  20  22
ENDBRANCH   3  20
ENDBRANCH  14   3
ENDBRANCH   8  14
BRANCH  10  15
ATOM     15  C   UNL     1      11.290   5.173   3.590  0.00  0.00    +0.105 C 
BRANCH  15  19
ATOM      1  O   UNL     1      11.071   4.534   1.244  0.00  0.00    -0.420 OA
ATOM      4  N   UNL     1      13.174   4.940   1.892  0.00  0.00    -0.112 NA
ATOM      5  N   UNL     1      13.198   4.591   0.554  0.00  0.00    -0.107 NA
ATOM     19  C   UNL     1      11.913   4.893   2.253  0.00  0.00    +0.218 A 
ATOM     23  C   UNL     1      11.950   4.364   0.219  0.00  0.00    +0.248 A 
BRANCH  23  25
ATOM     25  C   UNL     1      11.379   3.970  -1.036  0.00  0.00    +0.039 A 
ATOM     26  C   UNL     1      10.347   4.721  -1.600  0.00  0.00    +0.017 A 
ATOM     27  C   UNL     1      11.856   2.836  -1.694  0.00  0.00    +0.017 A 
ATOM     28  C   UNL     1       9.792   4.338  -2.821  0.00  0.00    +0.046 A 
ATOM     29  C   UNL     1      11.301   2.453  -2.916  0.00  0.00    +0.046 A 
ATOM     30  C   UNL     1      10.269   3.205  -3.478  0.00  0.00    +0.120 A 
BRANCH  30   2
ATOM      2  O   UNL     1       9.730   2.832  -4.671  0.00  0.00    -0.495 OA
ATOM     31  C   UNL     1      10.485   3.127  -5.846  0.00  0.00    +0.277 C 
ENDBRANCH  30   2
ENDBRANCH  23  25
ENDBRANCH  15  19
ENDBRANCH  10  15
TORSDOF 10
ENDMDL
MODEL 10
REMARK VINA RESULT:      -5.6     25.521     28.180
REMARK  Name = 38030827
REMARK  15 active torsions:
REMARK  status: ('A' for Active; 'I' for Inactive)
REMARK    1  A    between atoms: O_2  and  C_30
REMARK    2  A    between atoms: O_2  and  C_31
REMARK    3  A    between atoms: N_3  and  C_14
REMARK    4  A    between atoms: N_3  and  C_20
REMARK    5  A    between atoms: N_3  and  C_21
REMARK    6  A    between atoms: C_7  and  C_11
REMARK    7  A    between atoms: C_8  and  C_14
REMARK    8  A    between atoms: C_10  and  C_15
REMARK    9  A    between atoms: C_11  and  C_16
REMARK   10  A    between atoms: C_11  and  C_17
REMARK   11  A    between atoms: C_12  and  C_18
REMARK   12  A    between atoms: C_15  and  C_19
REMARK   13  A    between atoms: C_20  and  C_22
REMARK   14  A    between atoms: C_22  and  C_24
REMARK   15  A    between atoms: C_23  and  C_25
REMARK                            x       y       z     vdW  Elec       q    Type
REMARK                         _______ _______ _______ _____ _____    ______ ____
ROOT
ATOM      7  C   UNL     1      16.068  -5.564  -4.014  0.00  0.00    +0.000 C 
ATOM      8  C   UNL     1      16.974  -5.450  -5.262  0.00  0.00    +0.029 C 
ATOM      9  C   UNL     1      16.625  -4.711  -2.865  0.00  0.00    +0.012 C 
ATOM     10  C   UNL     1      16.799  -3.223  -3.237  0.00  0.00    +0.024 C 
ATOM     12  C   UNL     1      17.322  -3.020  -4.652  0.00  0.00    -0.073 C 
ATOM     13  C   UNL     1      17.402  -4.031  -5.538  0.00  0.00    -0.023 C 
ATOM     18  C   UNL     1      17.697  -1.623  -5.061  0.00  0.00    +0.039 C 
ENDROOT
BRANCH   7  11
ATOM     11  C   UNL     1      14.618  -5.181  -4.337  0.00  0.00    -0.013 C 
ATOM     16  C   UNL     1      14.254  -5.618  -5.752  0.00  0.00    +0.007 C 
ATOM     17  C   UNL     1      13.664  -5.797  -3.318  0.00  0.00    +0.007 C 
ENDBRANCH   7  11
BRANCH   8  14
ATOM     14  C   UNL     1      18.216  -6.338  -5.143  0.00  0.00    +0.092 C 
BRANCH  14   3
ATOM      3  N   UNL     1      17.844  -7.742  -5.128  0.00  0.00    -0.304 NA
ATOM     21  C   UNL     1      18.986  -8.579  -4.747  0.00  0.00    +0.104 C 
BRANCH   3  20
ATOM     20  C   UNL     1      17.328  -8.158  -6.435  0.00  0.00    +0.099 C 
BRANCH  20  22
ATOM     22  C   UNL     1      16.523  -9.448  -6.302  0.00  0.00    +0.134 C 
BRANCH  22  24
ATOM      6  N   UNL     1      14.369  -9.070  -4.842  0.00  0.00    -0.197 NA
ATOM     24  C   UNL     1      15.320  -9.236  -5.487  0.00  0.00    +0.064 C 
ENDBRANCH  22  24
ENDBRANCH  20  22
ENDBRANCH   3  20
ENDBRANCH  14   3
ENDBRANCH   8  14
BRANCH  10  15
ATOM     15  C   UNL     1      17.680  -2.552  -2.176  0.00  0.00    +0.105 C 
BRANCH  15  19
ATOM      1  O   UNL     1      19.014  -4.053  -0.788  0.00  0.00    -0.420 OA
ATOM      4  N   UNL     1      20.016  -3.428  -2.688  0.00  0.00    -0.112 NA
ATOM      5  N   UNL     1      20.877  -4.268  -2.006  0.00  0.00    -0.107 NA
ATOM     19  C   UNL     1      18.942  -3.330  -1.940  0.00  0.00    +0.218 A 
ATOM     23  C   UNL     1      20.250  -4.608  -0.904  0.00  0.00    +0.248 A 
BRANCH  23  25
ATOM     25  C   UNL     1      20.660  -5.458   0.176  0.00  0.00    +0.039 A 
ATOM     26  C   UNL     1      20.283  -6.801   0.189  0.00  0.00    +0.017 A 
ATOM     27  C   UNL     1      21.436  -4.942   1.214  0.00  0.00    +0.017 A 
ATOM     28  C   UNL     1      20.682  -7.628   1.239  0.00  0.00    +0.046 A 
ATOM     29  C   UNL     1      21.835  -5.768   2.265  0.00  0.00    +0.046 A 
ATOM     30  C   UNL     1      21.458  -7.111   2.277  0.00  0.00    +0.120 A 
BRANCH  30   2
ATOM      2  O   UNL     1      21.849  -7.918   3.300  0.00  0.00    -0.495 OA
ATOM     31  C   UNL     1      22.148  -7.288   4.546  0.00  0.00    +0.277 C 
ENDBRANCH  30   2
ENDBRANCH  23  25
ENDBRANCH  15  19
ENDBRANCH  10  15
TORSDOF 10
ENDMDL
