REMARK  Name = 11884100
REMARK  9 active torsions:
REMARK  status: ('A' for Active; 'I' for Inactive)
REMARK    1  A    between atoms: O_3  and  C_12
REMARK    2  A    between atoms: O_3  and  C_16
REMARK    3  A    between atoms: N_6  and  C_11
REMARK    4  A    between atoms: N_7  and  C_17
REMARK    5  A    between atoms: N_8  and  C_18
REMARK    6  A    between atoms: C_17  and  C_23
REMARK    7  A    between atoms: C_19  and  C_20
REMARK    8  A    between atoms: C_19  and  C_26
REMARK    9  A    between atoms: C_19  and  C_27
REMARK                            x       y       z     vdW  Elec       q    Type
REMARK                         _______ _______ _______ _____ _____    ______ ____
ROOT
ATOM      1  O   UNL     1      -1.912  -0.926  -1.356  0.00  0.00    -0.368 OA
ATOM      2  O   UNL     1      -3.114  -2.327   1.093  0.00  0.00    -0.368 OA
ATOM      9  C   UNL     1      -3.240  -0.974   0.608  0.00  0.00    +0.173 C 
ATOM     10  C   UNL     1      -1.891  -0.583   0.040  0.00  0.00    +0.192 C 
ATOM     11  C   UNL     1      -4.162  -0.936  -0.589  0.00  0.00    +0.131 C 
ATOM     12  C   UNL     1      -0.942  -1.462   0.818  0.00  0.00    +0.235 C 
ATOM     13  C   UNL     1      -3.236  -1.344  -1.722  0.00  0.00    +0.185 C 
ATOM     14  C   UNL     1      -1.743  -2.735   0.976  0.00  0.00    +0.207 C 
ENDROOT
BRANCH  11   6
ATOM      4  O   UNL     1      -6.686   0.094   0.360  0.00  0.00    -0.253 OA
ATOM      6  N   UNL     1      -4.694   0.389  -0.797  0.00  0.00    -0.292 N 
ATOM      7  N   UNL     1      -6.197   2.126  -0.648  0.00  0.00    -0.300 N 
ATOM     15  C   UNL     1      -5.929   0.804  -0.301  0.00  0.00    +0.300 C 
ATOM     28  H   UNL     1      -4.115   1.073  -1.274  0.00  0.00    +0.151 HD
ATOM     29  H   UNL     1      -5.507   2.638  -1.189  0.00  0.00    +0.150 HD
BRANCH   7  17
ATOM     17  C   UNL     1      -7.410   2.806  -0.261  0.00  0.00    +0.102 C 
ATOM     23  C   UNL     1      -7.339   3.296   1.171  0.00  0.00    +0.024 C 
ENDBRANCH   7  17
ENDBRANCH  11   6
BRANCH  12   3
ATOM      3  O   UNL     1       0.285  -1.686   0.161  0.00  0.00    -0.442 OA
BRANCH   3  16
ATOM      5  O   UNL     1       1.208   0.087   1.272  0.00  0.00    -0.226 OA
ATOM      8  N   UNL     1       2.445  -1.185  -0.255  0.00  0.00    -0.251 N 
ATOM     16  C   UNL     1       1.323  -0.830   0.469  0.00  0.00    +0.405 C 
ATOM     30  H   UNL     1       2.345  -1.984  -0.876  0.00  0.00    +0.158 HD
BRANCH   8  18
ATOM     18  C   UNL     1       3.719  -0.574  -0.240  0.00  0.00    +0.036 A 
ATOM     20  C   UNL     1       6.235   0.631  -0.211  0.00  0.00    -0.045 A 
ATOM     21  C   UNL     1       4.742  -1.075  -1.046  0.00  0.00    +0.024 A 
ATOM     22  C   UNL     1       3.954   0.529   0.581  0.00  0.00    +0.024 A 
ATOM     24  C   UNL     1       6.000  -0.472  -1.031  0.00  0.00    +0.006 A 
ATOM     25  C   UNL     1       5.212   1.132   0.595  0.00  0.00    +0.006 A 
BRANCH  20  19
ATOM     19  C   UNL     1       7.580   1.276  -0.196  0.00  0.00    +0.013 C 
ATOM     26  C   UNL     1       8.254   1.200   1.187  0.00  0.00    +0.012 C 
ATOM     27  C   UNL     1       7.537   2.739  -0.677  0.00  0.00    +0.012 C 
ENDBRANCH  20  19
ENDBRANCH   8  18
ENDBRANCH   3  16
ENDBRANCH  12   3
TORSDOF 6
