MODEL 1
REMARK VINA RESULT:      -7.4      0.000      0.000
REMARK  Name = 45361614
REMARK  9 active torsions:
REMARK  status: ('A' for Active; 'I' for Inactive)
REMARK    1  A    between atoms: O_1  and  C_10
REMARK    2  A    between atoms: N_4  and  C_14
REMARK    3  A    between atoms: C_7  and  C_17
REMARK    4  A    between atoms: C_9  and  C_19
REMARK    5  A    between atoms: C_12  and  C_18
REMARK    6  A    between atoms: C_18  and  C_20
REMARK    7  A    between atoms: C_18  and  C_21
REMARK    8  A    between atoms: C_22  and  C_28
REMARK    9  A    between atoms: C_27  and  C_29
REMARK                            x       y       z     vdW  Elec       q    Type
REMARK                         _______ _______ _______ _____ _____    ______ ____
ROOT
ATOM      7  C   UNL     1      -5.086 -11.207  17.685  0.00  0.00    -0.027 C 
ATOM      8  C   UNL     1      -5.713 -10.511  16.432  0.00  0.00    +0.028 C 
ATOM      9  C   UNL     1      -7.282 -10.546  16.500  0.00  0.00    +0.012 C 
ATOM     10  C   UNL     1      -5.089 -11.054  15.113  0.00  0.00    +0.122 C 
ATOM     11  C   UNL     1      -3.547 -11.056  17.644  0.00  0.00    +0.007 C 
ATOM     12  C   UNL     1      -3.544 -10.997  15.121  0.00  0.00    +0.029 C 
ATOM     13  C   UNL     1      -5.594 -10.498  18.962  0.00  0.00    +0.009 C 
ATOM     14  C   UNL     1      -7.778  -9.897  17.823  0.00  0.00    +0.076 C 
ATOM     15  C   UNL     1      -2.929 -11.623  16.372  0.00  0.00    +0.007 C 
ATOM     16  C   UNL     1      -7.113 -10.477  19.070  0.00  0.00    +0.023 C 
ATOM     17  C   UNL     1      -5.437 -12.715  17.765  0.00  0.00    +0.011 C 
ATOM     19  C   UNL     1      -7.965  -9.851  15.309  0.00  0.00    +0.010 C 
ENDROOT
BRANCH  14   4
ATOM      3  O   UNL     1      -9.715  -7.804  17.489  0.00  0.00    -0.269 OA
ATOM      4  N   UNL     1      -9.213 -10.015  17.972  0.00  0.00    -0.307 N 
ATOM     22  C   UNL     1     -10.068  -8.942  17.789  0.00  0.00    +0.263 C 
ATOM     34  H   UNL     1      -9.595 -10.907  18.278  0.00  0.00    +0.149 HD
BRANCH  22  28
ATOM      6  N   UNL     1     -12.336  -8.865  16.996  0.00  0.00    -0.250 NA
ATOM     28  C   UNL     1     -11.511  -9.221  18.006  0.00  0.00    +0.125 A 
ATOM     30  C   UNL     1     -11.938  -9.811  19.185  0.00  0.00    +0.033 A 
ATOM     31  C   UNL     1     -13.299 -10.052  19.336  0.00  0.00    +0.004 A 
ATOM     32  C   UNL     1     -13.651  -9.113  17.179  0.00  0.00    +0.111 A 
ATOM     33  C   UNL     1     -14.179  -9.700  18.319  0.00  0.00    +0.020 A 
ENDBRANCH  22  28
ENDBRANCH  14   4
BRANCH  10   1
ATOM      1  O   UNL     1      -5.522 -10.252  14.015  0.00  0.00    -0.391 OA
ATOM     35  H   UNL     1      -5.744 -10.844  13.276  0.00  0.00    +0.210 HD
ENDBRANCH  10   1
BRANCH  12  18
ATOM     18  C   UNL     1      -2.945 -11.655  13.872  0.00  0.00    +0.078 C 
ATOM     20  C   UNL     1      -1.849 -12.638  14.242  0.00  0.00    +0.017 C 
BRANCH  18  21
ATOM      2  O   UNL     1      -1.651  -9.713  13.458  0.00  0.00    -0.275 OA
ATOM      5  N   UNL     1      -2.764 -10.625  11.633  0.00  0.00    -0.301 N 
ATOM     21  C   UNL     1      -2.391 -10.575  12.976  0.00  0.00    +0.219 C 
ATOM     23  C   UNL     1      -2.236  -9.635  10.693  0.00  0.00    +0.108 C 
ATOM     24  C   UNL     1      -3.641 -11.637  11.033  0.00  0.00    +0.108 C 
ATOM     25  C   UNL     1      -3.369  -8.931   9.949  0.00  0.00    +0.022 C 
ATOM     26  C   UNL     1      -4.803 -10.975  10.293  0.00  0.00    +0.022 C 
ATOM     27  C   UNL     1      -4.301  -9.945   9.269  0.00  0.00    -0.011 C 
ATOM     29  C   UNL     1      -5.472  -9.239   8.591  0.00  0.00    +0.007 C 
ENDBRANCH  18  21
ENDBRANCH  12  18
TORSDOF 5
ENDMDL
MODEL 2
REMARK VINA RESULT:      -7.3     28.756     32.009
REMARK  Name = 45361614
REMARK  9 active torsions:
REMARK  status: ('A' for Active; 'I' for Inactive)
REMARK    1  A    between atoms: O_1  and  C_10
REMARK    2  A    between atoms: N_4  and  C_14
REMARK    3  A    between atoms: C_7  and  C_17
REMARK    4  A    between atoms: C_9  and  C_19
REMARK    5  A    between atoms: C_12  and  C_18
REMARK    6  A    between atoms: C_18  and  C_20
REMARK    7  A    between atoms: C_18  and  C_21
REMARK    8  A    between atoms: C_22  and  C_28
REMARK    9  A    between atoms: C_27  and  C_29
REMARK                            x       y       z     vdW  Elec       q    Type
REMARK                         _______ _______ _______ _____ _____    ______ ____
ROOT
ATOM      7  C   UNL     1      19.099   9.422  22.004  0.00  0.00    -0.027 C 
ATOM      8  C   UNL     1      18.305   8.212  21.410  0.00  0.00    +0.028 C 
ATOM      9  C   UNL     1      19.284   7.145  20.801  0.00  0.00    +0.012 C 
ATOM     10  C   UNL     1      17.168   8.693  20.462  0.00  0.00    +0.122 C 
ATOM     11  C   UNL     1      18.116  10.397  22.693  0.00  0.00    +0.007 C 
ATOM     12  C   UNL     1      16.249   9.746  21.124  0.00  0.00    +0.029 C 
ATOM     13  C   UNL     1      20.079   8.902  23.081  0.00  0.00    +0.009 C 
ATOM     14  C   UNL     1      20.312   6.685  21.873  0.00  0.00    +0.076 C 
ATOM     15  C   UNL     1      17.025  10.901  21.757  0.00  0.00    +0.007 C 
ATOM     16  C   UNL     1      21.039   7.843  22.554  0.00  0.00    +0.023 C 
ATOM     17  C   UNL     1      19.894  10.199  20.923  0.00  0.00    +0.011 C 
ATOM     19  C   UNL     1      18.569   5.911  20.224  0.00  0.00    +0.010 C 
ENDROOT
BRANCH  14   4
ATOM      3  O   UNL     1      21.718   4.603  23.264  0.00  0.00    -0.269 OA
ATOM      4  N   UNL     1      21.302   5.788  21.315  0.00  0.00    -0.307 N 
ATOM     22  C   UNL     1      21.927   4.811  22.071  0.00  0.00    +0.263 C 
ATOM     34  H   UNL     1      21.586   5.923  20.348  0.00  0.00    +0.149 HD
BRANCH  22  28
ATOM      6  N   UNL     1      23.716   4.655  20.473  0.00  0.00    -0.250 NA
ATOM     28  C   UNL     1      22.939   3.990  21.357  0.00  0.00    +0.125 A 
ATOM     30  C   UNL     1      23.044   2.632  21.615  0.00  0.00    +0.033 A 
ATOM     31  C   UNL     1      24.008   1.912  20.921  0.00  0.00    +0.004 A 
ATOM     32  C   UNL     1      24.641   3.921  19.817  0.00  0.00    +0.111 A 
ATOM     33  C   UNL     1      24.827   2.560  20.003  0.00  0.00    +0.020 A 
ENDBRANCH  22  28
ENDBRANCH  14   4
BRANCH  10   1
ATOM      1  O   UNL     1      16.336   7.586  20.115  0.00  0.00    -0.391 OA
ATOM     35  H   UNL     1      15.949   7.762  19.240  0.00  0.00    +0.210 HD
ENDBRANCH  10   1
BRANCH  12  18
ATOM     18  C   UNL     1      15.219  10.304  20.135  0.00  0.00    +0.078 C 
ATOM     20  C   UNL     1      15.652  11.655  19.594  0.00  0.00    +0.017 C 
BRANCH  18  21
ATOM      2  O   UNL     1      13.718  11.357  21.636  0.00  0.00    -0.275 OA
ATOM      5  N   UNL     1      12.930   9.465  20.540  0.00  0.00    -0.301 N 
ATOM     21  C   UNL     1      13.892  10.430  20.840  0.00  0.00    +0.219 C 
ATOM     23  C   UNL     1      11.604   9.543  21.155  0.00  0.00    +0.108 C 
ATOM     24  C   UNL     1      13.108   8.353  19.600  0.00  0.00    +0.108 C 
ATOM     25  C   UNL     1      11.253   8.235  21.861  0.00  0.00    +0.022 C 
ATOM     26  C   UNL     1      12.787   7.019  20.273  0.00  0.00    +0.022 C 
ATOM     27  C   UNL     1      11.389   7.036  20.910  0.00  0.00    -0.011 C 
ATOM     29  C   UNL     1      11.110   5.726  21.642  0.00  0.00    +0.007 C 
ENDBRANCH  18  21
ENDBRANCH  12  18
TORSDOF 5
ENDMDL
MODEL 3
REMARK VINA RESULT:      -7.1      1.749      2.096
REMARK  Name = 45361614
REMARK  9 active torsions:
REMARK  status: ('A' for Active; 'I' for Inactive)
REMARK    1  A    between atoms: O_1  and  C_10
REMARK    2  A    between atoms: N_4  and  C_14
REMARK    3  A    between atoms: C_7  and  C_17
REMARK    4  A    between atoms: C_9  and  C_19
REMARK    5  A    between atoms: C_12  and  C_18
REMARK    6  A    between atoms: C_18  and  C_20
REMARK    7  A    between atoms: C_18  and  C_21
REMARK    8  A    between atoms: C_22  and  C_28
REMARK    9  A    between atoms: C_27  and  C_29
REMARK                            x       y       z     vdW  Elec       q    Type
REMARK                         _______ _______ _______ _____ _____    ______ ____
ROOT
ATOM      7  C   UNL     1      -4.771 -11.343  17.257  0.00  0.00    -0.027 C 
ATOM      8  C   UNL     1      -5.727 -10.588  16.276  0.00  0.00    +0.028 C 
ATOM      9  C   UNL     1      -7.201 -10.589  16.819  0.00  0.00    +0.012 C 
ATOM     10  C   UNL     1      -5.553 -11.095  14.815  0.00  0.00    +0.122 C 
ATOM     11  C   UNL     1      -3.314 -11.225  16.752  0.00  0.00    +0.007 C 
ATOM     12  C   UNL     1      -4.078 -11.073  14.351  0.00  0.00    +0.029 C 
ATOM     13  C   UNL     1      -4.842 -10.670  18.648  0.00  0.00    +0.009 C 
ATOM     14  C   UNL     1      -7.249  -9.978  18.248  0.00  0.00    +0.076 C 
ATOM     15  C   UNL     1      -3.132 -11.759  15.336  0.00  0.00    +0.007 C 
ATOM     16  C   UNL     1      -6.254 -10.618  19.215  0.00  0.00    +0.023 C 
ATOM     17  C   UNL     1      -5.130 -12.844  17.398  0.00  0.00    +0.011 C 
ATOM     19  C   UNL     1      -8.192  -9.836  15.915  0.00  0.00    +0.010 C 
ENDROOT
BRANCH  14   4
ATOM      3  O   UNL     1      -8.523 -12.348  19.252  0.00  0.00    -0.269 OA
ATOM      4  N   UNL     1      -8.573 -10.070  18.826  0.00  0.00    -0.307 N 
ATOM     22  C   UNL     1      -9.101 -11.265  19.284  0.00  0.00    +0.263 C 
ATOM     34  H   UNL     1      -9.153  -9.234  18.839  0.00  0.00    +0.149 HD
BRANCH  22  28
ATOM      6  N   UNL     1     -10.968 -12.345  20.345  0.00  0.00    -0.250 NA
ATOM     28  C   UNL     1     -10.484 -11.195  19.823  0.00  0.00    +0.125 A 
ATOM     30  C   UNL     1     -11.193 -10.006  19.774  0.00  0.00    +0.033 A 
ATOM     31  C   UNL     1     -12.482  -9.996  20.294  0.00  0.00    +0.004 A 
ATOM     32  C   UNL     1     -12.224 -12.297  20.840  0.00  0.00    +0.111 A 
ATOM     33  C   UNL     1     -13.015 -11.158  20.840  0.00  0.00    +0.020 A 
ENDBRANCH  22  28
ENDBRANCH  14   4
BRANCH  10   1
ATOM      1  O   UNL     1      -6.274 -10.244  13.924  0.00  0.00    -0.391 OA
ATOM     35  H   UNL     1      -5.642  -9.624  13.520  0.00  0.00    +0.210 HD
ENDBRANCH  10   1
BRANCH  12  18
ATOM     18  C   UNL     1      -3.910 -11.699  12.961  0.00  0.00    +0.078 C 
ATOM     20  C   UNL     1      -2.948 -12.873  13.000  0.00  0.00    +0.017 C 
BRANCH  18  21
ATOM      2  O   UNL     1      -2.366 -10.028  12.298  0.00  0.00    -0.275 OA
ATOM      5  N   UNL     1      -4.147 -10.422  10.859  0.00  0.00    -0.301 N 
ATOM     21  C   UNL     1      -3.398 -10.641  12.015  0.00  0.00    +0.219 C 
ATOM     23  C   UNL     1      -3.694  -9.439   9.873  0.00  0.00    +0.108 C 
ATOM     24  C   UNL     1      -5.377 -11.134  10.496  0.00  0.00    +0.108 C 
ATOM     25  C   UNL     1      -4.789  -8.418   9.577  0.00  0.00    +0.022 C 
ATOM     26  C   UNL     1      -6.510 -10.148  10.211  0.00  0.00    +0.022 C 
ATOM     27  C   UNL     1      -6.095  -9.110   9.157  0.00  0.00    -0.011 C 
ATOM     29  C   UNL     1      -7.206  -8.087   8.935  0.00  0.00    +0.007 C 
ENDBRANCH  18  21
ENDBRANCH  12  18
TORSDOF 5
ENDMDL
MODEL 4
REMARK VINA RESULT:      -7.0     18.199     20.160
REMARK  Name = 45361614
REMARK  9 active torsions:
REMARK  status: ('A' for Active; 'I' for Inactive)
REMARK    1  A    between atoms: O_1  and  C_10
REMARK    2  A    between atoms: N_4  and  C_14
REMARK    3  A    between atoms: C_7  and  C_17
REMARK    4  A    between atoms: C_9  and  C_19
REMARK    5  A    between atoms: C_12  and  C_18
REMARK    6  A    between atoms: C_18  and  C_20
REMARK    7  A    between atoms: C_18  and  C_21
REMARK    8  A    between atoms: C_22  and  C_28
REMARK    9  A    between atoms: C_27  and  C_29
REMARK                            x       y       z     vdW  Elec       q    Type
REMARK                         _______ _______ _______ _____ _____    ______ ____
ROOT
ATOM      7  C   UNL     1     -15.249   7.676  20.562  0.00  0.00    -0.027 C 
ATOM      8  C   UNL     1     -13.899   6.954  20.887  0.00  0.00    +0.028 C 
ATOM      9  C   UNL     1     -14.094   5.889  22.025  0.00  0.00    +0.012 C 
ATOM     10  C   UNL     1     -12.752   7.979  21.119  0.00  0.00    +0.122 C 
ATOM     11  C   UNL     1     -15.047   8.633  19.364  0.00  0.00    +0.007 C 
ATOM     12  C   UNL     1     -12.623   8.999  19.964  0.00  0.00    +0.029 C 
ATOM     13  C   UNL     1     -16.299   6.620  20.149  0.00  0.00    +0.009 C 
ATOM     14  C   UNL     1     -15.205   4.876  21.630  0.00  0.00    +0.076 C 
ATOM     15  C   UNL     1     -13.952   9.664  19.604  0.00  0.00    +0.007 C 
ATOM     16  C   UNL     1     -16.512   5.544  21.205  0.00  0.00    +0.023 C 
ATOM     17  C   UNL     1     -15.790   8.491  21.765  0.00  0.00    +0.011 C 
ATOM     19  C   UNL     1     -12.809   5.119  22.375  0.00  0.00    +0.010 C 
ENDROOT
BRANCH  14   4
ATOM      3  O   UNL     1     -16.344   5.517  24.188  0.00  0.00    -0.269 OA
ATOM      4  N   UNL     1     -15.492   3.950  22.706  0.00  0.00    -0.307 N 
ATOM     22  C   UNL     1     -16.045   4.358  23.907  0.00  0.00    +0.263 C 
ATOM     34  H   UNL     1     -15.222   2.977  22.589  0.00  0.00    +0.149 HD
BRANCH  22  28
ATOM      6  N   UNL     1     -16.529   2.062  24.426  0.00  0.00    -0.250 NA
ATOM     28  C   UNL     1     -16.253   3.290  24.919  0.00  0.00    +0.125 A 
ATOM     30  C   UNL     1     -16.159   3.581  26.271  0.00  0.00    +0.033 A 
ATOM     31  C   UNL     1     -16.361   2.545  27.174  0.00  0.00    +0.004 A 
ATOM     32  C   UNL     1     -16.720   1.080  25.335  0.00  0.00    +0.111 A 
ATOM     33  C   UNL     1     -16.647   1.267  26.707  0.00  0.00    +0.020 A 
ENDBRANCH  22  28
ENDBRANCH  14   4
BRANCH  10   1
ATOM      1  O   UNL     1     -11.504   7.290  21.196  0.00  0.00    -0.391 OA
ATOM     35  H   UNL     1     -10.808   7.885  20.867  0.00  0.00    +0.210 HD
ENDBRANCH  10   1
BRANCH  12  18
ATOM     18  C   UNL     1     -11.578  10.078  20.272  0.00  0.00    +0.078 C 
ATOM     20  C   UNL     1     -12.019  10.954  21.431  0.00  0.00    +0.017 C 
BRANCH  18  21
ATOM      2  O   UNL     1     -11.804  12.074  19.015  0.00  0.00    -0.275 OA
ATOM      5  N   UNL     1     -10.699  10.315  17.975  0.00  0.00    -0.301 N 
ATOM     21  C   UNL     1     -11.374  10.918  19.036  0.00  0.00    +0.219 C 
ATOM     23  C   UNL     1     -10.427  11.079  16.756  0.00  0.00    +0.108 C 
ATOM     24  C   UNL     1     -10.176   8.944  17.971  0.00  0.00    +0.108 C 
ATOM     25  C   UNL     1     -10.960  10.349  15.525  0.00  0.00    +0.022 C 
ATOM     26  C   UNL     1     -10.702   8.168  16.763  0.00  0.00    +0.022 C 
ATOM     27  C   UNL     1     -10.414   8.915  15.451  0.00  0.00    -0.011 C 
ATOM     29  C   UNL     1     -11.010   8.167  14.260  0.00  0.00    +0.007 C 
ENDBRANCH  18  21
ENDBRANCH  12  18
TORSDOF 5
ENDMDL
MODEL 5
REMARK VINA RESULT:      -6.8      3.707      7.669
REMARK  Name = 45361614
REMARK  9 active torsions:
REMARK  status: ('A' for Active; 'I' for Inactive)
REMARK    1  A    between atoms: O_1  and  C_10
REMARK    2  A    between atoms: N_4  and  C_14
REMARK    3  A    between atoms: C_7  and  C_17
REMARK    4  A    between atoms: C_9  and  C_19
REMARK    5  A    between atoms: C_12  and  C_18
REMARK    6  A    between atoms: C_18  and  C_20
REMARK    7  A    between atoms: C_18  and  C_21
REMARK    8  A    between atoms: C_22  and  C_28
REMARK    9  A    between atoms: C_27  and  C_29
REMARK                            x       y       z     vdW  Elec       q    Type
REMARK                         _______ _______ _______ _____ _____    ______ ____
ROOT
ATOM      7  C   UNL     1      -4.432 -10.568  10.311  0.00  0.00    -0.027 C 
ATOM      8  C   UNL     1      -5.507 -10.641  11.446  0.00  0.00    +0.028 C 
ATOM      9  C   UNL     1      -6.501  -9.429  11.353  0.00  0.00    +0.012 C 
ATOM     10  C   UNL     1      -4.845 -10.859  12.838  0.00  0.00    +0.122 C 
ATOM     11  C   UNL     1      -3.541 -11.831  10.361  0.00  0.00    +0.007 C 
ATOM     12  C   UNL     1      -3.875 -12.063  12.852  0.00  0.00    +0.029 C 
ATOM     13  C   UNL     1      -5.146 -10.550   8.941  0.00  0.00    +0.009 C 
ATOM     14  C   UNL     1      -7.157  -9.377   9.945  0.00  0.00    +0.076 C 
ATOM     15  C   UNL     1      -2.859 -12.025  11.710  0.00  0.00    +0.007 C 
ATOM     16  C   UNL     1      -6.144  -9.409   8.802  0.00  0.00    +0.023 C 
ATOM     17  C   UNL     1      -3.527  -9.315  10.432  0.00  0.00    +0.011 C 
ATOM     19  C   UNL     1      -7.605  -9.455  12.424  0.00  0.00    +0.010 C 
ENDROOT
BRANCH  14   4
ATOM      3  O   UNL     1      -9.612  -9.208   8.463  0.00  0.00    -0.269 OA
ATOM      4  N   UNL     1      -7.992  -8.205   9.786  0.00  0.00    -0.307 N 
ATOM     22  C   UNL     1      -9.163  -8.224   9.048  0.00  0.00    +0.263 C 
ATOM     34  H   UNL     1      -7.671  -7.326  10.184  0.00  0.00    +0.149 HD
BRANCH  22  28
ATOM      6  N   UNL     1     -11.196  -6.969   9.312  0.00  0.00    -0.250 NA
ATOM     28  C   UNL     1      -9.892  -6.933   8.958  0.00  0.00    +0.125 A 
ATOM     30  C   UNL     1      -9.234  -5.788   8.535  0.00  0.00    +0.033 A 
ATOM     31  C   UNL     1      -9.962  -4.606   8.471  0.00  0.00    +0.004 A 
ATOM     32  C   UNL     1     -11.871  -5.801   9.236  0.00  0.00    +0.111 A 
ATOM     33  C   UNL     1     -11.306  -4.603   8.826  0.00  0.00    +0.020 A 
ENDBRANCH  22  28
ENDBRANCH  14   4
BRANCH  10   1
ATOM      1  O   UNL     1      -5.855 -11.137  13.808  0.00  0.00    -0.391 OA
ATOM     35  H   UNL     1      -5.674 -10.596  14.596  0.00  0.00    +0.210 HD
ENDBRANCH  10   1
BRANCH  12  18
ATOM     18  C   UNL     1      -3.135 -12.180  14.190  0.00  0.00    +0.078 C 
ATOM     20  C   UNL     1      -1.744 -12.759  14.000  0.00  0.00    +0.017 C 
BRANCH  18  21
ATOM      2  O   UNL     1      -4.368 -14.140  14.692  0.00  0.00    -0.275 OA
ATOM      5  N   UNL     1      -4.157 -12.584  16.404  0.00  0.00    -0.301 N 
ATOM     21  C   UNL     1      -3.941 -13.062  15.111  0.00  0.00    +0.219 C 
ATOM     23  C   UNL     1      -4.896 -13.400  17.368  0.00  0.00    +0.108 C 
ATOM     24  C   UNL     1      -3.662 -11.307  16.930  0.00  0.00    +0.108 C 
ATOM     25  C   UNL     1      -6.069 -12.619  17.957  0.00  0.00    +0.022 C 
ATOM     26  C   UNL     1      -4.809 -10.481  17.513  0.00  0.00    +0.022 C 
ATOM     27  C   UNL     1      -5.602 -11.284  18.556  0.00  0.00    -0.011 C 
ATOM     29  C   UNL     1      -6.788 -10.475  19.075  0.00  0.00    +0.007 C 
ENDBRANCH  18  21
ENDBRANCH  12  18
TORSDOF 5
ENDMDL
MODEL 6
REMARK VINA RESULT:      -6.8      2.533      4.276
REMARK  Name = 45361614
REMARK  9 active torsions:
REMARK  status: ('A' for Active; 'I' for Inactive)
REMARK    1  A    between atoms: O_1  and  C_10
REMARK    2  A    between atoms: N_4  and  C_14
REMARK    3  A    between atoms: C_7  and  C_17
REMARK    4  A    between atoms: C_9  and  C_19
REMARK    5  A    between atoms: C_12  and  C_18
REMARK    6  A    between atoms: C_18  and  C_20
REMARK    7  A    between atoms: C_18  and  C_21
REMARK    8  A    between atoms: C_22  and  C_28
REMARK    9  A    between atoms: C_27  and  C_29
REMARK                            x       y       z     vdW  Elec       q    Type
REMARK                         _______ _______ _______ _____ _____    ______ ____
ROOT
ATOM      7  C   UNL     1      -9.318 -10.834  18.371  0.00  0.00    -0.027 C 
ATOM      8  C   UNL     1      -8.688  -9.977  17.224  0.00  0.00    +0.028 C 
ATOM      9  C   UNL     1      -9.805  -9.357  16.311  0.00  0.00    +0.012 C 
ATOM     10  C   UNL     1      -7.574 -10.767  16.477  0.00  0.00    +0.122 C 
ATOM     11  C   UNL     1      -8.201 -11.336  19.316  0.00  0.00    +0.007 C 
ATOM     12  C   UNL     1      -6.515 -11.354  17.438  0.00  0.00    +0.029 C 
ATOM     13  C   UNL     1     -10.271  -9.943  19.201  0.00  0.00    +0.009 C 
ATOM     14  C   UNL     1     -10.800  -8.524  17.167  0.00  0.00    +0.076 C 
ATOM     15  C   UNL     1      -7.130 -12.144  18.593  0.00  0.00    +0.007 C 
ATOM     16  C   UNL     1     -11.363  -9.292  18.362  0.00  0.00    +0.023 C 
ATOM     17  C   UNL     1     -10.103 -12.059  17.834  0.00  0.00    +0.011 C 
ATOM     19  C   UNL     1      -9.254  -8.475  15.177  0.00  0.00    +0.010 C 
ENDROOT
BRANCH  14   4
ATOM      3  O   UNL     1     -11.274  -5.802  16.383  0.00  0.00    -0.269 OA
ATOM      4  N   UNL     1     -11.908  -8.033  16.375  0.00  0.00    -0.307 N 
ATOM     22  C   UNL     1     -12.049  -6.695  16.048  0.00  0.00    +0.263 C 
ATOM     34  H   UNL     1     -12.634  -8.690  16.101  0.00  0.00    +0.149 HD
BRANCH  22  28
ATOM      6  N   UNL     1     -13.060  -5.467  14.246  0.00  0.00    -0.250 NA
ATOM     28  C   UNL     1     -13.255  -6.349  15.252  0.00  0.00    +0.125 A 
ATOM     30  C   UNL     1     -14.480  -6.919  15.558  0.00  0.00    +0.033 A 
ATOM     31  C   UNL     1     -15.576  -6.561  14.781  0.00  0.00    +0.004 A 
ATOM     32  C   UNL     1     -14.148  -5.143  13.513  0.00  0.00    +0.111 A 
ATOM     33  C   UNL     1     -15.416  -5.657  13.737  0.00  0.00    +0.020 A 
ENDBRANCH  22  28
ENDBRANCH  14   4
BRANCH  10   1
ATOM      1  O   UNL     1      -6.879  -9.888  15.591  0.00  0.00    -0.391 OA
ATOM     35  H   UNL     1      -6.543  -9.139  16.111  0.00  0.00    +0.210 HD
ENDBRANCH  10   1
BRANCH  12  18
ATOM     18  C   UNL     1      -5.503 -12.236  16.697  0.00  0.00    +0.078 C 
ATOM     20  C   UNL     1      -5.368 -13.594  17.363  0.00  0.00    +0.017 C 
BRANCH  18  21
ATOM      2  O   UNL     1      -3.851 -10.824  17.642  0.00  0.00    -0.275 OA
ATOM      5  N   UNL     1      -3.369 -11.732  15.559  0.00  0.00    -0.301 N 
ATOM     21  C   UNL     1      -4.169 -11.532  16.683  0.00  0.00    +0.219 C 
ATOM     23  C   UNL     1      -2.044 -11.114  15.488  0.00  0.00    +0.108 C 
ATOM     24  C   UNL     1      -3.720 -12.568  14.405  0.00  0.00    +0.108 C 
ATOM     25  C   UNL     1      -1.896 -10.287  14.213  0.00  0.00    +0.022 C 
ATOM     26  C   UNL     1      -3.605 -11.771  13.105  0.00  0.00    +0.022 C 
ATOM     27  C   UNL     1      -2.218 -11.125  12.966  0.00  0.00    -0.011 C 
ATOM     29  C   UNL     1      -2.141 -10.272  11.702  0.00  0.00    +0.007 C 
ENDBRANCH  18  21
ENDBRANCH  12  18
TORSDOF 5
ENDMDL
MODEL 7
REMARK VINA RESULT:      -6.7     24.967     27.527
REMARK  Name = 45361614
REMARK  9 active torsions:
REMARK  status: ('A' for Active; 'I' for Inactive)
REMARK    1  A    between atoms: O_1  and  C_10
REMARK    2  A    between atoms: N_4  and  C_14
REMARK    3  A    between atoms: C_7  and  C_17
REMARK    4  A    between atoms: C_9  and  C_19
REMARK    5  A    between atoms: C_12  and  C_18
REMARK    6  A    between atoms: C_18  and  C_20
REMARK    7  A    between atoms: C_18  and  C_21
REMARK    8  A    between atoms: C_22  and  C_28
REMARK    9  A    between atoms: C_27  and  C_29
REMARK                            x       y       z     vdW  Elec       q    Type
REMARK                         _______ _______ _______ _____ _____    ______ ____
ROOT
ATOM      7  C   UNL     1       9.588   5.826   5.854  0.00  0.00    -0.027 C 
ATOM      8  C   UNL     1      10.527   6.979   5.367  0.00  0.00    +0.028 C 
ATOM      9  C   UNL     1      10.029   8.370   5.902  0.00  0.00    +0.012 C 
ATOM     10  C   UNL     1      10.767   6.901   3.831  0.00  0.00    +0.122 C 
ATOM     11  C   UNL     1      10.168   4.464   5.407  0.00  0.00    +0.007 C 
ATOM     12  C   UNL     1      11.248   5.503   3.376  0.00  0.00    +0.029 C 
ATOM     13  C   UNL     1       9.542   5.833   7.400  0.00  0.00    +0.009 C 
ATOM     14  C   UNL     1       9.915   8.341   7.452  0.00  0.00    +0.076 C 
ATOM     15  C   UNL     1      10.366   4.369   3.899  0.00  0.00    +0.007 C 
ATOM     16  C   UNL     1       9.090   7.168   7.978  0.00  0.00    +0.023 C 
ATOM     17  C   UNL     1       8.147   5.961   5.300  0.00  0.00    +0.011 C 
ATOM     19  C   UNL     1      10.926   9.548   5.483  0.00  0.00    +0.010 C 
ENDROOT
BRANCH  14   4
ATOM      3  O   UNL     1      11.308  10.399   8.891  0.00  0.00    -0.269 OA
ATOM      4  N   UNL     1       9.348   9.568   7.970  0.00  0.00    -0.307 N 
ATOM     22  C   UNL     1      10.107  10.503   8.654  0.00  0.00    +0.263 C 
ATOM     34  H   UNL     1       8.347   9.716   7.876  0.00  0.00    +0.149 HD
BRANCH  22  28
ATOM      6  N   UNL     1       9.444  12.795   8.360  0.00  0.00    -0.250 NA
ATOM     28  C   UNL     1       9.371  11.697   9.145  0.00  0.00    +0.125 A 
ATOM     30  C   UNL     1       8.668  11.641  10.339  0.00  0.00    +0.033 A 
ATOM     31  C   UNL     1       7.996  12.785  10.751  0.00  0.00    +0.004 A 
ATOM     32  C   UNL     1       8.779  13.888   8.794  0.00  0.00    +0.111 A 
ATOM     33  C   UNL     1       8.047  13.935   9.971  0.00  0.00    +0.020 A 
ENDBRANCH  22  28
ENDBRANCH  14   4
BRANCH  10   1
ATOM      1  O   UNL     1      11.790   7.825   3.460  0.00  0.00    -0.391 OA
ATOM     35  H   UNL     1      11.924   7.759   2.499  0.00  0.00    +0.210 HD
ENDBRANCH  10   1
BRANCH  12  18
ATOM     18  C   UNL     1      11.352   5.408   1.849  0.00  0.00    +0.078 C 
ATOM     20  C   UNL     1      10.042   4.943   1.238  0.00  0.00    +0.017 C 
BRANCH  18  21
ATOM      2  O   UNL     1      12.519   3.359   2.089  0.00  0.00    -0.275 OA
ATOM      5  N   UNL     1      13.357   4.851   0.517  0.00  0.00    -0.301 N 
ATOM     21  C   UNL     1      12.457   4.442   1.501  0.00  0.00    +0.219 C 
ATOM     23  C   UNL     1      14.434   3.953   0.096  0.00  0.00    +0.108 C 
ATOM     24  C   UNL     1      13.308   6.131  -0.199  0.00  0.00    +0.108 C 
ATOM     25  C   UNL     1      15.792   4.639   0.214  0.00  0.00    +0.022 C 
ATOM     26  C   UNL     1      14.646   6.863  -0.089  0.00  0.00    +0.022 C 
ATOM     27  C   UNL     1      15.810   5.973  -0.549  0.00  0.00    -0.011 C 
ATOM     29  C   UNL     1      17.146   6.688  -0.364  0.00  0.00    +0.007 C 
ENDBRANCH  18  21
ENDBRANCH  12  18
TORSDOF 5
ENDMDL
MODEL 8
REMARK VINA RESULT:      -6.7     23.438     28.074
REMARK  Name = 45361614
REMARK  9 active torsions:
REMARK  status: ('A' for Active; 'I' for Inactive)
REMARK    1  A    between atoms: O_1  and  C_10
REMARK    2  A    between atoms: N_4  and  C_14
REMARK    3  A    between atoms: C_7  and  C_17
REMARK    4  A    between atoms: C_9  and  C_19
REMARK    5  A    between atoms: C_12  and  C_18
REMARK    6  A    between atoms: C_18  and  C_20
REMARK    7  A    between atoms: C_18  and  C_21
REMARK    8  A    between atoms: C_22  and  C_28
REMARK    9  A    between atoms: C_27  and  C_29
REMARK                            x       y       z     vdW  Elec       q    Type
REMARK                         _______ _______ _______ _____ _____    ______ ____
ROOT
ATOM      7  C   UNL     1      13.518   7.088   1.600  0.00  0.00    -0.027 C 
ATOM      8  C   UNL     1      12.626   5.809   1.475  0.00  0.00    +0.028 C 
ATOM      9  C   UNL     1      12.156   5.314   2.890  0.00  0.00    +0.012 C 
ATOM     10  C   UNL     1      13.305   4.731   0.582  0.00  0.00    +0.122 C 
ATOM     11  C   UNL     1      13.869   7.613   0.188  0.00  0.00    +0.007 C 
ATOM     12  C   UNL     1      13.747   5.289  -0.791  0.00  0.00    +0.029 C 
ATOM     13  C   UNL     1      12.718   8.192   2.327  0.00  0.00    +0.009 C 
ATOM     14  C   UNL     1      11.417   6.457   3.642  0.00  0.00    +0.076 C 
ATOM     15  C   UNL     1      14.571   6.572  -0.676  0.00  0.00    +0.007 C 
ATOM     16  C   UNL     1      12.213   7.761   3.698  0.00  0.00    +0.023 C 
ATOM     17  C   UNL     1      14.835   6.819   2.373  0.00  0.00    +0.011 C 
ATOM     19  C   UNL     1      11.247   4.074   2.839  0.00  0.00    +0.010 C 
ENDROOT
BRANCH  14   4
ATOM      3  O   UNL     1       8.802   6.511   4.826  0.00  0.00    -0.269 OA
ATOM      4  N   UNL     1      11.072   6.073   4.995  0.00  0.00    -0.307 N 
ATOM     22  C   UNL     1       9.775   6.135   5.474  0.00  0.00    +0.263 C 
ATOM     34  H   UNL     1      11.822   5.805   5.627  0.00  0.00    +0.149 HD
BRANCH  22  28
ATOM      6  N   UNL     1       9.875   4.441   7.177  0.00  0.00    -0.250 NA
ATOM     28  C   UNL     1       9.591   5.731   6.892  0.00  0.00    +0.125 A 
ATOM     30  C   UNL     1       9.154   6.655   7.829  0.00  0.00    +0.033 A 
ATOM     31  C   UNL     1       9.000   6.226   9.142  0.00  0.00    +0.004 A 
ATOM     32  C   UNL     1       9.712   4.060   8.463  0.00  0.00    +0.111 A 
ATOM     33  C   UNL     1       9.282   4.905   9.474  0.00  0.00    +0.020 A 
ENDBRANCH  22  28
ENDBRANCH  14   4
BRANCH  10   1
ATOM      1  O   UNL     1      12.377   3.678   0.315  0.00  0.00    -0.391 OA
ATOM     35  H   UNL     1      12.882   2.861   0.166  0.00  0.00    +0.210 HD
ENDBRANCH  10   1
BRANCH  12  18
ATOM     18  C   UNL     1      14.530   4.250  -1.602  0.00  0.00    +0.078 C 
ATOM     20  C   UNL     1      16.026   4.411  -1.402  0.00  0.00    +0.017 C 
BRANCH  18  21
ATOM      2  O   UNL     1      14.810   5.229  -3.741  0.00  0.00    -0.275 OA
ATOM      5  N   UNL     1      13.147   3.617  -3.549  0.00  0.00    -0.301 N 
ATOM     21  C   UNL     1      14.182   4.414  -3.060  0.00  0.00    +0.219 C 
ATOM     23  C   UNL     1      12.777   3.691  -4.963  0.00  0.00    +0.108 C 
ATOM     24  C   UNL     1      12.383   2.641  -2.764  0.00  0.00    +0.108 C 
ATOM     25  C   UNL     1      11.287   3.983  -5.122  0.00  0.00    +0.022 C 
ATOM     26  C   UNL     1      10.883   2.910  -2.878  0.00  0.00    +0.022 C 
ATOM     27  C   UNL     1      10.435   2.967  -4.347  0.00  0.00    -0.011 C 
ATOM     29  C   UNL     1       8.951   3.310  -4.449  0.00  0.00    +0.007 C 
ENDBRANCH  18  21
ENDBRANCH  12  18
TORSDOF 5
ENDMDL
MODEL 9
REMARK VINA RESULT:      -6.7      3.600      8.496
REMARK  Name = 45361614
REMARK  9 active torsions:
REMARK  status: ('A' for Active; 'I' for Inactive)
REMARK    1  A    between atoms: O_1  and  C_10
REMARK    2  A    between atoms: N_4  and  C_14
REMARK    3  A    between atoms: C_7  and  C_17
REMARK    4  A    between atoms: C_9  and  C_19
REMARK    5  A    between atoms: C_12  and  C_18
REMARK    6  A    between atoms: C_18  and  C_20
REMARK    7  A    between atoms: C_18  and  C_21
REMARK    8  A    between atoms: C_22  and  C_28
REMARK    9  A    between atoms: C_27  and  C_29
REMARK                            x       y       z     vdW  Elec       q    Type
REMARK                         _______ _______ _______ _____ _____    ______ ____
ROOT
ATOM      7  C   UNL     1      -3.939 -10.625  10.409  0.00  0.00    -0.027 C 
ATOM      8  C   UNL     1      -5.272 -10.636  11.228  0.00  0.00    +0.028 C 
ATOM      9  C   UNL     1      -6.363  -9.746  10.533  0.00  0.00    +0.012 C 
ATOM     10  C   UNL     1      -5.014 -10.327  12.731  0.00  0.00    +0.122 C 
ATOM     11  C   UNL     1      -2.926 -11.597  11.057  0.00  0.00    +0.007 C 
ATOM     12  C   UNL     1      -3.925 -11.235  13.346  0.00  0.00    +0.029 C 
ATOM     13  C   UNL     1      -4.224 -11.128   8.975  0.00  0.00    +0.009 C 
ATOM     14  C   UNL     1      -6.587 -10.214   9.067  0.00  0.00    +0.076 C 
ATOM     15  C   UNL     1      -2.641 -11.272  12.518  0.00  0.00    +0.007 C 
ATOM     16  C   UNL     1      -5.295 -10.317   8.259  0.00  0.00    +0.023 C 
ATOM     17  C   UNL     1      -3.299  -9.214  10.337  0.00  0.00    +0.011 C 
ATOM     19  C   UNL     1      -7.713  -9.736  11.272  0.00  0.00    +0.010 C 
ENDROOT
BRANCH  14   4
ATOM      3  O   UNL     1      -8.612 -11.011   7.194  0.00  0.00    -0.269 OA
ATOM      4  N   UNL     1      -7.502  -9.343   8.360  0.00  0.00    -0.307 N 
ATOM     22  C   UNL     1      -8.449  -9.826   7.473  0.00  0.00    +0.263 C 
ATOM     34  H   UNL     1      -7.403  -8.338   8.481  0.00  0.00    +0.149 HD
BRANCH  22  28
ATOM      6  N   UNL     1      -9.755  -9.127   5.580  0.00  0.00    -0.250 NA
ATOM     28  C   UNL     1      -9.293  -8.801   6.808  0.00  0.00    +0.125 A 
ATOM     30  C   UNL     1      -9.565  -7.600   7.446  0.00  0.00    +0.033 A 
ATOM     31  C   UNL     1     -10.362  -6.676   6.780  0.00  0.00    +0.004 A 
ATOM     32  C   UNL     1     -10.525  -8.204   4.963  0.00  0.00    +0.111 A 
ATOM     33  C   UNL     1     -10.856  -6.975   5.515  0.00  0.00    +0.020 A 
ENDBRANCH  22  28
ENDBRANCH  14   4
BRANCH  10   1
ATOM      1  O   UNL     1      -6.209 -10.559  13.478  0.00  0.00    -0.391 OA
ATOM     35  H   UNL     1      -6.319 -11.519  13.582  0.00  0.00    +0.210 HD
ENDBRANCH  10   1
BRANCH  12  18
ATOM     18  C   UNL     1      -3.592 -10.828  14.787  0.00  0.00    +0.078 C 
ATOM     20  C   UNL     1      -2.122 -10.476  14.932  0.00  0.00    +0.017 C 
BRANCH  18  21
ATOM      2  O   UNL     1      -3.647 -13.123  15.374  0.00  0.00    -0.275 OA
ATOM      5  N   UNL     1      -4.599 -11.643  16.891  0.00  0.00    -0.301 N 
ATOM     21  C   UNL     1      -3.944 -11.972  15.705  0.00  0.00    +0.219 C 
ATOM     23  C   UNL     1      -4.939 -12.693  17.852  0.00  0.00    +0.108 C 
ATOM     24  C   UNL     1      -4.964 -10.285  17.310  0.00  0.00    +0.108 C 
ATOM     25  C   UNL     1      -6.427 -12.662  18.190  0.00  0.00    +0.022 C 
ATOM     26  C   UNL     1      -6.455 -10.203  17.640  0.00  0.00    +0.022 C 
ATOM     27  C   UNL     1      -6.859 -11.268  18.670  0.00  0.00    -0.011 C 
ATOM     29  C   UNL     1      -8.362 -11.225  18.934  0.00  0.00    +0.007 C 
ENDBRANCH  18  21
ENDBRANCH  12  18
TORSDOF 5
ENDMDL
MODEL 10
REMARK VINA RESULT:      -6.6     28.828     31.733
REMARK  Name = 45361614
REMARK  9 active torsions:
REMARK  status: ('A' for Active; 'I' for Inactive)
REMARK    1  A    between atoms: O_1  and  C_10
REMARK    2  A    between atoms: N_4  and  C_14
REMARK    3  A    between atoms: C_7  and  C_17
REMARK    4  A    between atoms: C_9  and  C_19
REMARK    5  A    between atoms: C_12  and  C_18
REMARK    6  A    between atoms: C_18  and  C_20
REMARK    7  A    between atoms: C_18  and  C_21
REMARK    8  A    between atoms: C_22  and  C_28
REMARK    9  A    between atoms: C_27  and  C_29
REMARK                            x       y       z     vdW  Elec       q    Type
REMARK                         _______ _______ _______ _____ _____    ______ ____
ROOT
ATOM      7  C   UNL     1      16.421   6.983  20.074  0.00  0.00    -0.027 C 
ATOM      8  C   UNL     1      16.654   8.526  20.178  0.00  0.00    +0.028 C 
ATOM      9  C   UNL     1      17.325   8.900  21.548  0.00  0.00    +0.012 C 
ATOM     10  C   UNL     1      15.359   9.317  19.830  0.00  0.00    +0.122 C 
ATOM     11  C   UNL     1      15.865   6.637  18.673  0.00  0.00    +0.007 C 
ATOM     12  C   UNL     1      14.750   8.893  18.474  0.00  0.00    +0.029 C 
ATOM     13  C   UNL     1      17.776   6.256  20.235  0.00  0.00    +0.009 C 
ATOM     14  C   UNL     1      18.650   8.107  21.732  0.00  0.00    +0.076 C 
ATOM     15  C   UNL     1      14.575   7.380  18.346  0.00  0.00    +0.007 C 
ATOM     16  C   UNL     1      18.488   6.601  21.536  0.00  0.00    +0.023 C 
ATOM     17  C   UNL     1      15.431   6.459  21.146  0.00  0.00    +0.011 C 
ATOM     19  C   UNL     1      17.610  10.403  21.704  0.00  0.00    +0.010 C 
ENDROOT
BRANCH  14   4
ATOM      3  O   UNL     1      21.451   8.246  22.352  0.00  0.00    -0.269 OA
ATOM      4  N   UNL     1      19.237   8.340  23.035  0.00  0.00    -0.307 N 
ATOM     22  C   UNL     1      20.606   8.389  23.232  0.00  0.00    +0.263 C 
ATOM     34  H   UNL     1      18.617   8.410  23.838  0.00  0.00    +0.149 HD
BRANCH  22  28
ATOM      6  N   UNL     1      20.377   7.912  25.577  0.00  0.00    -0.250 NA
ATOM     28  C   UNL     1      21.049   8.609  24.633  0.00  0.00    +0.125 A 
ATOM     30  C   UNL     1      22.090   9.483  24.908  0.00  0.00    +0.033 A 
ATOM     31  C   UNL     1      22.465   9.650  26.235  0.00  0.00    +0.004 A 
ATOM     32  C   UNL     1      20.769   8.102  26.856  0.00  0.00    +0.111 A 
ATOM     33  C   UNL     1      21.798   8.951  27.235  0.00  0.00    +0.020 A 
ENDBRANCH  22  28
ENDBRANCH  14   4
BRANCH  10   1
ATOM      1  O   UNL     1      15.664  10.708  19.723  0.00  0.00    -0.391 OA
ATOM     35  H   UNL     1      14.835  11.208  19.819  0.00  0.00    +0.210 HD
ENDBRANCH  10   1
BRANCH  12  18
ATOM     18  C   UNL     1      13.408   9.587  18.212  0.00  0.00    +0.078 C 
ATOM     20  C   UNL     1      12.249   8.753  18.728  0.00  0.00    +0.017 C 
BRANCH  18  21
ATOM      2  O   UNL     1      12.670   8.971  16.046  0.00  0.00    -0.275 OA
ATOM      5  N   UNL     1      13.826  10.979  16.214  0.00  0.00    -0.301 N 
ATOM     21  C   UNL     1      13.263   9.811  16.727  0.00  0.00    +0.219 C 
ATOM     23  C   UNL     1      13.693  11.288  14.789  0.00  0.00    +0.108 C 
ATOM     24  C   UNL     1      14.537  11.995  16.999  0.00  0.00    +0.108 C 
ATOM     25  C   UNL     1      15.060  11.538  14.156  0.00  0.00    +0.022 C 
ATOM     26  C   UNL     1      15.922  12.263  16.410  0.00  0.00    +0.022 C 
ATOM     27  C   UNL     1      15.836  12.622  14.919  0.00  0.00    -0.011 C 
ATOM     29  C   UNL     1      17.230  12.813  14.326  0.00  0.00    +0.007 C 
ENDBRANCH  18  21
ENDBRANCH  12  18
TORSDOF 5
ENDMDL
