MODEL 1
REMARK VINA RESULT:      -6.8      0.000      0.000
REMARK  Name = 75536078
REMARK  7 active torsions:
REMARK  status: ('A' for Active; 'I' for Inactive)
REMARK    1  A    between atoms: O_1  and  C_10
REMARK    2  A    between atoms: O_2  and  C_12
REMARK    3  A    between atoms: N_4  and  C_9
REMARK    4  A    between atoms: N_6  and  C_22
REMARK    5  A    between atoms: C_8  and  C_13
REMARK    6  A    between atoms: C_15  and  C_17
REMARK    7  A    between atoms: C_21  and  C_23
REMARK                            x       y       z     vdW  Elec       q    Type
REMARK                         _______ _______ _______ _____ _____    ______ ____
ROOT
ATOM      8  C   UNL     1      14.041   9.074  19.093  0.00  0.00    +0.046 C 
ATOM      9  C   UNL     1      12.641   8.944  19.734  0.00  0.00    +0.112 C 
ATOM     10  C   UNL     1      11.691   9.055  18.542  0.00  0.00    +0.164 C 
ATOM     11  C   UNL     1      13.866   8.662  17.609  0.00  0.00    +0.044 C 
ATOM     12  C   UNL     1      12.402   8.253  17.458  0.00  0.00    +0.145 C 
ENDROOT
BRANCH   8  13
ATOM      5  N   UNL     1      17.161   8.310  21.110  0.00  0.00    -0.263 NA
ATOM     13  C   UNL     1      15.107   8.297  19.835  0.00  0.00    -0.024 A 
ATOM     14  C   UNL     1      15.045   6.912  19.936  0.00  0.00    +0.007 A 
ATOM     16  C   UNL     1      16.176   8.943  20.434  0.00  0.00    +0.114 A 
ATOM     18  C   UNL     1      16.039   6.224  20.623  0.00  0.00    +0.020 A 
ATOM     19  C   UNL     1      17.068   6.963  21.186  0.00  0.00    +0.111 A 
ENDBRANCH   8  13
BRANCH   9   4
ATOM      3  O   UNL     1      10.598   8.939  21.753  0.00  0.00    -0.269 OA
ATOM      4  N   UNL     1      12.397   9.971  20.714  0.00  0.00    -0.304 N 
ATOM     15  C   UNL     1      11.381   9.881  21.656  0.00  0.00    +0.262 C 
ATOM     24  H   UNL     1      13.015  10.778  20.723  0.00  0.00    +0.149 HD
BRANCH  15  17
ATOM      6  N   UNL     1      11.391  12.348  22.235  0.00  0.00    -0.262 N 
ATOM      7  N   UNL     1      11.215  13.201  23.258  0.00  0.00    -0.176 NA
ATOM     17  C   UNL     1      11.243  11.037  22.580  0.00  0.00    +0.123 A 
ATOM     20  C   UNL     1      10.951  11.032  23.922  0.00  0.00    +0.057 A 
ATOM     21  C   UNL     1      10.946  12.391  24.286  0.00  0.00    +0.061 A 
ATOM     22  C   UNL     1      11.705  12.870  20.925  0.00  0.00    +0.173 C 
ATOM     23  C   UNL     1      10.688  12.963  25.618  0.00  0.00    +0.067 C 
ENDBRANCH  15  17
ENDBRANCH   9   4
BRANCH  10   1
ATOM      1  O   UNL     1      10.413   8.516  18.822  0.00  0.00    -0.387 OA
ATOM     25  H   UNL     1       9.752   9.165  18.528  0.00  0.00    +0.210 HD
ENDBRANCH  10   1
BRANCH  12   2
ATOM      2  O   UNL     1      12.291   6.854  17.703  0.00  0.00    -0.389 OA
ATOM     26  H   UNL     1      12.748   6.394  16.978  0.00  0.00    +0.210 HD
ENDBRANCH  12   2
TORSDOF 5
ENDMDL
MODEL 2
REMARK VINA RESULT:      -6.2     26.680     28.137
REMARK  Name = 75536078
REMARK  7 active torsions:
REMARK  status: ('A' for Active; 'I' for Inactive)
REMARK    1  A    between atoms: O_1  and  C_10
REMARK    2  A    between atoms: O_2  and  C_12
REMARK    3  A    between atoms: N_4  and  C_9
REMARK    4  A    between atoms: N_6  and  C_22
REMARK    5  A    between atoms: C_8  and  C_13
REMARK    6  A    between atoms: C_15  and  C_17
REMARK    7  A    between atoms: C_21  and  C_23
REMARK                            x       y       z     vdW  Elec       q    Type
REMARK                         _______ _______ _______ _____ _____    ______ ____
ROOT
ATOM      8  C   UNL     1      -5.226 -11.563  16.712  0.00  0.00    +0.046 C 
ATOM      9  C   UNL     1      -5.670 -10.490  17.733  0.00  0.00    +0.112 C 
ATOM     10  C   UNL     1      -6.175 -11.313  18.917  0.00  0.00    +0.164 C 
ATOM     11  C   UNL     1      -4.940 -12.842  17.540  0.00  0.00    +0.044 C 
ATOM     12  C   UNL     1      -5.166 -12.454  19.000  0.00  0.00    +0.145 C 
ENDROOT
BRANCH   8  13
ATOM      5  N   UNL     1      -3.235 -10.562  13.642  0.00  0.00    -0.263 NA
ATOM     13  C   UNL     1      -4.071 -11.111  15.843  0.00  0.00    -0.024 A 
ATOM     14  C   UNL     1      -2.825 -10.836  16.394  0.00  0.00    +0.007 A 
ATOM     16  C   UNL     1      -4.223 -10.960  14.474  0.00  0.00    +0.114 A 
ATOM     18  C   UNL     1      -1.782 -10.424  15.570  0.00  0.00    +0.020 A 
ATOM     19  C   UNL     1      -2.036 -10.304  14.213  0.00  0.00    +0.111 A 
ENDBRANCH   8  13
BRANCH   9   4
ATOM      3  O   UNL     1      -8.505 -10.937  17.821  0.00  0.00    -0.269 OA
ATOM      4  N   UNL     1      -6.694  -9.629  17.201  0.00  0.00    -0.304 N 
ATOM     15  C   UNL     1      -8.046  -9.928  17.291  0.00  0.00    +0.262 C 
ATOM     24  H   UNL     1      -6.405  -8.757  16.765  0.00  0.00    +0.149 HD
BRANCH  15  17
ATOM      6  N   UNL     1      -9.306  -8.903  15.347  0.00  0.00    -0.262 N 
ATOM      7  N   UNL     1     -10.168  -7.920  15.037  0.00  0.00    -0.176 NA
ATOM     17  C   UNL     1      -8.975  -8.950  16.668  0.00  0.00    +0.123 A 
ATOM     20  C   UNL     1      -9.669  -7.926  17.266  0.00  0.00    +0.057 A 
ATOM     21  C   UNL     1     -10.387  -7.327  16.214  0.00  0.00    +0.061 A 
ATOM     22  C   UNL     1      -8.830  -9.780  14.302  0.00  0.00    +0.173 C 
ATOM     23  C   UNL     1     -11.300  -6.174  16.293  0.00  0.00    +0.067 C 
ENDBRANCH  15  17
ENDBRANCH   9   4
BRANCH  10   1
ATOM      1  O   UNL     1      -6.200 -10.566  20.118  0.00  0.00    -0.387 OA
ATOM     25  H   UNL     1      -6.279 -11.198  20.853  0.00  0.00    +0.210 HD
ENDBRANCH  10   1
BRANCH  12   2
ATOM      2  O   UNL     1      -3.932 -12.005  19.550  0.00  0.00    -0.389 OA
ATOM     26  H   UNL     1      -3.482 -11.480  18.867  0.00  0.00    +0.210 HD
ENDBRANCH  12   2
TORSDOF 5
ENDMDL
MODEL 3
REMARK VINA RESULT:      -6.2     26.317     28.030
REMARK  Name = 75536078
REMARK  7 active torsions:
REMARK  status: ('A' for Active; 'I' for Inactive)
REMARK    1  A    between atoms: O_1  and  C_10
REMARK    2  A    between atoms: O_2  and  C_12
REMARK    3  A    between atoms: N_4  and  C_9
REMARK    4  A    between atoms: N_6  and  C_22
REMARK    5  A    between atoms: C_8  and  C_13
REMARK    6  A    between atoms: C_15  and  C_17
REMARK    7  A    between atoms: C_21  and  C_23
REMARK                            x       y       z     vdW  Elec       q    Type
REMARK                         _______ _______ _______ _____ _____    ______ ____
ROOT
ATOM      8  C   UNL     1      -3.648 -12.886  12.370  0.00  0.00    +0.046 C 
ATOM      9  C   UNL     1      -3.111 -13.169  13.792  0.00  0.00    +0.112 C 
ATOM     10  C   UNL     1      -3.066 -14.694  13.859  0.00  0.00    +0.164 C 
ATOM     11  C   UNL     1      -3.321 -14.151  11.536  0.00  0.00    +0.044 C 
ATOM     12  C   UNL     1      -2.562 -15.087  12.474  0.00  0.00    +0.145 C 
ENDROOT
BRANCH   8  13
ATOM      5  N   UNL     1      -1.389  -9.906  11.735  0.00  0.00    -0.263 NA
ATOM     13  C   UNL     1      -3.117 -11.596  11.782  0.00  0.00    -0.024 A 
ATOM     14  C   UNL     1      -3.818 -10.918  10.791  0.00  0.00    +0.007 A 
ATOM     16  C   UNL     1      -1.919 -11.053  12.216  0.00  0.00    +0.114 A 
ATOM     18  C   UNL     1      -3.306  -9.734  10.272  0.00  0.00    +0.020 A 
ATOM     19  C   UNL     1      -2.098  -9.274  10.774  0.00  0.00    +0.111 A 
ENDBRANCH   8  13
BRANCH   9   4
ATOM      3  O   UNL     1      -2.413 -11.109  15.668  0.00  0.00    -0.269 OA
ATOM      4  N   UNL     1      -3.960 -12.610  14.812  0.00  0.00    -0.304 N 
ATOM     15  C   UNL     1      -3.534 -11.612  15.677  0.00  0.00    +0.262 C 
ATOM     24  H   UNL     1      -4.916 -12.951  14.876  0.00  0.00    +0.149 HD
BRANCH  15  17
ATOM      6  N   UNL     1      -5.622 -10.395  16.440  0.00  0.00    -0.262 N 
ATOM      7  N   UNL     1      -6.357 -10.125  17.531  0.00  0.00    -0.176 NA
ATOM     17  C   UNL     1      -4.522 -11.161  16.691  0.00  0.00    +0.123 A 
ATOM     20  C   UNL     1      -4.539 -11.410  18.042  0.00  0.00    +0.057 A 
ATOM     21  C   UNL     1      -5.691 -10.748  18.508  0.00  0.00    +0.061 A 
ATOM     22  C   UNL     1      -6.042  -9.875  15.159  0.00  0.00    +0.173 C 
ATOM     23  C   UNL     1      -6.193 -10.685  19.890  0.00  0.00    +0.067 C 
ENDBRANCH  15  17
ENDBRANCH   9   4
BRANCH  10   1
ATOM      1  O   UNL     1      -2.195 -15.162  14.871  0.00  0.00    -0.387 OA
ATOM     25  H   UNL     1      -2.511 -14.802  15.717  0.00  0.00    +0.210 HD
ENDBRANCH  10   1
BRANCH  12   2
ATOM      2  O   UNL     1      -1.167 -14.827  12.347  0.00  0.00    -0.389 OA
ATOM     26  H   UNL     1      -0.815 -14.683  13.242  0.00  0.00    +0.210 HD
ENDBRANCH  12   2
TORSDOF 5
ENDMDL
MODEL 4
REMARK VINA RESULT:      -6.1     26.766     28.847
REMARK  Name = 75536078
REMARK  7 active torsions:
REMARK  status: ('A' for Active; 'I' for Inactive)
REMARK    1  A    between atoms: O_1  and  C_10
REMARK    2  A    between atoms: O_2  and  C_12
REMARK    3  A    between atoms: N_4  and  C_9
REMARK    4  A    between atoms: N_6  and  C_22
REMARK    5  A    between atoms: C_8  and  C_13
REMARK    6  A    between atoms: C_15  and  C_17
REMARK    7  A    between atoms: C_21  and  C_23
REMARK                            x       y       z     vdW  Elec       q    Type
REMARK                         _______ _______ _______ _____ _____    ______ ____
ROOT
ATOM      8  C   UNL     1      -6.561 -10.169  17.708  0.00  0.00    +0.046 C 
ATOM      9  C   UNL     1      -5.783 -11.330  17.045  0.00  0.00    +0.112 C 
ATOM     10  C   UNL     1      -4.915 -11.871  18.180  0.00  0.00    +0.164 C 
ATOM     11  C   UNL     1      -6.562 -10.476  19.228  0.00  0.00    +0.044 C 
ATOM     12  C   UNL     1      -5.848 -11.817  19.385  0.00  0.00    +0.145 C 
ENDROOT
BRANCH   8  13
ATOM      5  N   UNL     1      -9.858 -10.897  15.981  0.00  0.00    -0.263 NA
ATOM     13  C   UNL     1      -7.937  -9.962  17.112  0.00  0.00    -0.024 A 
ATOM     14  C   UNL     1      -8.544  -8.712  17.127  0.00  0.00    +0.007 A 
ATOM     16  C   UNL     1      -8.630 -11.013  16.532  0.00  0.00    +0.114 A 
ATOM     18  C   UNL     1      -9.808  -8.552  16.570  0.00  0.00    +0.020 A 
ATOM     19  C   UNL     1     -10.417  -9.666  16.013  0.00  0.00    +0.111 A 
ENDBRANCH   8  13
BRANCH   9   4
ATOM      3  O   UNL     1      -4.842 -12.932  14.856  0.00  0.00    -0.269 OA
ATOM      4  N   UNL     1      -4.991 -10.882  15.929  0.00  0.00    -0.304 N 
ATOM     15  C   UNL     1      -4.581 -11.733  14.912  0.00  0.00    +0.262 C 
ATOM     24  H   UNL     1      -4.749  -9.896  15.881  0.00  0.00    +0.149 HD
BRANCH  15  17
ATOM      6  N   UNL     1      -2.408 -10.877  13.929  0.00  0.00    -0.262 N 
ATOM      7  N   UNL     1      -1.888 -10.316  12.825  0.00  0.00    -0.176 NA
ATOM     17  C   UNL     1      -3.747 -11.122  13.845  0.00  0.00    +0.123 A 
ATOM     20  C   UNL     1      -4.130 -10.690  12.598  0.00  0.00    +0.057 A 
ATOM     21  C   UNL     1      -2.944 -10.205  12.015  0.00  0.00    +0.061 A 
ATOM     22  C   UNL     1      -1.545 -11.159  15.053  0.00  0.00    +0.173 C 
ATOM     23  C   UNL     1      -2.778  -9.619  10.674  0.00  0.00    +0.067 C 
ENDBRANCH  15  17
ENDBRANCH   9   4
BRANCH  10   1
ATOM      1  O   UNL     1      -4.473 -13.192  17.935  0.00  0.00    -0.387 OA
ATOM     25  H   UNL     1      -4.621 -13.705  18.748  0.00  0.00    +0.210 HD
ENDBRANCH  10   1
BRANCH  12   2
ATOM      2  O   UNL     1      -6.816 -12.860  19.327  0.00  0.00    -0.389 OA
ATOM     26  H   UNL     1      -7.328 -12.828  20.153  0.00  0.00    +0.210 HD
ENDBRANCH  12   2
TORSDOF 5
ENDMDL
MODEL 5
REMARK VINA RESULT:      -6.1     15.064     18.176
REMARK  Name = 75536078
REMARK  7 active torsions:
REMARK  status: ('A' for Active; 'I' for Inactive)
REMARK    1  A    between atoms: O_1  and  C_10
REMARK    2  A    between atoms: O_2  and  C_12
REMARK    3  A    between atoms: N_4  and  C_9
REMARK    4  A    between atoms: N_6  and  C_22
REMARK    5  A    between atoms: C_8  and  C_13
REMARK    6  A    between atoms: C_15  and  C_17
REMARK    7  A    between atoms: C_21  and  C_23
REMARK                            x       y       z     vdW  Elec       q    Type
REMARK                         _______ _______ _______ _____ _____    ______ ____
ROOT
ATOM      8  C   UNL     1      10.131   5.657   1.728  0.00  0.00    +0.046 C 
ATOM      9  C   UNL     1      11.427   5.374   2.523  0.00  0.00    +0.112 C 
ATOM     10  C   UNL     1      11.961   4.090   1.890  0.00  0.00    +0.164 C 
ATOM     11  C   UNL     1      10.300   4.923   0.372  0.00  0.00    +0.044 C 
ATOM     12  C   UNL     1      11.694   4.301   0.403  0.00  0.00    +0.145 C 
ENDROOT
BRANCH   8  13
ATOM      5  N   UNL     1      10.312   9.266   0.577  0.00  0.00    -0.263 NA
ATOM     13  C   UNL     1       9.822   7.134   1.605  0.00  0.00    -0.024 A 
ATOM     14  C   UNL     1       8.817   7.721   2.363  0.00  0.00    +0.007 A 
ATOM     16  C   UNL     1      10.534   7.943   0.734  0.00  0.00    +0.114 A 
ATOM     18  C   UNL     1       8.557   9.081   2.230  0.00  0.00    +0.020 A 
ATOM     19  C   UNL     1       9.326   9.803   1.331  0.00  0.00    +0.111 A 
ENDBRANCH   8  13
BRANCH   9   4
ATOM      3  O   UNL     1      11.522   7.429   4.527  0.00  0.00    -0.269 OA
ATOM      4  N   UNL     1      11.173   5.215   3.931  0.00  0.00    -0.304 N 
ATOM     15  C   UNL     1      11.242   6.272   4.829  0.00  0.00    +0.262 C 
ATOM     24  H   UNL     1      10.910   4.292   4.267  0.00  0.00    +0.149 HD
BRANCH  15  17
ATOM      6  N   UNL     1      11.834   6.164   7.290  0.00  0.00    -0.262 N 
ATOM      7  N   UNL     1      11.358   5.769   8.483  0.00  0.00    -0.176 NA
ATOM     17  C   UNL     1      10.979   5.937   6.252  0.00  0.00    +0.123 A 
ATOM     20  C   UNL     1       9.866   5.352   6.805  0.00  0.00    +0.057 A 
ATOM     21  C   UNL     1      10.155   5.274   8.180  0.00  0.00    +0.061 A 
ATOM     22  C   UNL     1      13.146   6.766   7.217  0.00  0.00    +0.173 C 
ATOM     23  C   UNL     1       9.300   4.727   9.247  0.00  0.00    +0.067 C 
ENDBRANCH  15  17
ENDBRANCH   9   4
BRANCH  10   1
ATOM      1  O   UNL     1      13.340   3.902   2.139  0.00  0.00    -0.387 OA
ATOM     25  H   UNL     1      13.822   4.172   1.338  0.00  0.00    +0.210 HD
ENDBRANCH  10   1
BRANCH  12   2
ATOM      2  O   UNL     1      12.620   5.227  -0.155  0.00  0.00    -0.389 OA
ATOM     26  H   UNL     1      13.453   5.141   0.340  0.00  0.00    +0.210 HD
ENDBRANCH  12   2
TORSDOF 5
ENDMDL
MODEL 6
REMARK VINA RESULT:      -6.0     27.412     28.793
REMARK  Name = 75536078
REMARK  7 active torsions:
REMARK  status: ('A' for Active; 'I' for Inactive)
REMARK    1  A    between atoms: O_1  and  C_10
REMARK    2  A    between atoms: O_2  and  C_12
REMARK    3  A    between atoms: N_4  and  C_9
REMARK    4  A    between atoms: N_6  and  C_22
REMARK    5  A    between atoms: C_8  and  C_13
REMARK    6  A    between atoms: C_15  and  C_17
REMARK    7  A    between atoms: C_21  and  C_23
REMARK                            x       y       z     vdW  Elec       q    Type
REMARK                         _______ _______ _______ _____ _____    ______ ____
ROOT
ATOM      8  C   UNL     1      -5.837 -10.297  17.541  0.00  0.00    +0.046 C 
ATOM      9  C   UNL     1      -5.494 -11.291  16.408  0.00  0.00    +0.112 C 
ATOM     10  C   UNL     1      -4.280 -12.044  16.949  0.00  0.00    +0.164 C 
ATOM     11  C   UNL     1      -5.235 -10.906  18.833  0.00  0.00    +0.044 C 
ATOM     12  C   UNL     1      -4.625 -12.244  18.421  0.00  0.00    +0.145 C 
ENDROOT
BRANCH   8  13
ATOM      5  N   UNL     1      -9.469 -10.454  18.622  0.00  0.00    -0.263 NA
ATOM     13  C   UNL     1      -7.316  -9.985  17.628  0.00  0.00    -0.024 A 
ATOM     14  C   UNL     1      -7.887  -8.994  16.838  0.00  0.00    +0.007 A 
ATOM     16  C   UNL     1      -8.143 -10.680  18.496  0.00  0.00    +0.114 A 
ATOM     18  C   UNL     1      -9.249  -8.732  16.939  0.00  0.00    +0.020 A 
ATOM     19  C   UNL     1      -9.990  -9.483  17.837  0.00  0.00    +0.111 A 
ENDBRANCH   8  13
BRANCH   9   4
ATOM      3  O   UNL     1      -5.594 -12.428  13.773  0.00  0.00    -0.269 OA
ATOM      4  N   UNL     1      -5.202 -10.618  15.168  0.00  0.00    -0.304 N 
ATOM     15  C   UNL     1      -5.278 -11.252  13.936  0.00  0.00    +0.262 C 
ATOM     24  H   UNL     1      -4.955  -9.633  15.207  0.00  0.00    +0.149 HD
BRANCH  15  17
ATOM      6  N   UNL     1      -3.688 -10.372  12.170  0.00  0.00    -0.262 N 
ATOM      7  N   UNL     1      -3.624  -9.547  11.112  0.00  0.00    -0.176 NA
ATOM     17  C   UNL     1      -4.919 -10.427  12.754  0.00  0.00    +0.123 A 
ATOM     20  C   UNL     1      -5.717  -9.578  12.026  0.00  0.00    +0.057 A 
ATOM     21  C   UNL     1      -4.867  -9.065  11.028  0.00  0.00    +0.061 A 
ATOM     22  C   UNL     1      -2.504 -11.094  12.576  0.00  0.00    +0.173 C 
ATOM     23  C   UNL     1      -5.207  -8.102   9.968  0.00  0.00    +0.067 C 
ENDBRANCH  15  17
ENDBRANCH   9   4
BRANCH  10   1
ATOM      1  O   UNL     1      -4.082 -13.283  16.297  0.00  0.00    -0.387 OA
ATOM     25  H   UNL     1      -3.505 -13.823  16.864  0.00  0.00    +0.210 HD
ENDBRANCH  10   1
BRANCH  12   2
ATOM      2  O   UNL     1      -5.608 -13.262  18.579  0.00  0.00    -0.389 OA
ATOM     26  H   UNL     1      -6.475 -12.862  18.396  0.00  0.00    +0.210 HD
ENDBRANCH  12   2
TORSDOF 5
ENDMDL
MODEL 7
REMARK VINA RESULT:      -6.0     14.292     16.272
REMARK  Name = 75536078
REMARK  7 active torsions:
REMARK  status: ('A' for Active; 'I' for Inactive)
REMARK    1  A    between atoms: O_1  and  C_10
REMARK    2  A    between atoms: O_2  and  C_12
REMARK    3  A    between atoms: N_4  and  C_9
REMARK    4  A    between atoms: N_6  and  C_22
REMARK    5  A    between atoms: C_8  and  C_13
REMARK    6  A    between atoms: C_15  and  C_17
REMARK    7  A    between atoms: C_21  and  C_23
REMARK                            x       y       z     vdW  Elec       q    Type
REMARK                         _______ _______ _______ _____ _____    ______ ____
ROOT
ATOM      8  C   UNL     1      10.289   6.178   4.874  0.00  0.00    +0.046 C 
ATOM      9  C   UNL     1      11.367   6.176   5.982  0.00  0.00    +0.112 C 
ATOM     10  C   UNL     1      10.568   5.916   7.258  0.00  0.00    +0.164 C 
ATOM     11  C   UNL     1       9.098   5.364   5.444  0.00  0.00    +0.044 C 
ATOM     12  C   UNL     1       9.546   4.873   6.819  0.00  0.00    +0.145 C 
ENDROOT
BRANCH   8  13
ATOM      5  N   UNL     1      11.600   6.183   1.315  0.00  0.00    -0.263 NA
ATOM     13  C   UNL     1      10.807   5.678   3.543  0.00  0.00    -0.024 A 
ATOM     14  C   UNL     1      10.967   4.319   3.300  0.00  0.00    +0.007 A 
ATOM     16  C   UNL     1      11.135   6.561   2.527  0.00  0.00    +0.114 A 
ATOM     18  C   UNL     1      11.444   3.890   2.066  0.00  0.00    +0.020 A 
ATOM     19  C   UNL     1      11.743   4.853   1.116  0.00  0.00    +0.111 A 
ENDBRANCH   8  13
BRANCH   9   4
ATOM      3  O   UNL     1      13.937   6.624   7.183  0.00  0.00    -0.269 OA
ATOM      4  N   UNL     1      12.084   7.424   6.041  0.00  0.00    -0.304 N 
ATOM     15  C   UNL     1      13.328   7.546   6.645  0.00  0.00    +0.262 C 
ATOM     24  H   UNL     1      11.664   8.237   5.598  0.00  0.00    +0.149 HD
BRANCH  15  17
ATOM      6  N   UNL     1      15.196   9.215   6.267  0.00  0.00    -0.262 N 
ATOM      7  N   UNL     1      15.490  10.522   6.360  0.00  0.00    -0.176 NA
ATOM     17  C   UNL     1      13.923   8.907   6.646  0.00  0.00    +0.123 A 
ATOM     20  C   UNL     1      13.343  10.097   7.013  0.00  0.00    +0.057 A 
ATOM     21  C   UNL     1      14.353  11.057   6.815  0.00  0.00    +0.061 A 
ATOM     22  C   UNL     1      16.206   8.296   5.795  0.00  0.00    +0.173 C 
ATOM     23  C   UNL     1      14.272  12.507   7.055  0.00  0.00    +0.067 C 
ENDBRANCH  15  17
ENDBRANCH   9   4
BRANCH  10   1
ATOM      1  O   UNL     1      11.378   5.427   8.309  0.00  0.00    -0.387 OA
ATOM     25  H   UNL     1      11.639   4.519   8.078  0.00  0.00    +0.210 HD
ENDBRANCH  10   1
BRANCH  12   2
ATOM      2  O   UNL     1      10.154   3.594   6.671  0.00  0.00    -0.389 OA
ATOM     26  H   UNL     1      10.819   3.504   7.375  0.00  0.00    +0.210 HD
ENDBRANCH  12   2
TORSDOF 5
ENDMDL
MODEL 8
REMARK VINA RESULT:      -5.8     16.504     20.081
REMARK  Name = 75536078
REMARK  7 active torsions:
REMARK  status: ('A' for Active; 'I' for Inactive)
REMARK    1  A    between atoms: O_1  and  C_10
REMARK    2  A    between atoms: O_2  and  C_12
REMARK    3  A    between atoms: N_4  and  C_9
REMARK    4  A    between atoms: N_6  and  C_22
REMARK    5  A    between atoms: C_8  and  C_13
REMARK    6  A    between atoms: C_15  and  C_17
REMARK    7  A    between atoms: C_21  and  C_23
REMARK                            x       y       z     vdW  Elec       q    Type
REMARK                         _______ _______ _______ _____ _____    ______ ____
ROOT
ATOM      8  C   UNL     1      11.985   7.351   3.466  0.00  0.00    +0.046 C 
ATOM      9  C   UNL     1      12.936   6.200   3.063  0.00  0.00    +0.112 C 
ATOM     10  C   UNL     1      14.318   6.848   3.108  0.00  0.00    +0.164 C 
ATOM     11  C   UNL     1      12.854   8.356   4.264  0.00  0.00    +0.044 C 
ATOM     12  C   UNL     1      14.245   7.733   4.348  0.00  0.00    +0.145 C 
ENDROOT
BRANCH   8  13
ATOM      5  N   UNL     1       9.758   5.327   5.775  0.00  0.00    -0.263 NA
ATOM     13  C   UNL     1      10.752   6.870   4.202  0.00  0.00    -0.024 A 
ATOM     14  C   UNL     1       9.518   7.479   4.007  0.00  0.00    +0.007 A 
ATOM     16  C   UNL     1      10.818   5.807   5.088  0.00  0.00    +0.114 A 
ATOM     18  C   UNL     1       8.403   7.014   4.696  0.00  0.00    +0.020 A 
ATOM     19  C   UNL     1       8.574   5.944   5.560  0.00  0.00    +0.111 A 
ENDBRANCH   8  13
BRANCH   9   4
ATOM      3  O   UNL     1      11.793   3.634   2.468  0.00  0.00    -0.269 OA
ATOM      4  N   UNL     1      12.628   5.677   1.757  0.00  0.00    -0.304 N 
ATOM     15  C   UNL     1      12.074   4.419   1.565  0.00  0.00    +0.262 C 
ATOM     24  H   UNL     1      12.806   6.271   0.951  0.00  0.00    +0.149 HD
BRANCH  15  17
ATOM      6  N   UNL     1      10.787   4.405  -0.617  0.00  0.00    -0.262 N 
ATOM      7  N   UNL     1      10.808   3.901  -1.862  0.00  0.00    -0.176 NA
ATOM     17  C   UNL     1      11.842   4.016   0.154  0.00  0.00    +0.123 A 
ATOM     20  C   UNL     1      12.607   3.199  -0.642  0.00  0.00    +0.057 A 
ATOM     21  C   UNL     1      11.923   3.165  -1.872  0.00  0.00    +0.061 A 
ATOM     22  C   UNL     1       9.701   5.274  -0.225  0.00  0.00    +0.173 C 
ATOM     23  C   UNL     1      12.305   2.433  -3.091  0.00  0.00    +0.067 C 
ENDBRANCH  15  17
ENDBRANCH   9   4
BRANCH  10   1
ATOM      1  O   UNL     1      15.356   5.893   3.222  0.00  0.00    -0.387 OA
ATOM     25  H   UNL     1      16.130   6.246   2.750  0.00  0.00    +0.210 HD
ENDBRANCH  10   1
BRANCH  12   2
ATOM      2  O   UNL     1      14.326   6.953   5.536  0.00  0.00    -0.389 OA
ATOM     26  H   UNL     1      15.263   6.904   5.790  0.00  0.00    +0.210 HD
ENDBRANCH  12   2
TORSDOF 5
ENDMDL
MODEL 9
REMARK VINA RESULT:      -5.8     15.244     17.494
REMARK  Name = 75536078
REMARK  7 active torsions:
REMARK  status: ('A' for Active; 'I' for Inactive)
REMARK    1  A    between atoms: O_1  and  C_10
REMARK    2  A    between atoms: O_2  and  C_12
REMARK    3  A    between atoms: N_4  and  C_9
REMARK    4  A    between atoms: N_6  and  C_22
REMARK    5  A    between atoms: C_8  and  C_13
REMARK    6  A    between atoms: C_15  and  C_17
REMARK    7  A    between atoms: C_21  and  C_23
REMARK                            x       y       z     vdW  Elec       q    Type
REMARK                         _______ _______ _______ _____ _____    ______ ____
ROOT
ATOM      8  C   UNL     1       9.699   5.152   4.946  0.00  0.00    +0.046 C 
ATOM      9  C   UNL     1       9.474   6.532   5.605  0.00  0.00    +0.112 C 
ATOM     10  C   UNL     1       9.006   6.182   7.016  0.00  0.00    +0.164 C 
ATOM     11  C   UNL     1       9.929   4.159   6.115  0.00  0.00    +0.044 C 
ATOM     12  C   UNL     1       9.891   4.998   7.390  0.00  0.00    +0.145 C 
ENDROOT
BRANCH   8  13
ATOM      5  N   UNL     1      12.668   6.317   2.893  0.00  0.00    -0.263 NA
ATOM     13  C   UNL     1      10.803   5.163   3.910  0.00  0.00    -0.024 A 
ATOM     14  C   UNL     1      10.982   4.092   3.042  0.00  0.00    +0.007 A 
ATOM     16  C   UNL     1      11.664   6.241   3.795  0.00  0.00    +0.114 A 
ATOM     18  C   UNL     1      12.004   4.131   2.100  0.00  0.00    +0.020 A 
ATOM     19  C   UNL     1      12.812   5.257   2.066  0.00  0.00    +0.111 A 
ENDBRANCH   8  13
BRANCH   9   4
ATOM      3  O   UNL     1       9.668   9.321   4.946  0.00  0.00    -0.269 OA
ATOM      4  N   UNL     1       8.499   7.318   4.894  0.00  0.00    -0.304 N 
ATOM     15  C   UNL     1       8.680   8.667   4.619  0.00  0.00    +0.262 C 
ATOM     24  H   UNL     1       7.659   6.851   4.563  0.00  0.00    +0.149 HD
BRANCH  15  17
ATOM      6  N   UNL     1       7.432   9.417   2.546  0.00  0.00    -0.262 N 
ATOM      7  N   UNL     1       6.337  10.084   2.146  0.00  0.00    -0.176 NA
ATOM     17  C   UNL     1       7.569   9.342   3.900  0.00  0.00    +0.123 A 
ATOM     20  C   UNL     1       6.487  10.007   4.424  0.00  0.00    +0.057 A 
ATOM     21  C   UNL     1       5.763  10.442   3.298  0.00  0.00    +0.061 A 
ATOM     22  C   UNL     1       8.324   8.864   1.553  0.00  0.00    +0.173 C 
ATOM     23  C   UNL     1       4.507  11.211   3.281  0.00  0.00    +0.067 C 
ENDBRANCH  15  17
ENDBRANCH   9   4
BRANCH  10   1
ATOM      1  O   UNL     1       9.178   7.255   7.921  0.00  0.00    -0.387 OA
ATOM     25  H   UNL     1       9.872   6.996   8.552  0.00  0.00    +0.210 HD
ENDBRANCH  10   1
BRANCH  12   2
ATOM      2  O   UNL     1      11.214   5.427   7.694  0.00  0.00    -0.389 OA
ATOM     26  H   UNL     1      11.787   5.151   6.959  0.00  0.00    +0.210 HD
ENDBRANCH  12   2
TORSDOF 5
ENDMDL
MODEL 10
REMARK VINA RESULT:      -5.6     13.551     15.527
REMARK  Name = 75536078
REMARK  7 active torsions:
REMARK  status: ('A' for Active; 'I' for Inactive)
REMARK    1  A    between atoms: O_1  and  C_10
REMARK    2  A    between atoms: O_2  and  C_12
REMARK    3  A    between atoms: N_4  and  C_9
REMARK    4  A    between atoms: N_6  and  C_22
REMARK    5  A    between atoms: C_8  and  C_13
REMARK    6  A    between atoms: C_15  and  C_17
REMARK    7  A    between atoms: C_21  and  C_23
REMARK                            x       y       z     vdW  Elec       q    Type
REMARK                         _______ _______ _______ _____ _____    ______ ____
ROOT
ATOM      8  C   UNL     1       9.683   7.012   5.391  0.00  0.00    +0.046 C 
ATOM      9  C   UNL     1      10.042   8.509   5.534  0.00  0.00    +0.112 C 
ATOM     10  C   UNL     1       9.363   9.155   4.328  0.00  0.00    +0.164 C 
ATOM     11  C   UNL     1       8.399   6.967   4.523  0.00  0.00    +0.044 C 
ATOM     12  C   UNL     1       8.028   8.422   4.249  0.00  0.00    +0.145 C 
ENDROOT
BRANCH   8  13
ATOM      5  N   UNL     1       8.946   6.386   9.059  0.00  0.00    -0.263 NA
ATOM     13  C   UNL     1       9.562   6.302   6.722  0.00  0.00    -0.024 A 
ATOM     14  C   UNL     1       9.936   4.970   6.861  0.00  0.00    +0.007 A 
ATOM     16  C   UNL     1       9.078   6.959   7.842  0.00  0.00    +0.114 A 
ATOM     18  C   UNL     1       9.815   4.345   8.098  0.00  0.00    +0.020 A 
ATOM     19  C   UNL     1       9.320   5.090   9.156  0.00  0.00    +0.111 A 
ENDBRANCH   8  13
BRANCH   9   4
ATOM      3  O   UNL     1      11.627   9.525   7.703  0.00  0.00    -0.269 OA
ATOM      4  N   UNL     1      11.465   8.726   5.531  0.00  0.00    -0.304 N 
ATOM     15  C   UNL     1      12.149   9.223   6.632  0.00  0.00    +0.262 C 
ATOM     24  H   UNL     1      11.984   8.480   4.692  0.00  0.00    +0.149 HD
BRANCH  15  17
ATOM      6  N   UNL     1      14.548   8.424   6.468  0.00  0.00    -0.262 N 
ATOM      7  N   UNL     1      15.805   8.862   6.290  0.00  0.00    -0.176 NA
ATOM     17  C   UNL     1      13.612   9.416   6.460  0.00  0.00    +0.123 A 
ATOM     20  C   UNL     1      14.307  10.585   6.264  0.00  0.00    +0.057 A 
ATOM     21  C   UNL     1      15.652  10.183   6.165  0.00  0.00    +0.061 A 
ATOM     22  C   UNL     1      14.310   7.010   6.641  0.00  0.00    +0.173 C 
ATOM     23  C   UNL     1      16.831  11.039   5.953  0.00  0.00    +0.067 C 
ENDBRANCH  15  17
ENDBRANCH   9   4
BRANCH  10   1
ATOM      1  O   UNL     1       9.173  10.546   4.500  0.00  0.00    -0.387 OA
ATOM     25  H   UNL     1      10.025  10.981   4.328  0.00  0.00    +0.210 HD
ENDBRANCH  10   1
BRANCH  12   2
ATOM      2  O   UNL     1       7.141   8.868   5.270  0.00  0.00    -0.389 OA
ATOM     26  H   UNL     1       7.061   9.833   5.186  0.00  0.00    +0.210 HD
ENDBRANCH  12   2
TORSDOF 5
ENDMDL
