MODEL 1
REMARK VINA RESULT:      -8.3      0.000      0.000
REMARK  Name = 40481335
REMARK  4 active torsions:
REMARK  status: ('A' for Active; 'I' for Inactive)
REMARK    1  A    between atoms: O_3  and  C_11
REMARK    2  A    between atoms: N_4  and  C_10
REMARK    3  A    between atoms: C_14  and  C_15
REMARK    4  A    between atoms: C_20  and  C_21
REMARK                            x       y       z     vdW  Elec       q    Type
REMARK                         _______ _______ _______ _____ _____    ______ ____
ROOT
ATOM      4  N   UNL     1      12.955   7.470  18.664  0.00  0.00    -0.217 N 
ATOM      5  N   UNL     1      12.073   7.700  17.681  0.00  0.00    -0.043 NA
ATOM      6  N   UNL     1      14.153   7.987  16.931  0.00  0.00    -0.108 NA
ATOM      7  N   UNL     1      12.812   8.016  16.624  0.00  0.00    -0.023 NA
ATOM     14  C   UNL     1      14.219   7.647  18.198  0.00  0.00    +0.182 A 
ENDROOT
BRANCH   4  10
ATOM      1  O   UNL     1      13.015   8.720  21.704  0.00  0.00    -0.369 OA
ATOM      2  O   UNL     1      10.464   7.031  21.388  0.00  0.00    -0.369 OA
ATOM      8  C   UNL     1      11.220   7.817  20.440  0.00  0.00    +0.176 C 
ATOM      9  C   UNL     1      11.714   9.042  21.186  0.00  0.00    +0.180 C 
ATOM     10  C   UNL     1      12.486   7.075  20.052  0.00  0.00    +0.168 C 
ATOM     11  C   UNL     1      10.693   9.191  22.288  0.00  0.00    +0.171 C 
ATOM     12  C   UNL     1      13.427   7.442  21.197  0.00  0.00    +0.190 C 
ATOM     13  C   UNL     1      10.375   7.752  22.624  0.00  0.00    +0.194 C 
BRANCH  11   3
ATOM      3  O   UNL     1      11.172   9.903  23.407  0.00  0.00    -0.387 OA
ATOM     27  H   UNL     1      12.015  10.316  23.152  0.00  0.00    +0.210 HD
ENDBRANCH  11   3
ENDBRANCH   4  10
BRANCH  14  15
ATOM     15  C   UNL     1      15.411   7.480  18.990  0.00  0.00    +0.021 A 
ATOM     16  C   UNL     1      16.105   6.270  18.959  0.00  0.00    +0.012 A 
ATOM     17  C   UNL     1      15.870   8.527  19.788  0.00  0.00    +0.012 A 
ATOM     18  C   UNL     1      17.259   6.109  19.726  0.00  0.00    +0.009 A 
ATOM     19  C   UNL     1      17.024   8.366  20.556  0.00  0.00    +0.009 A 
ATOM     20  C   UNL     1      17.718   7.157  20.524  0.00  0.00    -0.018 A 
BRANCH  20  21
ATOM     21  C   UNL     1      18.915   6.989  21.321  0.00  0.00    -0.018 A 
ATOM     22  C   UNL     1      19.150   7.830  22.410  0.00  0.00    +0.008 A 
ATOM     23  C   UNL     1      19.831   5.988  21.001  0.00  0.00    +0.008 A 
ATOM     24  C   UNL     1      20.303   7.668  23.178  0.00  0.00    +0.001 A 
ATOM     25  C   UNL     1      20.984   5.826  21.771  0.00  0.00    +0.001 A 
ATOM     26  C   UNL     1      21.219   6.666  22.859  0.00  0.00    +0.000 A 
ENDBRANCH  20  21
ENDBRANCH  14  15
TORSDOF 4
ENDMDL
MODEL 2
REMARK VINA RESULT:      -8.3      2.795      3.860
REMARK  Name = 40481335
REMARK  4 active torsions:
REMARK  status: ('A' for Active; 'I' for Inactive)
REMARK    1  A    between atoms: O_3  and  C_11
REMARK    2  A    between atoms: N_4  and  C_10
REMARK    3  A    between atoms: C_14  and  C_15
REMARK    4  A    between atoms: C_20  and  C_21
REMARK                            x       y       z     vdW  Elec       q    Type
REMARK                         _______ _______ _______ _____ _____    ______ ____
ROOT
ATOM      4  N   UNL     1      13.716   9.224  20.563  0.00  0.00    -0.217 N 
ATOM      5  N   UNL     1      12.620   9.814  21.059  0.00  0.00    -0.043 NA
ATOM      6  N   UNL     1      14.128   9.514  22.673  0.00  0.00    -0.108 NA
ATOM      7  N   UNL     1      12.878   9.989  22.349  0.00  0.00    -0.023 NA
ATOM     14  C   UNL     1      14.630   9.045  21.553  0.00  0.00    +0.182 A 
ENDROOT
BRANCH   4  10
ATOM      1  O   UNL     1      12.104   7.315  18.425  0.00  0.00    -0.369 OA
ATOM      2  O   UNL     1      13.220   9.753  16.917  0.00  0.00    -0.369 OA
ATOM      8  C   UNL     1      12.756   9.594  18.276  0.00  0.00    +0.176 C 
ATOM      9  C   UNL     1      11.579   8.638  18.225  0.00  0.00    +0.180 C 
ATOM     10  C   UNL     1      13.804   8.859  19.093  0.00  0.00    +0.168 C 
ATOM     11  C   UNL     1      11.060   8.828  16.821  0.00  0.00    +0.171 C 
ATOM     12  C   UNL     1      13.499   7.401  18.754  0.00  0.00    +0.190 C 
ATOM     13  C   UNL     1      12.334   9.047  16.037  0.00  0.00    +0.194 C 
BRANCH  11   3
ATOM      3  O   UNL     1      10.324   7.727  16.339  0.00  0.00    -0.387 OA
ATOM     27  H   UNL     1      10.855   7.301  15.644  0.00  0.00    +0.210 HD
ENDBRANCH  11   3
ENDBRANCH   4  10
BRANCH  14  15
ATOM     15  C   UNL     1      15.924   8.439  21.369  0.00  0.00    +0.021 A 
ATOM     16  C   UNL     1      16.029   7.058  21.201  0.00  0.00    +0.012 A 
ATOM     17  C   UNL     1      17.070   9.233  21.360  0.00  0.00    +0.012 A 
ATOM     18  C   UNL     1      17.282   6.472  21.023  0.00  0.00    +0.009 A 
ATOM     19  C   UNL     1      18.324   8.646  21.182  0.00  0.00    +0.009 A 
ATOM     20  C   UNL     1      18.429   7.265  21.014  0.00  0.00    -0.018 A 
BRANCH  20  21
ATOM     21  C   UNL     1      19.729   6.657  20.830  0.00  0.00    -0.018 A 
ATOM     22  C   UNL     1      19.834   5.279  20.642  0.00  0.00    +0.008 A 
ATOM     23  C   UNL     1      20.877   7.449  20.839  0.00  0.00    +0.008 A 
ATOM     24  C   UNL     1      21.087   4.693  20.463  0.00  0.00    +0.001 A 
ATOM     25  C   UNL     1      22.131   6.863  20.660  0.00  0.00    +0.001 A 
ATOM     26  C   UNL     1      22.235   5.484  20.472  0.00  0.00    +0.000 A 
ENDBRANCH  20  21
ENDBRANCH  14  15
TORSDOF 4
ENDMDL
MODEL 3
REMARK VINA RESULT:      -8.0      3.305      7.656
REMARK  Name = 40481335
REMARK  4 active torsions:
REMARK  status: ('A' for Active; 'I' for Inactive)
REMARK    1  A    between atoms: O_3  and  C_11
REMARK    2  A    between atoms: N_4  and  C_10
REMARK    3  A    between atoms: C_14  and  C_15
REMARK    4  A    between atoms: C_20  and  C_21
REMARK                            x       y       z     vdW  Elec       q    Type
REMARK                         _______ _______ _______ _____ _____    ______ ____
ROOT
ATOM      4  N   UNL     1      13.318   7.955  20.083  0.00  0.00    -0.217 N 
ATOM      5  N   UNL     1      13.284   6.982  19.162  0.00  0.00    -0.043 NA
ATOM      6  N   UNL     1      11.293   7.975  19.307  0.00  0.00    -0.108 NA
ATOM      7  N   UNL     1      12.043   6.999  18.691  0.00  0.00    -0.023 NA
ATOM     14  C   UNL     1      12.101   8.554  20.165  0.00  0.00    +0.182 A 
ENDROOT
BRANCH   4  10
ATOM      1  O   UNL     1      15.816   6.268  21.396  0.00  0.00    -0.369 OA
ATOM      2  O   UNL     1      16.860   9.012  20.479  0.00  0.00    -0.369 OA
ATOM      8  C   UNL     1      15.814   8.159  19.961  0.00  0.00    +0.176 C 
ATOM      9  C   UNL     1      16.297   6.731  20.124  0.00  0.00    +0.180 C 
ATOM     10  C   UNL     1      14.591   8.248  20.856  0.00  0.00    +0.168 C 
ATOM     11  C   UNL     1      17.798   6.887  20.115  0.00  0.00    +0.171 C 
ATOM     12  C   UNL     1      14.938   7.253  21.961  0.00  0.00    +0.190 C 
ATOM     13  C   UNL     1      17.986   8.200  20.839  0.00  0.00    +0.194 C 
BRANCH  11   3
ATOM      3  O   UNL     1      18.478   5.828  20.752  0.00  0.00    -0.387 OA
ATOM     27  H   UNL     1      17.814   5.165  21.006  0.00  0.00    +0.210 HD
ENDBRANCH  11   3
ENDBRANCH   4  10
BRANCH  14  15
ATOM     15  C   UNL     1      11.786   9.642  21.055  0.00  0.00    +0.021 A 
ATOM     16  C   UNL     1      11.222   9.380  22.304  0.00  0.00    +0.012 A 
ATOM     17  C   UNL     1      12.043  10.957  20.668  0.00  0.00    +0.012 A 
ATOM     18  C   UNL     1      10.916  10.433  23.165  0.00  0.00    +0.009 A 
ATOM     19  C   UNL     1      11.737  12.011  21.529  0.00  0.00    +0.009 A 
ATOM     20  C   UNL     1      11.174  11.749  22.779  0.00  0.00    -0.018 A 
BRANCH  20  21
ATOM     21  C   UNL     1      10.857  12.842  23.672  0.00  0.00    -0.018 A 
ATOM     22  C   UNL     1      10.904  12.649  25.053  0.00  0.00    +0.008 A 
ATOM     23  C   UNL     1      10.506  14.087  23.152  0.00  0.00    +0.008 A 
ATOM     24  C   UNL     1      10.599  13.703  25.914  0.00  0.00    +0.001 A 
ATOM     25  C   UNL     1      10.201  15.142  24.014  0.00  0.00    +0.001 A 
ATOM     26  C   UNL     1      10.248  14.949  25.395  0.00  0.00    +0.000 A 
ENDBRANCH  20  21
ENDBRANCH  14  15
TORSDOF 4
ENDMDL
MODEL 4
REMARK VINA RESULT:      -8.0      1.849      2.628
REMARK  Name = 40481335
REMARK  4 active torsions:
REMARK  status: ('A' for Active; 'I' for Inactive)
REMARK    1  A    between atoms: O_3  and  C_11
REMARK    2  A    between atoms: N_4  and  C_10
REMARK    3  A    between atoms: C_14  and  C_15
REMARK    4  A    between atoms: C_20  and  C_21
REMARK                            x       y       z     vdW  Elec       q    Type
REMARK                         _______ _______ _______ _____ _____    ______ ____
ROOT
ATOM      4  N   UNL     1      11.860   8.748  20.541  0.00  0.00    -0.217 N 
ATOM      5  N   UNL     1      10.651   8.881  19.980  0.00  0.00    -0.043 NA
ATOM      6  N   UNL     1      12.046   7.866  18.568  0.00  0.00    -0.108 NA
ATOM      7  N   UNL     1      10.771   8.340  18.774  0.00  0.00    -0.023 NA
ATOM     14  C   UNL     1      12.704   8.128  19.674  0.00  0.00    +0.182 A 
ENDROOT
BRANCH   4  10
ATOM      1  O   UNL     1      12.782  11.553  21.988  0.00  0.00    -0.369 OA
ATOM      2  O   UNL     1      10.917  10.029  23.901  0.00  0.00    -0.369 OA
ATOM      8  C   UNL     1      10.968  10.096  22.458  0.00  0.00    +0.176 C 
ATOM      9  C   UNL     1      11.350  11.519  22.101  0.00  0.00    +0.180 C 
ATOM     10  C   UNL     1      12.124   9.255  21.947  0.00  0.00    +0.168 C 
ATOM     11  C   UNL     1      10.864  12.301  23.297  0.00  0.00    +0.171 C 
ATOM     12  C   UNL     1      13.300  10.219  22.092  0.00  0.00    +0.190 C 
ATOM     13  C   UNL     1      11.133  11.343  24.435  0.00  0.00    +0.194 C 
BRANCH  11   3
ATOM      3  O   UNL     1      11.529  13.532  23.473  0.00  0.00    -0.387 OA
ATOM     27  H   UNL     1      10.926  14.124  23.954  0.00  0.00    +0.210 HD
ENDBRANCH  11   3
ENDBRANCH   4  10
BRANCH  14  15
ATOM     15  C   UNL     1      14.084   7.825  19.956  0.00  0.00    +0.021 A 
ATOM     16  C   UNL     1      14.432   6.579  20.477  0.00  0.00    +0.012 A 
ATOM     17  C   UNL     1      15.071   8.779  19.708  0.00  0.00    +0.012 A 
ATOM     18  C   UNL     1      15.768   6.286  20.750  0.00  0.00    +0.009 A 
ATOM     19  C   UNL     1      16.408   8.486  19.981  0.00  0.00    +0.009 A 
ATOM     20  C   UNL     1      16.756   7.239  20.502  0.00  0.00    -0.018 A 
BRANCH  20  21
ATOM     21  C   UNL     1      18.142   6.936  20.785  0.00  0.00    -0.018 A 
ATOM     22  C   UNL     1      18.749   5.829  20.192  0.00  0.00    +0.008 A 
ATOM     23  C   UNL     1      18.872   7.752  21.649  0.00  0.00    +0.008 A 
ATOM     24  C   UNL     1      20.085   5.537  20.464  0.00  0.00    +0.001 A 
ATOM     25  C   UNL     1      20.209   7.460  21.921  0.00  0.00    +0.001 A 
ATOM     26  C   UNL     1      20.816   6.353  21.328  0.00  0.00    +0.000 A 
ENDBRANCH  20  21
ENDBRANCH  14  15
TORSDOF 4
ENDMDL
MODEL 5
REMARK VINA RESULT:      -7.6     17.187     20.003
REMARK  Name = 40481335
REMARK  4 active torsions:
REMARK  status: ('A' for Active; 'I' for Inactive)
REMARK    1  A    between atoms: O_3  and  C_11
REMARK    2  A    between atoms: N_4  and  C_10
REMARK    3  A    between atoms: C_14  and  C_15
REMARK    4  A    between atoms: C_20  and  C_21
REMARK                            x       y       z     vdW  Elec       q    Type
REMARK                         _______ _______ _______ _____ _____    ______ ____
ROOT
ATOM      4  N   UNL     1      11.859   5.088  -0.277  0.00  0.00    -0.217 N 
ATOM      5  N   UNL     1      11.772   4.792  -1.581  0.00  0.00    -0.043 NA
ATOM      6  N   UNL     1       9.755   4.703  -0.636  0.00  0.00    -0.108 NA
ATOM      7  N   UNL     1      10.483   4.558  -1.795  0.00  0.00    -0.023 NA
ATOM     14  C   UNL     1      10.626   5.032   0.291  0.00  0.00    +0.182 A 
ENDROOT
BRANCH   4  10
ATOM      1  O   UNL     1      14.720   3.578   0.315  0.00  0.00    -0.369 OA
ATOM      2  O   UNL     1      15.268   6.566  -0.168  0.00  0.00    -0.369 OA
ATOM      8  C   UNL     1      14.260   5.676  -0.697  0.00  0.00    +0.176 C 
ATOM      9  C   UNL     1      14.928   4.329  -0.893  0.00  0.00    +0.180 C 
ATOM     10  C   UNL     1      13.197   5.421   0.356  0.00  0.00    +0.168 C 
ATOM     11  C   UNL     1      16.378   4.703  -1.077  0.00  0.00    +0.171 C 
ATOM     12  C   UNL     1      13.835   4.305   1.181  0.00  0.00    +0.190 C 
ATOM     13  C   UNL     1      16.526   5.877  -0.137  0.00  0.00    +0.194 C 
BRANCH  11   3
ATOM      3  O   UNL     1      17.273   3.659  -0.764  0.00  0.00    -0.387 OA
ATOM     27  H   UNL     1      17.083   3.372   0.145  0.00  0.00    +0.210 HD
ENDBRANCH  11   3
ENDBRANCH   4  10
BRANCH  14  15
ATOM     15  C   UNL     1      10.355   5.295   1.681  0.00  0.00    +0.021 A 
ATOM     16  C   UNL     1       9.819   6.524   2.066  0.00  0.00    +0.012 A 
ATOM     17  C   UNL     1      10.630   4.322   2.641  0.00  0.00    +0.012 A 
ATOM     18  C   UNL     1       9.557   6.779   3.413  0.00  0.00    +0.009 A 
ATOM     19  C   UNL     1      10.369   4.577   3.988  0.00  0.00    +0.009 A 
ATOM     20  C   UNL     1       9.832   5.806   4.373  0.00  0.00    -0.018 A 
BRANCH  20  21
ATOM     21  C   UNL     1       9.562   6.070   5.770  0.00  0.00    -0.018 A 
ATOM     22  C   UNL     1       9.938   5.141   6.741  0.00  0.00    +0.008 A 
ATOM     23  C   UNL     1       8.927   7.253   6.146  0.00  0.00    +0.008 A 
ATOM     24  C   UNL     1       9.678   5.396   8.087  0.00  0.00    +0.001 A 
ATOM     25  C   UNL     1       8.668   7.509   7.493  0.00  0.00    +0.001 A 
ATOM     26  C   UNL     1       9.044   6.579   8.463  0.00  0.00    +0.000 A 
ENDBRANCH  20  21
ENDBRANCH  14  15
TORSDOF 4
ENDMDL
MODEL 6
REMARK VINA RESULT:      -7.2     26.620     28.652
REMARK  Name = 40481335
REMARK  4 active torsions:
REMARK  status: ('A' for Active; 'I' for Inactive)
REMARK    1  A    between atoms: O_3  and  C_11
REMARK    2  A    between atoms: N_4  and  C_10
REMARK    3  A    between atoms: C_14  and  C_15
REMARK    4  A    between atoms: C_20  and  C_21
REMARK                            x       y       z     vdW  Elec       q    Type
REMARK                         _______ _______ _______ _____ _____    ______ ____
ROOT
ATOM      4  N   UNL     1      -3.443 -10.837  14.772  0.00  0.00    -0.217 N 
ATOM      5  N   UNL     1      -2.698 -10.658  15.870  0.00  0.00    -0.043 NA
ATOM      6  N   UNL     1      -1.457 -10.360  14.043  0.00  0.00    -0.108 NA
ATOM      7  N   UNL     1      -1.484 -10.366  15.419  0.00  0.00    -0.023 NA
ATOM     14  C   UNL     1      -2.679 -10.654  13.663  0.00  0.00    +0.182 A 
ENDROOT
BRANCH   4  10
ATOM      1  O   UNL     1      -5.731 -11.055  17.124  0.00  0.00    -0.369 OA
ATOM      2  O   UNL     1      -7.096 -10.203  14.503  0.00  0.00    -0.369 OA
ATOM      8  C   UNL     1      -5.774  -9.946  15.025  0.00  0.00    +0.176 C 
ATOM      9  C   UNL     1      -5.924  -9.764  16.523  0.00  0.00    +0.180 C 
ATOM     10  C   UNL     1      -4.915 -11.190  14.880  0.00  0.00    +0.168 C 
ATOM     11  C   UNL     1      -7.352  -9.293  16.656  0.00  0.00    +0.171 C 
ATOM     12  C   UNL     1      -5.314 -11.991  16.118  0.00  0.00    +0.190 C 
ATOM     13  C   UNL     1      -8.049 -10.077  15.567  0.00  0.00    +0.194 C 
BRANCH  11   3
ATOM      3  O   UNL     1      -7.910  -9.540  17.927  0.00  0.00    -0.387 OA
ATOM     27  H   UNL     1      -8.270 -10.443  17.919  0.00  0.00    +0.210 HD
ENDBRANCH  11   3
ENDBRANCH   4  10
BRANCH  14  15
ATOM     15  C   UNL     1      -3.163 -10.770  12.311  0.00  0.00    +0.021 A 
ATOM     16  C   UNL     1      -3.164 -12.012  11.675  0.00  0.00    +0.012 A 
ATOM     17  C   UNL     1      -3.628  -9.641  11.637  0.00  0.00    +0.012 A 
ATOM     18  C   UNL     1      -3.632 -12.123  10.366  0.00  0.00    +0.009 A 
ATOM     19  C   UNL     1      -4.096  -9.752  10.328  0.00  0.00    +0.009 A 
ATOM     20  C   UNL     1      -4.098 -10.994   9.692  0.00  0.00    -0.018 A 
BRANCH  20  21
ATOM     21  C   UNL     1      -4.583 -11.110   8.334  0.00  0.00    -0.018 A 
ATOM     22  C   UNL     1      -4.340 -12.273   7.603  0.00  0.00    +0.008 A 
ATOM     23  C   UNL     1      -5.295 -10.059   7.756  0.00  0.00    +0.008 A 
ATOM     24  C   UNL     1      -4.808 -12.385   6.295  0.00  0.00    +0.001 A 
ATOM     25  C   UNL     1      -5.764 -10.171   6.446  0.00  0.00    +0.001 A 
ATOM     26  C   UNL     1      -5.521 -11.335   5.716  0.00  0.00    +0.000 A 
ENDBRANCH  20  21
ENDBRANCH  14  15
TORSDOF 4
ENDMDL
MODEL 7
REMARK VINA RESULT:      -7.2      4.395      6.429
REMARK  Name = 40481335
REMARK  4 active torsions:
REMARK  status: ('A' for Active; 'I' for Inactive)
REMARK    1  A    between atoms: O_3  and  C_11
REMARK    2  A    between atoms: N_4  and  C_10
REMARK    3  A    between atoms: C_14  and  C_15
REMARK    4  A    between atoms: C_20  and  C_21
REMARK                            x       y       z     vdW  Elec       q    Type
REMARK                         _______ _______ _______ _____ _____    ______ ____
ROOT
ATOM      4  N   UNL     1      12.418   8.801  18.104  0.00  0.00    -0.217 N 
ATOM      5  N   UNL     1      11.299   8.075  18.234  0.00  0.00    -0.043 NA
ATOM      6  N   UNL     1      11.512   8.791  16.133  0.00  0.00    -0.108 NA
ATOM      7  N   UNL     1      10.749   8.073  17.026  0.00  0.00    -0.023 NA
ATOM     14  C   UNL     1      12.540   9.232  16.821  0.00  0.00    +0.182 A 
ENDROOT
BRANCH   4  10
ATOM      1  O   UNL     1      13.402   7.168  20.783  0.00  0.00    -0.369 OA
ATOM      2  O   UNL     1      15.691   9.001  19.854  0.00  0.00    -0.369 OA
ATOM      8  C   UNL     1      14.656   8.309  19.121  0.00  0.00    +0.176 C 
ATOM      9  C   UNL     1      14.447   6.977  19.815  0.00  0.00    +0.180 C 
ATOM     10  C   UNL     1      13.334   9.035  19.291  0.00  0.00    +0.168 C 
ATOM     11  C   UNL     1      15.783   6.734  20.474  0.00  0.00    +0.171 C 
ATOM     12  C   UNL     1      12.842   8.480  20.626  0.00  0.00    +0.190 C 
ATOM     13  C   UNL     1      16.198   8.131  20.876  0.00  0.00    +0.194 C 
BRANCH  11   3
ATOM      3  O   UNL     1      15.716   5.863  21.580  0.00  0.00    -0.387 OA
ATOM     27  H   UNL     1      16.613   5.528  21.745  0.00  0.00    +0.210 HD
ENDBRANCH  11   3
ENDBRANCH   4  10
BRANCH  14  15
ATOM     15  C   UNL     1      13.629  10.039  16.332  0.00  0.00    +0.021 A 
ATOM     16  C   UNL     1      13.894  11.279  16.913  0.00  0.00    +0.012 A 
ATOM     17  C   UNL     1      14.417   9.580  15.277  0.00  0.00    +0.012 A 
ATOM     18  C   UNL     1      14.948  12.059  16.439  0.00  0.00    +0.009 A 
ATOM     19  C   UNL     1      15.471  10.360  14.802  0.00  0.00    +0.009 A 
ATOM     20  C   UNL     1      15.737  11.600  15.384  0.00  0.00    -0.018 A 
BRANCH  20  21
ATOM     21  C   UNL     1      16.830  12.410  14.891  0.00  0.00    -0.018 A 
ATOM     22  C   UNL     1      18.118  11.876  14.824  0.00  0.00    +0.008 A 
ATOM     23  C   UNL     1      16.597  13.723  14.483  0.00  0.00    +0.008 A 
ATOM     24  C   UNL     1      19.171  12.656  14.347  0.00  0.00    +0.001 A 
ATOM     25  C   UNL     1      17.651  14.503  14.006  0.00  0.00    +0.001 A 
ATOM     26  C   UNL     1      18.939  13.969  13.939  0.00  0.00    +0.000 A 
ENDBRANCH  20  21
ENDBRANCH  14  15
TORSDOF 4
ENDMDL
MODEL 8
REMARK VINA RESULT:      -7.1     26.572     29.045
REMARK  Name = 40481335
REMARK  4 active torsions:
REMARK  status: ('A' for Active; 'I' for Inactive)
REMARK    1  A    between atoms: O_3  and  C_11
REMARK    2  A    between atoms: N_4  and  C_10
REMARK    3  A    between atoms: C_14  and  C_15
REMARK    4  A    between atoms: C_20  and  C_21
REMARK                            x       y       z     vdW  Elec       q    Type
REMARK                         _______ _______ _______ _____ _____    ______ ____
ROOT
ATOM      4  N   UNL     1      -2.928 -10.819  14.607  0.00  0.00    -0.217 N 
ATOM      5  N   UNL     1      -1.608 -10.903  14.398  0.00  0.00    -0.043 NA
ATOM      6  N   UNL     1      -2.033 -10.740  16.580  0.00  0.00    -0.108 NA
ATOM      7  N   UNL     1      -1.065 -10.854  15.608  0.00  0.00    -0.023 NA
ATOM     14  C   UNL     1      -3.178 -10.721  15.939  0.00  0.00    +0.182 A 
ENDROOT
BRANCH   4  10
ATOM      1  O   UNL     1      -2.840 -11.367  11.365  0.00  0.00    -0.369 OA
ATOM      2  O   UNL     1      -5.568 -12.291  12.443  0.00  0.00    -0.369 OA
ATOM      8  C   UNL     1      -4.256 -12.265  13.046  0.00  0.00    +0.176 C 
ATOM      9  C   UNL     1      -3.265 -12.608  11.949  0.00  0.00    +0.180 C 
ATOM     10  C   UNL     1      -3.902 -10.843  13.443  0.00  0.00    +0.168 C 
ATOM     11  C   UNL     1      -4.103 -13.420  10.991  0.00  0.00    +0.171 C 
ATOM     12  C   UNL     1      -3.374 -10.274  12.127  0.00  0.00    +0.190 C 
ATOM     13  C   UNL     1      -5.447 -12.736  11.084  0.00  0.00    +0.194 C 
BRANCH  11   3
ATOM      3  O   UNL     1      -3.602 -13.427   9.673  0.00  0.00    -0.387 OA
ATOM     27  H   UNL     1      -3.021 -12.654   9.576  0.00  0.00    +0.210 HD
ENDBRANCH  11   3
ENDBRANCH   4  10
BRANCH  14  15
ATOM     15  C   UNL     1      -4.494 -10.615  16.516  0.00  0.00    +0.021 A 
ATOM     16  C   UNL     1      -5.387  -9.652  16.044  0.00  0.00    +0.012 A 
ATOM     17  C   UNL     1      -4.874 -11.473  17.547  0.00  0.00    +0.012 A 
ATOM     18  C   UNL     1      -6.660  -9.549  16.604  0.00  0.00    +0.009 A 
ATOM     19  C   UNL     1      -6.148 -11.371  18.106  0.00  0.00    +0.009 A 
ATOM     20  C   UNL     1      -7.041 -10.408  17.635  0.00  0.00    -0.018 A 
BRANCH  20  21
ATOM     21  C   UNL     1      -8.362 -10.302  18.216  0.00  0.00    -0.018 A 
ATOM     22  C   UNL     1      -8.674 -11.017  19.373  0.00  0.00    +0.008 A 
ATOM     23  C   UNL     1      -9.322  -9.483  17.621  0.00  0.00    +0.008 A 
ATOM     24  C   UNL     1      -9.947 -10.913  19.934  0.00  0.00    +0.001 A 
ATOM     25  C   UNL     1     -10.595  -9.380  18.182  0.00  0.00    +0.001 A 
ATOM     26  C   UNL     1     -10.907 -10.094  19.339  0.00  0.00    +0.000 A 
ENDBRANCH  20  21
ENDBRANCH  14  15
TORSDOF 4
ENDMDL
MODEL 9
REMARK VINA RESULT:      -7.1      4.280      5.707
REMARK  Name = 40481335
REMARK  4 active torsions:
REMARK  status: ('A' for Active; 'I' for Inactive)
REMARK    1  A    between atoms: O_3  and  C_11
REMARK    2  A    between atoms: N_4  and  C_10
REMARK    3  A    between atoms: C_14  and  C_15
REMARK    4  A    between atoms: C_20  and  C_21
REMARK                            x       y       z     vdW  Elec       q    Type
REMARK                         _______ _______ _______ _____ _____    ______ ____
ROOT
ATOM      4  N   UNL     1      12.132   8.769  17.222  0.00  0.00    -0.217 N 
ATOM      5  N   UNL     1      10.946   8.161  17.092  0.00  0.00    -0.043 NA
ATOM      6  N   UNL     1      11.466   9.241  15.213  0.00  0.00    -0.108 NA
ATOM      7  N   UNL     1      10.543   8.453  15.862  0.00  0.00    -0.023 NA
ATOM     14  C   UNL     1      12.442   9.425  16.073  0.00  0.00    +0.182 A 
ENDROOT
BRANCH   4  10
ATOM      1  O   UNL     1      11.731   9.548  20.392  0.00  0.00    -0.369 OA
ATOM      2  O   UNL     1      13.499   7.037  20.214  0.00  0.00    -0.369 OA
ATOM      8  C   UNL     1      12.425   7.517  19.376  0.00  0.00    +0.176 C 
ATOM      9  C   UNL     1      11.402   8.152  20.298  0.00  0.00    +0.180 C 
ATOM     10  C   UNL     1      12.921   8.666  18.515  0.00  0.00    +0.168 C 
ATOM     11  C   UNL     1      11.642   7.431  21.603  0.00  0.00    +0.171 C 
ATOM     12  C   UNL     1      12.787   9.852  19.468  0.00  0.00    +0.190 C 
ATOM     13  C   UNL     1      13.141   7.239  21.588  0.00  0.00    +0.194 C 
BRANCH  11   3
ATOM      3  O   UNL     1      11.211   8.155  22.733  0.00  0.00    -0.387 OA
ATOM     27  H   UNL     1      11.998   8.550  23.146  0.00  0.00    +0.210 HD
ENDBRANCH  11   3
ENDBRANCH   4  10
BRANCH  14  15
ATOM     15  C   UNL     1      13.648  10.185  15.867  0.00  0.00    +0.021 A 
ATOM     16  C   UNL     1      14.625   9.717  14.987  0.00  0.00    +0.012 A 
ATOM     17  C   UNL     1      13.840  11.386  16.548  0.00  0.00    +0.012 A 
ATOM     18  C   UNL     1      15.793  10.453  14.788  0.00  0.00    +0.009 A 
ATOM     19  C   UNL     1      15.009  12.122  16.349  0.00  0.00    +0.009 A 
ATOM     20  C   UNL     1      15.985  11.655  15.469  0.00  0.00    -0.018 A 
BRANCH  20  21
ATOM     21  C   UNL     1      17.197  12.418  15.263  0.00  0.00    -0.018 A 
ATOM     22  C   UNL     1      17.268  13.743  15.695  0.00  0.00    +0.008 A 
ATOM     23  C   UNL     1      18.294  11.829  14.635  0.00  0.00    +0.008 A 
ATOM     24  C   UNL     1      18.437  14.478  15.498  0.00  0.00    +0.001 A 
ATOM     25  C   UNL     1      19.463  12.565  14.438  0.00  0.00    +0.001 A 
ATOM     26  C   UNL     1      19.535  13.890  14.870  0.00  0.00    +0.000 A 
ENDBRANCH  20  21
ENDBRANCH  14  15
TORSDOF 4
ENDMDL
MODEL 10
REMARK VINA RESULT:      -7.0     27.123     29.322
REMARK  Name = 40481335
REMARK  4 active torsions:
REMARK  status: ('A' for Active; 'I' for Inactive)
REMARK    1  A    between atoms: O_3  and  C_11
REMARK    2  A    between atoms: N_4  and  C_10
REMARK    3  A    between atoms: C_14  and  C_15
REMARK    4  A    between atoms: C_20  and  C_21
REMARK                            x       y       z     vdW  Elec       q    Type
REMARK                         _______ _______ _______ _____ _____    ______ ____
ROOT
ATOM      4  N   UNL     1      -9.657 -10.452  18.175  0.00  0.00    -0.217 N 
ATOM      5  N   UNL     1     -10.387 -10.560  19.293  0.00  0.00    -0.043 NA
ATOM      6  N   UNL     1      -8.257 -11.063  19.714  0.00  0.00    -0.108 NA
ATOM      7  N   UNL     1      -9.526 -10.934  20.231  0.00  0.00    -0.023 NA
ATOM     14  C   UNL     1      -8.361 -10.760  18.440  0.00  0.00    +0.182 A 
ENDROOT
BRANCH   4  10
ATOM      1  O   UNL     1     -12.241  -8.677  17.182  0.00  0.00    -0.369 OA
ATOM      2  O   UNL     1     -10.010  -8.422  15.081  0.00  0.00    -0.369 OA
ATOM      8  C   UNL     1      -9.965  -8.598  16.514  0.00  0.00    +0.176 C 
ATOM      9  C   UNL     1     -11.113  -7.792  17.089  0.00  0.00    +0.180 C 
ATOM     10  C   UNL     1     -10.301 -10.037  16.864  0.00  0.00    +0.168 C 
ATOM     11  C   UNL     1     -11.324  -6.725  16.042  0.00  0.00    +0.171 C 
ATOM     12  C   UNL     1     -11.828 -10.013  16.856  0.00  0.00    +0.190 C 
ATOM     13  C   UNL     1     -11.039  -7.475  14.761  0.00  0.00    +0.194 C 
BRANCH  11   3
ATOM      3  O   UNL     1     -12.620  -6.172  16.055  0.00  0.00    -0.387 OA
ATOM     27  H   UNL     1     -13.176  -6.739  16.616  0.00  0.00    +0.210 HD
ENDBRANCH  11   3
ENDBRANCH   4  10
BRANCH  14  15
ATOM     15  C   UNL     1      -7.303 -10.746  17.463  0.00  0.00    +0.021 A 
ATOM     16  C   UNL     1      -6.960 -11.919  16.789  0.00  0.00    +0.012 A 
ATOM     17  C   UNL     1      -6.620  -9.561  17.191  0.00  0.00    +0.012 A 
ATOM     18  C   UNL     1      -5.935 -11.905  15.843  0.00  0.00    +0.009 A 
ATOM     19  C   UNL     1      -5.595  -9.546  16.245  0.00  0.00    +0.009 A 
ATOM     20  C   UNL     1      -5.252 -10.719  15.571  0.00  0.00    -0.018 A 
BRANCH  20  21
ATOM     21  C   UNL     1      -4.189 -10.704  14.590  0.00  0.00    -0.018 A 
ATOM     22  C   UNL     1      -2.857 -10.723  15.006  0.00  0.00    +0.008 A 
ATOM     23  C   UNL     1      -4.495 -10.672  13.230  0.00  0.00    +0.008 A 
ATOM     24  C   UNL     1      -1.832 -10.710  14.061  0.00  0.00    +0.001 A 
ATOM     25  C   UNL     1      -3.469 -10.659  12.284  0.00  0.00    +0.001 A 
ATOM     26  C   UNL     1      -2.137 -10.679  12.700  0.00  0.00    +0.000 A 
ENDBRANCH  20  21
ENDBRANCH  14  15
TORSDOF 4
ENDMDL
