REMARK  Name = 28959840
REMARK  8 active torsions:
REMARK  status: ('A' for Active; 'I' for Inactive)
REMARK    1  A    between atoms: O_2  and  C_24
REMARK    2  A    between atoms: N_6  and  C_17
REMARK    3  A    between atoms: C_8  and  C_12
REMARK    4  A    between atoms: C_9  and  C_15
REMARK    5  A    between atoms: C_12  and  C_17
REMARK    6  A    between atoms: C_14  and  C_16
REMARK    7  A    between atoms: C_15  and  C_24
REMARK    8  A    between atoms: C_28  and  C_29
REMARK                            x       y       z     vdW  Elec       q    Type
REMARK                         _______ _______ _______ _____ _____    ______ ____
ROOT
ATOM      1  O   UNL     1      -2.403  -3.202   1.308  0.00  0.00    -0.275 OA
ATOM      5  N   UNL     1      -2.620  -1.429  -0.178  0.00  0.00    -0.301 N 
ATOM      8  C   UNL     1      -2.010   0.846  -0.967  0.00  0.00    +0.011 C 
ATOM      9  C   UNL     1      -3.340   1.371  -0.366  0.00  0.00    +0.006 C 
ATOM     10  C   UNL     1      -2.151  -0.644  -1.327  0.00  0.00    +0.111 C 
ATOM     11  C   UNL     1      -3.820   0.490   0.800  0.00  0.00    +0.023 C 
ATOM     13  C   UNL     1      -3.890  -0.980   0.392  0.00  0.00    +0.108 C 
ATOM     16  C   UNL     1      -1.974  -2.543   0.358  0.00  0.00    +0.219 C 
ENDROOT
BRANCH  16  14
ATOM     14  C   UNL     1      -0.677  -2.938  -0.280  0.00  0.00    +0.075 C 
ATOM     18  C   UNL     1      -0.922  -3.961  -1.394  0.00  0.00    +0.013 C 
ATOM     19  C   UNL     1       0.238  -3.623   0.736  0.00  0.00    +0.013 C 
ATOM     20  C   UNL     1      -0.064  -5.172  -1.044  0.00  0.00    +0.001 C 
ATOM     21  C   UNL     1       0.065  -5.111   0.467  0.00  0.00    +0.001 C 
ENDBRANCH  16  14
BRANCH   8  12
ATOM     12  C   UNL     1      -0.790   1.063  -0.063  0.00  0.00    +0.020 C 
BRANCH  12  17
ATOM     17  C   UNL     1       0.489   1.136  -0.886  0.00  0.00    +0.085 C 
BRANCH  17   6
ATOM      4  O   UNL     1       6.391   2.069  -1.172  0.00  0.00    -0.276 OA
ATOM      6  N   UNL     1       1.641   1.326   0.001  0.00  0.00    -0.301 NA
ATOM      7  N   UNL     1       4.838   1.258   0.366  0.00  0.00    -0.300 N 
ATOM     22  C   UNL     1       2.008   0.045   0.622  0.00  0.00    +0.086 C 
ATOM     23  C   UNL     1       2.737   1.960  -0.744  0.00  0.00    +0.103 C 
ATOM     25  C   UNL     1       3.002   0.193   1.777  0.00  0.00    +0.034 C 
ATOM     26  C   UNL     1       3.917   2.370   0.138  0.00  0.00    +0.123 C 
ATOM     27  C   UNL     1       4.464   0.229   1.339  0.00  0.00    +0.109 C 
ATOM     28  C   UNL     1       6.045   1.220  -0.347  0.00  0.00    +0.212 C 
ATOM     29  C   UNL     1       6.952   0.046  -0.068  0.00  0.00    +0.109 C 
ENDBRANCH  17   6
ENDBRANCH  12  17
ENDBRANCH   8  12
BRANCH   9  15
ATOM     15  C   UNL     1      -3.270   2.837   0.059  0.00  0.00    +0.124 C 
BRANCH  15  24
ATOM      3  O   UNL     1      -5.698   2.916  -0.133  0.00  0.00    -0.251 OA
ATOM     24  C   UNL     1      -4.635   3.464   0.116  0.00  0.00    +0.305 C 
BRANCH  24   2
ATOM      2  O   UNL     1      -4.526   4.764   0.492  0.00  0.00    -0.481 OA
ATOM     30  H   UNL     1      -5.401   5.206   0.539  0.00  0.00    +0.295 HD
ENDBRANCH  24   2
ENDBRANCH  15  24
ENDBRANCH   9  15
TORSDOF 7
