REMARK  Name = 11885174
REMARK  3 active torsions:
REMARK  status: ('A' for Active; 'I' for Inactive)
REMARK    1  A    between atoms: S_2  and  N_7
REMARK    2  A    between atoms: S_2  and  C_20
REMARK    3  A    between atoms: C_18  and  C_21
REMARK                            x       y       z     vdW  Elec       q    Type
REMARK                         _______ _______ _______ _____ _____    ______ ____
ROOT
ATOM      6  O   UNL     1      -2.931   1.002  -1.733  0.00  0.00    -0.267 OA
ATOM      7  N   UNL     1       1.792   0.168  -0.372  0.00  0.00    -0.176 NA
ATOM      8  N   UNL     1      -1.122   1.388  -0.311  0.00  0.00    -0.311 N 
ATOM      9  C   UNL     1       1.069   2.438  -1.120  0.00  0.00    +0.025 C 
ATOM     10  C   UNL     1       0.822   1.796   1.237  0.00  0.00    +0.052 C 
ATOM     11  C   UNL     1       1.186   2.951   0.309  0.00  0.00    +0.017 C 
ATOM     12  C   UNL     1       2.034   1.264  -1.354  0.00  0.00    +0.114 C 
ATOM     13  C   UNL     1       1.824   0.644   1.043  0.00  0.00    +0.119 C 
ATOM     14  C   UNL     1      -0.392   2.059  -1.395  0.00  0.00    +0.130 C 
ATOM     15  C   UNL     1      -0.594   1.314   0.979  0.00  0.00    +0.026 A 
ATOM     16  C   UNL     1      -1.327   0.800   1.979  0.00  0.00    +0.022 A 
ATOM     17  C   UNL     1      -2.417   0.922  -0.616  0.00  0.00    +0.259 A 
ATOM     18  C   UNL     1      -3.201   0.319   0.518  0.00  0.00    +0.047 A 
ATOM     19  C   UNL     1      -2.648   0.291   1.740  0.00  0.00    +0.015 A 
ENDROOT
BRANCH  18  21
ATOM      1 CL   UNL     1      -8.667  -1.957  -0.356  0.00  0.00    -0.084 Cl
ATOM     21  C   UNL     1      -4.547  -0.241   0.302  0.00  0.00    -0.013 A 
ATOM     24  C   UNL     1      -5.673   0.570   0.446  0.00  0.00    +0.010 A 
ATOM     25  C   UNL     1      -4.697  -1.585  -0.045  0.00  0.00    +0.010 A 
ATOM     29  C   UNL     1      -6.947   0.040   0.242  0.00  0.00    +0.020 A 
ATOM     30  C   UNL     1      -5.971  -2.115  -0.249  0.00  0.00    +0.020 A 
ATOM     31  C   UNL     1      -7.096  -1.303  -0.105  0.00  0.00    +0.041 A 
ENDBRANCH  18  21
BRANCH   7   2
ATOM      2  S   UNL     1       2.620  -1.297  -0.679  0.00  0.00    +0.061 S 
ATOM      4  O   UNL     1       2.638  -1.526  -2.109  0.00  0.00    -0.153 OA
ATOM      5  O   UNL     1       2.163  -2.307   0.253  0.00  0.00    -0.153 OA
BRANCH   2  20
ATOM      3  F   UNL     1       8.253  -0.481   0.779  0.00  0.00    -0.205 F 
ATOM     20  C   UNL     1       4.336  -1.048  -0.235  0.00  0.00    +0.106 A 
ATOM     22  C   UNL     1       4.725  -1.327   1.053  0.00  0.00    +0.031 A 
ATOM     23  C   UNL     1       5.200  -0.587  -1.198  0.00  0.00    +0.031 A 
ATOM     26  C   UNL     1       6.062  -1.133   1.399  0.00  0.00    +0.040 A 
ATOM     27  C   UNL     1       6.537  -0.394  -0.851  0.00  0.00    +0.040 A 
ATOM     28  C   UNL     1       6.968  -0.666   0.447  0.00  0.00    +0.124 A 
ENDBRANCH   2  20
ENDBRANCH   7   2
TORSDOF 3
