MODEL 1
REMARK VINA RESULT:      -7.6      0.000      0.000
REMARK  Name = 51138040
REMARK  8 active torsions:
REMARK  status: ('A' for Active; 'I' for Inactive)
REMARK    1  A    between atoms: N_3  and  C_6
REMARK    2  A    between atoms: N_4  and  C_23
REMARK    3  A    between atoms: C_9  and  C_16
REMARK    4  A    between atoms: C_10  and  C_17
REMARK    5  A    between atoms: C_16  and  C_19
REMARK    6  A    between atoms: C_19  and  C_25
REMARK    7  A    between atoms: C_19  and  C_26
REMARK    8  A    between atoms: C_23  and  C_27
REMARK                            x       y       z     vdW  Elec       q    Type
REMARK                         _______ _______ _______ _____ _____    ______ ____
ROOT
ATOM      2  N   UNL     1      -6.707 -10.892  16.652  0.00  0.00    -0.299 NA
ATOM      4  N   UNL     1      -3.666 -10.372  12.655  0.00  0.00    -0.342 N 
ATOM      9  C   UNL     1      -5.348 -10.790  17.198  0.00  0.00    +0.085 C 
ATOM     10  C   UNL     1      -7.110  -9.777  15.808  0.00  0.00    +0.145 C 
ATOM     12  C   UNL     1      -6.915 -10.096  14.326  0.00  0.00    +0.065 C 
ATOM     13  C   UNL     1      -4.212 -10.808  16.170  0.00  0.00    -0.021 A 
ATOM     14  C   UNL     1      -4.365 -10.577  14.773  0.00  0.00    +0.008 A 
ATOM     15  C   UNL     1      -5.488 -10.269  13.928  0.00  0.00    -0.020 A 
ATOM     18  C   UNL     1      -3.240 -10.608  13.940  0.00  0.00    +0.050 A 
ATOM     20  C   UNL     1      -5.013 -10.162  12.636  0.00  0.00    +0.091 A 
ATOM     21  C   UNL     1      -2.883 -10.991  16.631  0.00  0.00    +0.006 A 
ATOM     22  C   UNL     1      -1.944 -10.836  14.408  0.00  0.00    +0.026 A 
ATOM     24  C   UNL     1      -1.783 -11.016  15.775  0.00  0.00    +0.002 A 
ATOM     32  H   UNL     1      -6.843 -11.783  16.175  0.00  0.00    +0.123 HD
ENDROOT
BRANCH  10  17
ATOM      1  O   UNL     1      -9.227 -10.425  16.691  0.00  0.00    -0.274 OA
ATOM      3  N   UNL     1      -9.068  -8.386  15.592  0.00  0.00    -0.311 N 
ATOM     17  C   UNL     1      -8.570  -9.583  16.080  0.00  0.00    +0.231 C 
ATOM     33  H   UNL     1      -8.428  -7.764  15.104  0.00  0.00    +0.149 HD
BRANCH   3   6
ATOM      6  C   UNL     1     -10.477  -7.989  15.762  0.00  0.00    +0.073 C 
ATOM      7  C   UNL     1     -10.784  -7.292  17.104  0.00  0.00    +0.022 C 
ATOM      8  C   UNL     1     -10.849  -6.658  15.074  0.00  0.00    +0.022 C 
ATOM     11  C   UNL     1     -11.714  -6.348  16.313  0.00  0.00    +0.004 C 
ENDBRANCH   3   6
ENDBRANCH  10  17
BRANCH   9  16
ATOM     16  C   UNL     1      -5.246 -11.946  18.210  0.00  0.00    +0.026 C 
BRANCH  16  19
ATOM     19  C   UNL     1      -5.915 -11.627  19.551  0.00  0.00    -0.015 C 
ATOM     25  C   UNL     1      -7.247 -12.376  19.640  0.00  0.00    +0.007 C 
ATOM     26  C   UNL     1      -6.149 -10.129  19.752  0.00  0.00    +0.007 C 
ENDBRANCH  16  19
ENDBRANCH   9  16
BRANCH   4  23
ATOM     23  C   UNL     1      -2.820 -10.329  11.481  0.00  0.00    +0.157 C 
BRANCH  23  27
ATOM      5  N   UNL     1      -5.016 -10.569   7.787  0.00  0.00    -0.263 NA
ATOM     27  C   UNL     1      -3.590 -10.413  10.187  0.00  0.00    -0.025 A 
ATOM     28  C   UNL     1      -3.910 -11.653   9.644  0.00  0.00    +0.025 A 
ATOM     29  C   UNL     1      -3.983  -9.251   9.531  0.00  0.00    +0.025 A 
ATOM     30  C   UNL     1      -4.618 -11.675   8.453  0.00  0.00    +0.111 A 
ATOM     31  C   UNL     1      -4.687  -9.382   8.346  0.00  0.00    +0.111 A 
ENDBRANCH  23  27
ENDBRANCH   4  23
TORSDOF 6
ENDMDL
MODEL 2
REMARK VINA RESULT:      -7.5     28.319     31.179
REMARK  Name = 51138040
REMARK  8 active torsions:
REMARK  status: ('A' for Active; 'I' for Inactive)
REMARK    1  A    between atoms: N_3  and  C_6
REMARK    2  A    between atoms: N_4  and  C_23
REMARK    3  A    between atoms: C_9  and  C_16
REMARK    4  A    between atoms: C_10  and  C_17
REMARK    5  A    between atoms: C_16  and  C_19
REMARK    6  A    between atoms: C_19  and  C_25
REMARK    7  A    between atoms: C_19  and  C_26
REMARK    8  A    between atoms: C_23  and  C_27
REMARK                            x       y       z     vdW  Elec       q    Type
REMARK                         _______ _______ _______ _____ _____    ______ ____
ROOT
ATOM      2  N   UNL     1      19.877   8.395  21.907  0.00  0.00    -0.299 NA
ATOM      4  N   UNL     1      15.551   7.672  19.405  0.00  0.00    -0.342 N 
ATOM      9  C   UNL     1      19.035   9.555  22.225  0.00  0.00    +0.085 C 
ATOM     10  C   UNL     1      19.280   7.105  22.220  0.00  0.00    +0.145 C 
ATOM     12  C   UNL     1      18.630   6.474  20.990  0.00  0.00    +0.065 C 
ATOM     13  C   UNL     1      17.725   9.667  21.438  0.00  0.00    -0.021 A 
ATOM     14  C   UNL     1      17.115   8.609  20.705  0.00  0.00    +0.008 A 
ATOM     15  C   UNL     1      17.450   7.229  20.476  0.00  0.00    -0.020 A 
ATOM     18  C   UNL     1      15.906   8.838  20.038  0.00  0.00    +0.050 A 
ATOM     20  C   UNL     1      16.468   6.696  19.665  0.00  0.00    +0.091 A 
ATOM     21  C   UNL     1      17.004  10.888  21.490  0.00  0.00    +0.006 A 
ATOM     22  C   UNL     1      15.235  10.063  20.063  0.00  0.00    +0.026 A 
ATOM     24  C   UNL     1      15.801  11.084  20.815  0.00  0.00    +0.002 A 
ATOM     32  H   UNL     1      20.193   8.430  20.938  0.00  0.00    +0.123 HD
ENDROOT
BRANCH  10  17
ATOM      1  O   UNL     1      20.799   6.238  23.839  0.00  0.00    -0.274 OA
ATOM      3  N   UNL     1      20.963   5.474  21.653  0.00  0.00    -0.311 N 
ATOM     17  C   UNL     1      20.420   6.243  22.670  0.00  0.00    +0.231 C 
ATOM     33  H   UNL     1      20.564   5.559  20.722  0.00  0.00    +0.149 HD
BRANCH   3   6
ATOM      6  C   UNL     1      22.084   4.544  21.880  0.00  0.00    +0.073 C 
ATOM      7  C   UNL     1      21.882   3.143  21.266  0.00  0.00    +0.022 C 
ATOM      8  C   UNL     1      23.262   4.720  20.898  0.00  0.00    +0.022 C 
ATOM     11  C   UNL     1      23.375   3.181  20.879  0.00  0.00    +0.004 C 
ENDBRANCH   3   6
ENDBRANCH  10  17
BRANCH   9  16
ATOM     16  C   UNL     1      19.954  10.773  22.018  0.00  0.00    +0.026 C 
BRANCH  16  19
ATOM     19  C   UNL     1      20.633  10.783  20.645  0.00  0.00    -0.015 C 
ATOM     25  C   UNL     1      22.145  10.918  20.832  0.00  0.00    +0.007 C 
ATOM     26  C   UNL     1      20.121  11.905  19.741  0.00  0.00    +0.007 C 
ENDBRANCH  16  19
ENDBRANCH   9  16
BRANCH   4  23
ATOM     23  C   UNL     1      14.368   7.479  18.592  0.00  0.00    +0.157 C 
BRANCH  23  27
ATOM      5  N   UNL     1      10.703   7.689  20.838  0.00  0.00    -0.263 NA
ATOM     27  C   UNL     1      13.084   7.554  19.380  0.00  0.00    -0.025 A 
ATOM     28  C   UNL     1      12.871   6.692  20.450  0.00  0.00    +0.025 A 
ATOM     29  C   UNL     1      12.108   8.483  19.038  0.00  0.00    +0.025 A 
ATOM     30  C   UNL     1      11.675   6.800  21.141  0.00  0.00    +0.111 A 
ATOM     31  C   UNL     1      10.946   8.510  19.792  0.00  0.00    +0.111 A 
ENDBRANCH  23  27
ENDBRANCH   4  23
TORSDOF 6
ENDMDL
MODEL 3
REMARK VINA RESULT:      -7.3     27.204     29.625
REMARK  Name = 51138040
REMARK  8 active torsions:
REMARK  status: ('A' for Active; 'I' for Inactive)
REMARK    1  A    between atoms: N_3  and  C_6
REMARK    2  A    between atoms: N_4  and  C_23
REMARK    3  A    between atoms: C_9  and  C_16
REMARK    4  A    between atoms: C_10  and  C_17
REMARK    5  A    between atoms: C_16  and  C_19
REMARK    6  A    between atoms: C_19  and  C_25
REMARK    7  A    between atoms: C_19  and  C_26
REMARK    8  A    between atoms: C_23  and  C_27
REMARK                            x       y       z     vdW  Elec       q    Type
REMARK                         _______ _______ _______ _____ _____    ______ ____
ROOT
ATOM      2  N   UNL     1      14.317   9.336  18.777  0.00  0.00    -0.299 NA
ATOM      4  N   UNL     1      11.313  10.675  22.608  0.00  0.00    -0.342 N 
ATOM      9  C   UNL     1      13.410   8.201  18.985  0.00  0.00    +0.085 C 
ATOM     10  C   UNL     1      13.655  10.608  18.526  0.00  0.00    +0.145 C 
ATOM     12  C   UNL     1      13.539  11.442  19.801  0.00  0.00    +0.065 C 
ATOM     13  C   UNL     1      12.510   8.283  20.223  0.00  0.00    -0.021 A 
ATOM     14  C   UNL     1      12.241   9.469  20.965  0.00  0.00    +0.008 A 
ATOM     15  C   UNL     1      12.648  10.843  20.837  0.00  0.00    -0.020 A 
ATOM     18  C   UNL     1      11.386   9.412  22.072  0.00  0.00    +0.050 A 
ATOM     20  C   UNL     1      12.062  11.544  21.872  0.00  0.00    +0.091 A 
ATOM     21  C   UNL     1      11.817   7.116  20.636  0.00  0.00    +0.006 A 
ATOM     22  C   UNL     1      10.749   8.242  22.491  0.00  0.00    +0.026 A 
ATOM     24  C   UNL     1      10.971   7.093  21.743  0.00  0.00    +0.002 A 
ATOM     32  H   UNL     1      14.986   9.414  19.543  0.00  0.00    +0.123 HD
ENDROOT
BRANCH  10  17
ATOM      1  O   UNL     1      15.652  11.730  17.868  0.00  0.00    -0.274 OA
ATOM      3  N   UNL     1      13.969  11.459  16.292  0.00  0.00    -0.311 N 
ATOM     17  C   UNL     1      14.535  11.325  17.549  0.00  0.00    +0.231 C 
ATOM     33  H   UNL     1      13.037  11.080  16.143  0.00  0.00    +0.149 HD
BRANCH   3   6
ATOM      6  C   UNL     1      14.669  12.121  15.177  0.00  0.00    +0.073 C 
ATOM      7  C   UNL     1      15.666  11.215  14.424  0.00  0.00    +0.022 C 
ATOM      8  C   UNL     1      13.856  12.185  13.866  0.00  0.00    +0.022 C 
ATOM     11  C   UNL     1      15.176  11.886  13.124  0.00  0.00    +0.004 C 
ENDBRANCH   3   6
ENDBRANCH  10  17
BRANCH   9  16
ATOM     16  C   UNL     1      14.329   6.966  19.005  0.00  0.00    +0.026 C 
BRANCH  16  19
ATOM     19  C   UNL     1      15.646   7.212  19.748  0.00  0.00    -0.015 C 
ATOM     25  C   UNL     1      16.699   6.222  19.247  0.00  0.00    +0.007 C 
ATOM     26  C   UNL     1      15.499   7.088  21.265  0.00  0.00    +0.007 C 
ENDBRANCH  16  19
ENDBRANCH   9  16
BRANCH   4  23
ATOM     23  C   UNL     1      10.542  11.052  23.774  0.00  0.00    +0.157 C 
BRANCH  23  27
ATOM      5  N   UNL     1      12.451  14.070  26.176  0.00  0.00    -0.263 NA
ATOM     27  C   UNL     1      11.211  12.111  24.615  0.00  0.00    -0.025 A 
ATOM     28  C   UNL     1      12.492  11.898  25.115  0.00  0.00    +0.025 A 
ATOM     29  C   UNL     1      10.550  13.302  24.894  0.00  0.00    +0.025 A 
ATOM     30  C   UNL     1      13.062  12.901  25.883  0.00  0.00    +0.111 A 
ATOM     31  C   UNL     1      11.208  14.241  25.672  0.00  0.00    +0.111 A 
ENDBRANCH  23  27
ENDBRANCH   4  23
TORSDOF 6
ENDMDL
MODEL 4
REMARK VINA RESULT:      -7.3     28.145     30.884
REMARK  Name = 51138040
REMARK  8 active torsions:
REMARK  status: ('A' for Active; 'I' for Inactive)
REMARK    1  A    between atoms: N_3  and  C_6
REMARK    2  A    between atoms: N_4  and  C_23
REMARK    3  A    between atoms: C_9  and  C_16
REMARK    4  A    between atoms: C_10  and  C_17
REMARK    5  A    between atoms: C_16  and  C_19
REMARK    6  A    between atoms: C_19  and  C_25
REMARK    7  A    between atoms: C_19  and  C_26
REMARK    8  A    between atoms: C_23  and  C_27
REMARK                            x       y       z     vdW  Elec       q    Type
REMARK                         _______ _______ _______ _____ _____    ______ ____
ROOT
ATOM      2  N   UNL     1      19.651   8.313  21.154  0.00  0.00    -0.299 NA
ATOM      4  N   UNL     1      14.933   7.246  19.706  0.00  0.00    -0.342 N 
ATOM      9  C   UNL     1      18.784   9.198  21.941  0.00  0.00    +0.085 C 
ATOM     10  C   UNL     1      19.353   6.894  21.284  0.00  0.00    +0.145 C 
ATOM     12  C   UNL     1      18.471   6.398  20.139  0.00  0.00    +0.065 C 
ATOM     13  C   UNL     1      17.302   9.199  21.555  0.00  0.00    -0.021 A 
ATOM     14  C   UNL     1      16.659   8.204  20.763  0.00  0.00    +0.008 A 
ATOM     15  C   UNL     1      17.101   6.989  20.132  0.00  0.00    -0.020 A 
ATOM     18  C   UNL     1      15.290   8.314  20.493  0.00  0.00    +0.050 A 
ATOM     20  C   UNL     1      16.011   6.440  19.487  0.00  0.00    +0.091 A 
ATOM     21  C   UNL     1      16.465  10.218  22.078  0.00  0.00    +0.006 A 
ATOM     22  C   UNL     1      14.492   9.352  20.979  0.00  0.00    +0.026 A 
ATOM     24  C   UNL     1      15.104  10.299  21.790  0.00  0.00    +0.002 A 
ATOM     32  H   UNL     1      19.669   8.597  20.174  0.00  0.00    +0.123 HD
ENDROOT
BRANCH  10  17
ATOM      1  O   UNL     1      21.406   6.305  20.226  0.00  0.00    -0.274 OA
ATOM      3  N   UNL     1      20.987   5.481  22.355  0.00  0.00    -0.311 N 
ATOM     17  C   UNL     1      20.681   6.205  21.214  0.00  0.00    +0.231 C 
ATOM     33  H   UNL     1      20.310   5.472  23.114  0.00  0.00    +0.149 HD
BRANCH   3   6
ATOM      6  C   UNL     1      22.250   4.736  22.503  0.00  0.00    +0.073 C 
ATOM      7  C   UNL     1      22.485   4.155  23.913  0.00  0.00    +0.022 C 
ATOM      8  C   UNL     1      22.192   3.279  21.996  0.00  0.00    +0.022 C 
ATOM     11  C   UNL     1      23.055   2.901  23.218  0.00  0.00    +0.004 C 
ENDBRANCH   3   6
ENDBRANCH  10  17
BRANCH   9  16
ATOM     16  C   UNL     1      19.428  10.591  21.813  0.00  0.00    +0.026 C 
BRANCH  16  19
ATOM     19  C   UNL     1      19.698  10.993  20.359  0.00  0.00    -0.015 C 
ATOM     25  C   UNL     1      21.159  11.426  20.219  0.00  0.00    +0.007 C 
ATOM     26  C   UNL     1      18.776  12.114  19.877  0.00  0.00    +0.007 C 
ENDBRANCH  16  19
ENDBRANCH   9  16
BRANCH   4  23
ATOM     23  C   UNL     1      13.605   6.985  19.191  0.00  0.00    +0.157 C 
BRANCH  23  27
ATOM      5  N   UNL     1      12.722   9.161  15.584  0.00  0.00    -0.263 NA
ATOM     27  C   UNL     1      13.295   7.747  17.926  0.00  0.00    -0.025 A 
ATOM     28  C   UNL     1      14.271   7.900  16.947  0.00  0.00    +0.025 A 
ATOM     29  C   UNL     1      12.033   8.299  17.735  0.00  0.00    +0.025 A 
ATOM     30  C   UNL     1      13.936   8.610  15.804  0.00  0.00    +0.111 A 
ATOM     31  C   UNL     1      11.799   8.990  16.557  0.00  0.00    +0.111 A 
ENDBRANCH  23  27
ENDBRANCH   4  23
TORSDOF 6
ENDMDL
MODEL 5
REMARK VINA RESULT:      -7.3     23.450     26.668
REMARK  Name = 51138040
REMARK  8 active torsions:
REMARK  status: ('A' for Active; 'I' for Inactive)
REMARK    1  A    between atoms: N_3  and  C_6
REMARK    2  A    between atoms: N_4  and  C_23
REMARK    3  A    between atoms: C_9  and  C_16
REMARK    4  A    between atoms: C_10  and  C_17
REMARK    5  A    between atoms: C_16  and  C_19
REMARK    6  A    between atoms: C_19  and  C_25
REMARK    7  A    between atoms: C_19  and  C_26
REMARK    8  A    between atoms: C_23  and  C_27
REMARK                            x       y       z     vdW  Elec       q    Type
REMARK                         _______ _______ _______ _____ _____    ______ ____
ROOT
ATOM      2  N   UNL     1      12.128   6.248   4.892  0.00  0.00    -0.299 NA
ATOM      4  N   UNL     1      12.720   3.990   0.414  0.00  0.00    -0.342 N 
ATOM      9  C   UNL     1      13.085   7.079   4.152  0.00  0.00    +0.085 C 
ATOM     10  C   UNL     1      10.854   6.040   4.219  0.00  0.00    +0.145 C 
ATOM     12  C   UNL     1      10.827   4.709   3.468  0.00  0.00    +0.065 C 
ATOM     13  C   UNL     1      13.577   6.506   2.819  0.00  0.00    -0.021 A 
ATOM     14  C   UNL     1      12.953   5.446   2.101  0.00  0.00    +0.008 A 
ATOM     15  C   UNL     1      11.782   4.641   2.324  0.00  0.00    -0.020 A 
ATOM     18  C   UNL     1      13.496   5.023   0.882  0.00  0.00    +0.050 A 
ATOM     20  C   UNL     1      11.683   3.755   1.269  0.00  0.00    +0.091 A 
ATOM     21  C   UNL     1      14.696   7.112   2.191  0.00  0.00    +0.006 A 
ATOM     22  C   UNL     1      14.627   5.602   0.303  0.00  0.00    +0.026 A 
ATOM     24  C   UNL     1      15.212   6.667   0.976  0.00  0.00    +0.002 A 
ATOM     32  H   UNL     1      12.550   5.360   5.165  0.00  0.00    +0.123 HD
ENDROOT
BRANCH  10  17
ATOM      1  O   UNL     1       8.743   6.567   5.191  0.00  0.00    -0.274 OA
ATOM      3  N   UNL     1      10.237   5.289   6.426  0.00  0.00    -0.311 N 
ATOM     17  C   UNL     1       9.831   6.007   5.313  0.00  0.00    +0.231 C 
ATOM     33  H   UNL     1      11.161   4.865   6.412  0.00  0.00    +0.149 HD
BRANCH   3   6
ATOM      6  C   UNL     1       9.378   5.118   7.612  0.00  0.00    +0.073 C 
ATOM      7  C   UNL     1       9.792   3.953   8.534  0.00  0.00    +0.022 C 
ATOM      8  C   UNL     1       9.718   6.065   8.783  0.00  0.00    +0.022 C 
ATOM     11  C   UNL     1       9.445   4.873   9.724  0.00  0.00    +0.004 C 
ENDBRANCH   3   6
ENDBRANCH  10  17
BRANCH   9  16
ATOM     16  C   UNL     1      14.234   7.330   5.146  0.00  0.00    +0.026 C 
BRANCH  16  19
ATOM     19  C   UNL     1      14.527   8.818   5.358  0.00  0.00    -0.015 C 
ATOM     25  C   UNL     1      16.038   9.021   5.487  0.00  0.00    +0.007 C 
ATOM     26  C   UNL     1      13.820   9.389   6.588  0.00  0.00    +0.007 C 
ENDBRANCH  16  19
ENDBRANCH   9  16
BRANCH   4  23
ATOM     23  C   UNL     1      12.940   3.259  -0.815  0.00  0.00    +0.157 C 
BRANCH  23  27
ATOM      5  N   UNL     1       9.515   3.237  -3.421  0.00  0.00    -0.263 NA
ATOM     27  C   UNL     1      11.740   3.251  -1.730  0.00  0.00    -0.025 A 
ATOM     28  C   UNL     1      11.010   4.418  -1.932  0.00  0.00    +0.025 A 
ATOM     29  C   UNL     1      11.360   2.078  -2.372  0.00  0.00    +0.025 A 
ATOM     30  C   UNL     1       9.916   4.357  -2.780  0.00  0.00    +0.111 A 
ATOM     31  C   UNL     1      10.250   2.124  -3.201  0.00  0.00    +0.111 A 
ENDBRANCH  23  27
ENDBRANCH   4  23
TORSDOF 6
ENDMDL
MODEL 6
REMARK VINA RESULT:      -7.2      1.877      7.374
REMARK  Name = 51138040
REMARK  8 active torsions:
REMARK  status: ('A' for Active; 'I' for Inactive)
REMARK    1  A    between atoms: N_3  and  C_6
REMARK    2  A    between atoms: N_4  and  C_23
REMARK    3  A    between atoms: C_9  and  C_16
REMARK    4  A    between atoms: C_10  and  C_17
REMARK    5  A    between atoms: C_16  and  C_19
REMARK    6  A    between atoms: C_19  and  C_25
REMARK    7  A    between atoms: C_19  and  C_26
REMARK    8  A    between atoms: C_23  and  C_27
REMARK                            x       y       z     vdW  Elec       q    Type
REMARK                         _______ _______ _______ _____ _____    ______ ____
ROOT
ATOM      2  N   UNL     1      -4.610 -10.832  14.745  0.00  0.00    -0.299 NA
ATOM      4  N   UNL     1      -8.815  -9.893  17.377  0.00  0.00    -0.342 N 
ATOM      9  C   UNL     1      -4.350 -11.333  16.100  0.00  0.00    +0.085 C 
ATOM     10  C   UNL     1      -5.787 -11.397  14.102  0.00  0.00    +0.145 C 
ATOM     12  C   UNL     1      -7.001 -10.479  14.248  0.00  0.00    +0.065 C 
ATOM     13  C   UNL     1      -5.414 -11.000  17.151  0.00  0.00    -0.021 A 
ATOM     14  C   UNL     1      -6.741 -10.566  16.867  0.00  0.00    +0.008 A 
ATOM     15  C   UNL     1      -7.476 -10.325  15.655  0.00  0.00    -0.020 A 
ATOM     18  C   UNL     1      -7.624 -10.308  17.922  0.00  0.00    +0.050 A 
ATOM     20  C   UNL     1      -8.740  -9.905  16.016  0.00  0.00    +0.091 A 
ATOM     21  C   UNL     1      -5.104 -11.207  18.520  0.00  0.00    +0.006 A 
ATOM     22  C   UNL     1      -7.284 -10.473  19.267  0.00  0.00    +0.026 A 
ATOM     24  C   UNL     1      -6.007 -10.941  19.548  0.00  0.00    +0.002 A 
ATOM     32  H   UNL     1      -4.635  -9.813  14.731  0.00  0.00    +0.123 HD
ENDROOT
BRANCH  10  17
ATOM      1  O   UNL     1      -5.483 -12.584  12.058  0.00  0.00    -0.274 OA
ATOM      3  N   UNL     1      -5.058 -10.302  12.081  0.00  0.00    -0.311 N 
ATOM     17  C   UNL     1      -5.429 -11.509  12.652  0.00  0.00    +0.231 C 
ATOM     33  H   UNL     1      -5.054  -9.474  12.670  0.00  0.00    +0.149 HD
BRANCH   3   6
ATOM      6  C   UNL     1      -4.680 -10.184  10.661  0.00  0.00    +0.073 C 
ATOM      7  C   UNL     1      -5.322  -8.987   9.930  0.00  0.00    +0.022 C 
ATOM      8  C   UNL     1      -3.317  -9.499  10.423  0.00  0.00    +0.022 C 
ATOM     11  C   UNL     1      -3.969  -8.797   9.213  0.00  0.00    +0.004 C 
ENDBRANCH   3   6
ENDBRANCH  10  17
BRANCH   9  16
ATOM     16  C   UNL     1      -2.964 -10.770  16.466  0.00  0.00    +0.026 C 
BRANCH  16  19
ATOM     19  C   UNL     1      -2.029 -10.655  15.258  0.00  0.00    -0.015 C 
ATOM     25  C   UNL     1      -1.714 -12.055  14.729  0.00  0.00    +0.007 C 
ATOM     26  C   UNL     1      -0.728  -9.922  15.589  0.00  0.00    +0.007 C 
ENDBRANCH  16  19
ENDBRANCH   9  16
BRANCH   4  23
ATOM     23  C   UNL     1      -9.997  -9.514  18.123  0.00  0.00    +0.157 C 
BRANCH  23  27
ATOM      5  N   UNL     1     -12.568  -6.808  15.981  0.00  0.00    -0.263 NA
ATOM     27  C   UNL     1     -10.898  -8.566  17.371  0.00  0.00    -0.025 A 
ATOM     28  C   UNL     1     -10.444  -7.297  17.028  0.00  0.00    +0.025 A 
ATOM     29  C   UNL     1     -12.185  -8.957  17.020  0.00  0.00    +0.025 A 
ATOM     30  C   UNL     1     -11.311  -6.463  16.339  0.00  0.00    +0.111 A 
ATOM     31  C   UNL     1     -12.974  -8.049  16.331  0.00  0.00    +0.111 A 
ENDBRANCH  23  27
ENDBRANCH   4  23
TORSDOF 6
ENDMDL
MODEL 7
REMARK VINA RESULT:      -7.0      1.592      2.172
REMARK  Name = 51138040
REMARK  8 active torsions:
REMARK  status: ('A' for Active; 'I' for Inactive)
REMARK    1  A    between atoms: N_3  and  C_6
REMARK    2  A    between atoms: N_4  and  C_23
REMARK    3  A    between atoms: C_9  and  C_16
REMARK    4  A    between atoms: C_10  and  C_17
REMARK    5  A    between atoms: C_16  and  C_19
REMARK    6  A    between atoms: C_19  and  C_25
REMARK    7  A    between atoms: C_19  and  C_26
REMARK    8  A    between atoms: C_23  and  C_27
REMARK                            x       y       z     vdW  Elec       q    Type
REMARK                         _______ _______ _______ _____ _____    ______ ____
ROOT
ATOM      2  N   UNL     1      -6.597 -11.163  16.128  0.00  0.00    -0.299 NA
ATOM      4  N   UNL     1      -4.180 -10.251  11.789  0.00  0.00    -0.342 N 
ATOM      9  C   UNL     1      -5.208 -10.866  16.501  0.00  0.00    +0.085 C 
ATOM     10  C   UNL     1      -7.254 -10.123  15.351  0.00  0.00    +0.145 C 
ATOM     12  C   UNL     1      -7.202 -10.423  13.853  0.00  0.00    +0.065 C 
ATOM     13  C   UNL     1      -4.218 -10.732  15.340  0.00  0.00    -0.021 A 
ATOM     14  C   UNL     1      -4.575 -10.536  13.975  0.00  0.00    +0.008 A 
ATOM     15  C   UNL     1      -5.825 -10.396  13.279  0.00  0.00    -0.020 A 
ATOM     18  C   UNL     1      -3.569 -10.414  13.009  0.00  0.00    +0.050 A 
ATOM     20  C   UNL     1      -5.535 -10.233  11.939  0.00  0.00    +0.091 A 
ATOM     21  C   UNL     1      -2.829 -10.722  15.631  0.00  0.00    +0.006 A 
ATOM     22  C   UNL     1      -2.206 -10.454  13.309  0.00  0.00    +0.026 A 
ATOM     24  C   UNL     1      -1.852 -10.598  14.645  0.00  0.00    +0.002 A 
ATOM     32  H   UNL     1      -6.664 -12.069  15.663  0.00  0.00    +0.123 HD
ENDROOT
BRANCH  10  17
ATOM      1  O   UNL     1      -9.602  -9.855  15.038  0.00  0.00    -0.274 OA
ATOM      3  N   UNL     1      -8.836 -10.498  17.132  0.00  0.00    -0.311 N 
ATOM     17  C   UNL     1      -8.682 -10.135  15.804  0.00  0.00    +0.231 C 
ATOM     33  H   UNL     1      -8.000 -10.712  17.671  0.00  0.00    +0.149 HD
BRANCH   3   6
ATOM      6  C   UNL     1     -10.157 -10.588  17.779  0.00  0.00    +0.073 C 
ATOM      7  C   UNL     1     -10.112 -11.019  19.260  0.00  0.00    +0.022 C 
ATOM      8  C   UNL     1     -10.717  -9.235  18.269  0.00  0.00    +0.022 C 
ATOM     11  C   UNL     1     -11.232  -9.988  19.514  0.00  0.00    +0.004 C 
ENDBRANCH   3   6
ENDBRANCH  10  17
BRANCH   9  16
ATOM     16  C   UNL     1      -4.819 -11.988  17.482  0.00  0.00    +0.026 C 
BRANCH  16  19
ATOM     19  C   UNL     1      -4.578 -11.480  18.907  0.00  0.00    -0.015 C 
ATOM     25  C   UNL     1      -3.543 -12.374  19.592  0.00  0.00    +0.007 C 
ATOM     26  C   UNL     1      -5.859 -11.436  19.741  0.00  0.00    +0.007 C 
ENDBRANCH  16  19
ENDBRANCH   9  16
BRANCH   4  23
ATOM     23  C   UNL     1      -3.501 -10.099  10.519  0.00  0.00    +0.157 C 
BRANCH  23  27
ATOM      5  N   UNL     1      -5.080 -12.642   7.428  0.00  0.00    -0.263 NA
ATOM     27  C   UNL     1      -4.054 -10.991   9.435  0.00  0.00    -0.025 A 
ATOM     28  C   UNL     1      -4.675 -10.433   8.323  0.00  0.00    +0.025 A 
ATOM     29  C   UNL     1      -3.945 -12.373   9.545  0.00  0.00    +0.025 A 
ATOM     30  C   UNL     1      -5.167 -11.296   7.356  0.00  0.00    +0.111 A 
ATOM     31  C   UNL     1      -4.469 -13.147   8.523  0.00  0.00    +0.111 A 
ENDBRANCH  23  27
ENDBRANCH   4  23
TORSDOF 6
ENDMDL
MODEL 8
REMARK VINA RESULT:      -7.0     24.917     28.754
REMARK  Name = 51138040
REMARK  8 active torsions:
REMARK  status: ('A' for Active; 'I' for Inactive)
REMARK    1  A    between atoms: N_3  and  C_6
REMARK    2  A    between atoms: N_4  and  C_23
REMARK    3  A    between atoms: C_9  and  C_16
REMARK    4  A    between atoms: C_10  and  C_17
REMARK    5  A    between atoms: C_16  and  C_19
REMARK    6  A    between atoms: C_19  and  C_25
REMARK    7  A    between atoms: C_19  and  C_26
REMARK    8  A    between atoms: C_23  and  C_27
REMARK                            x       y       z     vdW  Elec       q    Type
REMARK                         _______ _______ _______ _____ _____    ______ ____
ROOT
ATOM      2  N   UNL     1      15.312   6.254   2.462  0.00  0.00    -0.299 NA
ATOM      4  N   UNL     1      10.693   6.611   4.472  0.00  0.00    -0.342 N 
ATOM      9  C   UNL     1      14.419   5.552   1.533  0.00  0.00    +0.085 C 
ATOM     10  C   UNL     1      14.945   7.636   2.732  0.00  0.00    +0.145 C 
ATOM     12  C   UNL     1      14.144   7.762   4.027  0.00  0.00    +0.065 C 
ATOM     13  C   UNL     1      12.976   5.357   2.010  0.00  0.00    -0.021 A 
ATOM     14  C   UNL     1      12.362   6.071   3.079  0.00  0.00    +0.008 A 
ATOM     15  C   UNL     1      12.805   7.105   3.976  0.00  0.00    -0.020 A 
ATOM     18  C   UNL     1      11.027   5.808   3.407  0.00  0.00    +0.050 A 
ATOM     20  C   UNL     1      11.752   7.398   4.818  0.00  0.00    +0.091 A 
ATOM     21  C   UNL     1      12.141   4.459   1.297  0.00  0.00    +0.006 A 
ATOM     22  C   UNL     1      10.235   4.884   2.723  0.00  0.00    +0.026 A 
ATOM     24  C   UNL     1      10.814   4.221   1.649  0.00  0.00    +0.002 A 
ATOM     32  H   UNL     1      15.425   5.727   3.328  0.00  0.00    +0.123 HD
ENDROOT
BRANCH  10  17
ATOM      1  O   UNL     1      16.554   9.292   2.139  0.00  0.00    -0.274 OA
ATOM      3  N   UNL     1      17.017   7.899   3.938  0.00  0.00    -0.311 N 
ATOM     17  C   UNL     1      16.245   8.366   2.887  0.00  0.00    +0.231 C 
ATOM     33  H   UNL     1      16.656   7.127   4.493  0.00  0.00    +0.149 HD
BRANCH   3   6
ATOM      6  C   UNL     1      18.327   8.485   4.276  0.00  0.00    +0.073 C 
ATOM      7  C   UNL     1      18.542   8.734   5.783  0.00  0.00    +0.022 C 
ATOM      8  C   UNL     1      19.478   7.459   4.360  0.00  0.00    +0.022 C 
ATOM     11  C   UNL     1      19.994   8.254   5.577  0.00  0.00    +0.004 C 
ENDBRANCH   3   6
ENDBRANCH  10  17
BRANCH   9  16
ATOM     16  C   UNL     1      15.129   4.216   1.243  0.00  0.00    +0.026 C 
BRANCH  16  19
ATOM     19  C   UNL     1      15.626   4.104  -0.201  0.00  0.00    -0.015 C 
ATOM     25  C   UNL     1      16.579   5.264  -0.497  0.00  0.00    +0.007 C 
ATOM     26  C   UNL     1      14.485   4.099  -1.219  0.00  0.00    +0.007 C 
ENDBRANCH  16  19
ENDBRANCH   9  16
BRANCH   4  23
ATOM     23  C   UNL     1       9.405   6.646   5.131  0.00  0.00    +0.157 C 
BRANCH  23  27
ATOM      5  N   UNL     1       9.488   5.038   9.122  0.00  0.00    -0.263 NA
ATOM     27  C   UNL     1       9.434   6.083   6.530  0.00  0.00    -0.025 A 
ATOM     28  C   UNL     1       9.846   4.772   6.746  0.00  0.00    +0.025 A 
ATOM     29  C   UNL     1       9.050   6.872   7.609  0.00  0.00    +0.025 A 
ATOM     30  C   UNL     1       9.855   4.302   8.050  0.00  0.00    +0.111 A 
ATOM     31  C   UNL     1       9.095   6.308   8.873  0.00  0.00    +0.111 A 
ENDBRANCH  23  27
ENDBRANCH   4  23
TORSDOF 6
ENDMDL
MODEL 9
REMARK VINA RESULT:      -6.7      3.130      6.194
REMARK  Name = 51138040
REMARK  8 active torsions:
REMARK  status: ('A' for Active; 'I' for Inactive)
REMARK    1  A    between atoms: N_3  and  C_6
REMARK    2  A    between atoms: N_4  and  C_23
REMARK    3  A    between atoms: C_9  and  C_16
REMARK    4  A    between atoms: C_10  and  C_17
REMARK    5  A    between atoms: C_16  and  C_19
REMARK    6  A    between atoms: C_19  and  C_25
REMARK    7  A    between atoms: C_19  and  C_26
REMARK    8  A    between atoms: C_23  and  C_27
REMARK                            x       y       z     vdW  Elec       q    Type
REMARK                         _______ _______ _______ _____ _____    ______ ____
ROOT
ATOM      2  N   UNL     1      -4.810 -10.770  13.761  0.00  0.00    -0.299 NA
ATOM      4  N   UNL     1      -7.691  -9.337   9.869  0.00  0.00    -0.342 N 
ATOM      9  C   UNL     1      -3.888 -10.192  12.775  0.00  0.00    +0.085 C 
ATOM     10  C   UNL     1      -5.885  -9.884  14.182  0.00  0.00    +0.145 C 
ATOM     12  C   UNL     1      -7.172 -10.155  13.403  0.00  0.00    +0.065 C 
ATOM     13  C   UNL     1      -4.497  -9.844  11.413  0.00  0.00    -0.021 A 
ATOM     14  C   UNL     1      -5.890  -9.716  11.146  0.00  0.00    +0.008 A 
ATOM     15  C   UNL     1      -7.078  -9.835  11.949  0.00  0.00    -0.020 A 
ATOM     18  C   UNL     1      -6.318  -9.378   9.856  0.00  0.00    +0.050 A 
ATOM     20  C   UNL     1      -8.159  -9.605  11.122  0.00  0.00    +0.091 A 
ATOM     21  C   UNL     1      -3.624  -9.545  10.336  0.00  0.00    +0.006 A 
ATOM     22  C   UNL     1      -5.442  -9.134   8.796  0.00  0.00    +0.026 A 
ATOM     24  C   UNL     1      -4.082  -9.211   9.063  0.00  0.00    +0.002 A 
ATOM     32  H   UNL     1      -5.175 -11.666  13.437  0.00  0.00    +0.123 HD
ENDROOT
BRANCH  10  17
ATOM      1  O   UNL     1      -7.225 -10.099  16.141  0.00  0.00    -0.274 OA
ATOM      3  N   UNL     1      -4.966 -10.611  16.289  0.00  0.00    -0.311 N 
ATOM     17  C   UNL     1      -6.112 -10.199  15.629  0.00  0.00    +0.231 C 
ATOM     33  H   UNL     1      -4.099 -10.659  15.760  0.00  0.00    +0.149 HD
BRANCH   3   6
ATOM      6  C   UNL     1      -4.967 -10.984  17.715  0.00  0.00    +0.073 C 
ATOM      7  C   UNL     1      -5.431 -12.428  17.995  0.00  0.00    +0.022 C 
ATOM      8  C   UNL     1      -3.586 -11.403  18.263  0.00  0.00    +0.022 C 
ATOM     11  C   UNL     1      -4.323 -12.495  19.066  0.00  0.00    +0.004 C 
ENDBRANCH   3   6
ENDBRANCH  10  17
BRANCH   9  16
ATOM     16  C   UNL     1      -2.742 -11.215  12.665  0.00  0.00    +0.026 C 
BRANCH  16  19
ATOM     19  C   UNL     1      -3.219 -12.664  12.810  0.00  0.00    -0.015 C 
ATOM     25  C   UNL     1      -2.257 -13.421  13.728  0.00  0.00    +0.007 C 
ATOM     26  C   UNL     1      -3.328 -13.385  11.466  0.00  0.00    +0.007 C 
ENDBRANCH  16  19
ENDBRANCH   9  16
BRANCH   4  23
ATOM     23  C   UNL     1      -8.537  -9.036   8.733  0.00  0.00    +0.157 C 
BRANCH  23  27
ATOM      5  N   UNL     1     -10.106  -5.029   8.797  0.00  0.00    -0.263 NA
ATOM     27  C   UNL     1      -9.088  -7.631   8.755  0.00  0.00    -0.025 A 
ATOM     28  C   UNL     1      -8.296  -6.565   8.340  0.00  0.00    +0.025 A 
ATOM     29  C   UNL     1     -10.387  -7.398   9.191  0.00  0.00    +0.025 A 
ATOM     30  C   UNL     1      -8.849  -5.295   8.380  0.00  0.00    +0.111 A 
ATOM     31  C   UNL     1     -10.845  -6.090   9.192  0.00  0.00    +0.111 A 
ENDBRANCH  23  27
ENDBRANCH   4  23
TORSDOF 6
ENDMDL
MODEL 10
REMARK VINA RESULT:      -6.7     25.268     29.024
REMARK  Name = 51138040
REMARK  8 active torsions:
REMARK  status: ('A' for Active; 'I' for Inactive)
REMARK    1  A    between atoms: N_3  and  C_6
REMARK    2  A    between atoms: N_4  and  C_23
REMARK    3  A    between atoms: C_9  and  C_16
REMARK    4  A    between atoms: C_10  and  C_17
REMARK    5  A    between atoms: C_16  and  C_19
REMARK    6  A    between atoms: C_19  and  C_25
REMARK    7  A    between atoms: C_19  and  C_26
REMARK    8  A    between atoms: C_23  and  C_27
REMARK                            x       y       z     vdW  Elec       q    Type
REMARK                         _______ _______ _______ _____ _____    ______ ____
ROOT
ATOM      2  N   UNL     1      20.204  -9.912   2.052  0.00  0.00    -0.299 NA
ATOM      4  N   UNL     1      19.901  -6.480  -1.640  0.00  0.00    -0.342 N 
ATOM      9  C   UNL     1      20.608  -8.637   2.660  0.00  0.00    +0.085 C 
ATOM     10  C   UNL     1      18.887  -9.900   1.432  0.00  0.00    +0.145 C 
ATOM     12  C   UNL     1      18.979  -9.663  -0.075  0.00  0.00    +0.065 C 
ATOM     13  C   UNL     1      20.778  -7.460   1.694  0.00  0.00    -0.021 A 
ATOM     14  C   UNL     1      20.265  -7.408   0.366  0.00  0.00    +0.008 A 
ATOM     15  C   UNL     1      19.493  -8.311  -0.444  0.00  0.00    -0.020 A 
ATOM     18  C   UNL     1      20.478  -6.263  -0.411  0.00  0.00    +0.050 A 
ATOM     20  C   UNL     1      19.301  -7.705  -1.669  0.00  0.00    +0.091 A 
ATOM     21  C   UNL     1      21.425  -6.287   2.161  0.00  0.00    +0.006 A 
ATOM     22  C   UNL     1      21.159  -5.136   0.051  0.00  0.00    +0.026 A 
ATOM     24  C   UNL     1      21.620  -5.163   1.361  0.00  0.00    +0.002 A 
ATOM     32  H   UNL     1      20.915 -10.248   1.403  0.00  0.00    +0.123 HD
ENDROOT
BRANCH  10  17
ATOM      1  O   UNL     1      18.663 -12.234   1.004  0.00  0.00    -0.274 OA
ATOM      3  N   UNL     1      17.417 -11.305   2.728  0.00  0.00    -0.311 N 
ATOM     17  C   UNL     1      18.322 -11.265   1.680  0.00  0.00    +0.231 C 
ATOM     33  H   UNL     1      17.214 -10.438   3.219  0.00  0.00    +0.149 HD
BRANCH   3   6
ATOM      6  C   UNL     1      16.752 -12.550   3.150  0.00  0.00    +0.073 C 
ATOM      7  C   UNL     1      15.937 -12.426   4.454  0.00  0.00    +0.022 C 
ATOM      8  C   UNL     1      15.415 -12.831   2.431  0.00  0.00    +0.022 C 
ATOM     11  C   UNL     1      14.880 -13.332   3.789  0.00  0.00    +0.004 C 
ENDBRANCH   3   6
ENDBRANCH  10  17
BRANCH   9  16
ATOM     16  C   UNL     1      21.904  -8.964   3.425  0.00  0.00    +0.026 C 
BRANCH  16  19
ATOM     19  C   UNL     1      21.693  -9.073   4.939  0.00  0.00    -0.015 C 
ATOM     25  C   UNL     1      22.021  -7.728   5.591  0.00  0.00    +0.007 C 
ATOM     26  C   UNL     1      22.539 -10.177   5.574  0.00  0.00    +0.007 C 
ENDBRANCH  16  19
ENDBRANCH   9  16
BRANCH   4  23
ATOM     23  C   UNL     1      19.901  -5.548  -2.748  0.00  0.00    +0.157 C 
BRANCH  23  27
ATOM      5  N   UNL     1      16.644  -2.738  -2.609  0.00  0.00    -0.263 NA
ATOM     27  C   UNL     1      18.759  -4.563  -2.700  0.00  0.00    -0.025 A 
ATOM     28  C   UNL     1      18.981  -3.258  -2.273  0.00  0.00    +0.025 A 
ATOM     29  C   UNL     1      17.481  -4.957  -3.082  0.00  0.00    +0.025 A 
ATOM     30  C   UNL     1      17.899  -2.393  -2.246  0.00  0.00    +0.111 A 
ATOM     31  C   UNL     1      16.467  -4.015  -3.019  0.00  0.00    +0.111 A 
ENDBRANCH  23  27
ENDBRANCH   4  23
TORSDOF 6
ENDMDL
