MODEL 1
REMARK VINA RESULT:      -7.4      0.000      0.000
REMARK  Name = 7672458
REMARK  4 active torsions:
REMARK  status: ('A' for Active; 'I' for Inactive)
REMARK    1  A    between atoms: N_6  and  C_20
REMARK    2  A    between atoms: C_17  and  C_19
REMARK    3  A    between atoms: C_20  and  C_22
REMARK    4  A    between atoms: C_20  and  C_23
REMARK                            x       y       z     vdW  Elec       q    Type
REMARK                         _______ _______ _______ _____ _____    ______ ____
ROOT
ATOM      2  O   UNL     1      10.223   7.371   2.288  0.00  0.00    -0.267 OA
ATOM      3  O   UNL     1      13.441   6.675   7.292  0.00  0.00    -0.253 OA
ATOM      4  N   UNL     1      11.375   7.728   7.186  0.00  0.00    -0.285 N 
ATOM      5  N   UNL     1       9.818   6.831   4.520  0.00  0.00    -0.311 N 
ATOM      6  N   UNL     1      13.356   8.833   6.518  0.00  0.00    -0.297 N 
ATOM      7  C   UNL     1       9.200   8.589   6.273  0.00  0.00    +0.027 C 
ATOM      8  C   UNL     1       9.394   6.233   6.930  0.00  0.00    +0.054 C 
ATOM      9  C   UNL     1       8.473   7.447   6.970  0.00  0.00    +0.018 C 
ATOM     10  C   UNL     1      10.530   8.915   6.982  0.00  0.00    +0.114 C 
ATOM     11  C   UNL     1       9.412   8.213   4.801  0.00  0.00    +0.130 C 
ATOM     12  C   UNL     1      10.680   6.546   7.714  0.00  0.00    +0.119 C 
ATOM     13  C   UNL     1       9.740   5.843   5.506  0.00  0.00    +0.027 A 
ATOM     14  C   UNL     1       9.999   4.562   5.197  0.00  0.00    +0.022 A 
ATOM     15  C   UNL     1      10.177   6.535   3.191  0.00  0.00    +0.260 A 
ATOM     16  C   UNL     1      12.771   7.675   7.016  0.00  0.00    +0.302 C 
ATOM     17  C   UNL     1      10.498   5.096   2.889  0.00  0.00    +0.053 A 
ATOM     18  C   UNL     1      10.387   4.185   3.867  0.00  0.00    +0.016 A 
ATOM     30  H   UNL     1      12.831   9.692   6.437  0.00  0.00    +0.150 HD
ENDROOT
BRANCH  17  19
ATOM      1  S   UNL     1      12.464   4.034   1.345  0.00  0.00    -0.088 S 
ATOM     19  C   UNL     1      10.909   4.701   1.579  0.00  0.00    +0.026 A 
ATOM     21  C   UNL     1      10.206   4.774   0.394  0.00  0.00    +0.024 A 
ATOM     24  C   UNL     1      10.945   4.279  -0.733  0.00  0.00    -0.010 A 
ATOM     25  C   UNL     1      12.214   3.836  -0.349  0.00  0.00    +0.020 A 
ATOM     26  C   UNL     1      10.586   4.183  -2.098  0.00  0.00    +0.009 A 
ATOM     27  C   UNL     1      13.122   3.307  -1.286  0.00  0.00    +0.015 A 
ATOM     28  C   UNL     1      11.484   3.657  -3.030  0.00  0.00    +0.001 A 
ATOM     29  C   UNL     1      12.739   3.224  -2.626  0.00  0.00    +0.001 A 
ENDBRANCH  17  19
BRANCH   6  20
ATOM     20  C   UNL     1      14.780   8.940   6.292  0.00  0.00    +0.068 C 
ATOM     22  C   UNL     1      15.257  10.357   6.580  0.00  0.00    +0.027 C 
ATOM     23  C   UNL     1      15.129   8.517   4.872  0.00  0.00    +0.027 C 
ENDBRANCH   6  20
TORSDOF 2
ENDMDL
MODEL 2
REMARK VINA RESULT:      -6.8     25.405     28.254
REMARK  Name = 7672458
REMARK  4 active torsions:
REMARK  status: ('A' for Active; 'I' for Inactive)
REMARK    1  A    between atoms: N_6  and  C_20
REMARK    2  A    between atoms: C_17  and  C_19
REMARK    3  A    between atoms: C_20  and  C_22
REMARK    4  A    between atoms: C_20  and  C_23
REMARK                            x       y       z     vdW  Elec       q    Type
REMARK                         _______ _______ _______ _____ _____    ______ ____
ROOT
ATOM      2  O   UNL     1      -6.640 -10.416  14.245  0.00  0.00    -0.267 OA
ATOM      3  O   UNL     1      -2.654 -14.869  14.646  0.00  0.00    -0.253 OA
ATOM      4  N   UNL     1      -2.467 -13.054  13.210  0.00  0.00    -0.285 N 
ATOM      5  N   UNL     1      -4.319 -10.638  14.244  0.00  0.00    -0.311 N 
ATOM      6  N   UNL     1      -3.887 -14.878  12.711  0.00  0.00    -0.297 N 
ATOM      7  C   UNL     1      -2.957 -10.861  12.090  0.00  0.00    +0.027 C 
ATOM      8  C   UNL     1      -1.812 -10.887  14.261  0.00  0.00    +0.054 C 
ATOM      9  C   UNL     1      -1.833 -10.218  12.891  0.00  0.00    +0.018 C 
ATOM     10  C   UNL     1      -2.728 -12.377  11.930  0.00  0.00    +0.114 C 
ATOM     11  C   UNL     1      -4.292 -10.552  12.779  0.00  0.00    +0.130 C 
ATOM     12  C   UNL     1      -1.499 -12.384  14.089  0.00  0.00    +0.119 C 
ATOM     13  C   UNL     1      -3.135 -10.717  14.983  0.00  0.00    +0.027 A 
ATOM     14  C   UNL     1      -3.174 -10.672  16.324  0.00  0.00    +0.022 A 
ATOM     15  C   UNL     1      -5.580 -10.523  14.861  0.00  0.00    +0.260 A 
ATOM     16  C   UNL     1      -2.981 -14.306  13.596  0.00  0.00    +0.302 C 
ATOM     17  C   UNL     1      -5.590 -10.514  16.366  0.00  0.00    +0.053 A 
ATOM     18  C   UNL     1      -4.424 -10.572  17.025  0.00  0.00    +0.016 A 
ATOM     30  H   UNL     1      -4.036 -14.490  11.790  0.00  0.00    +0.150 HD
ENDROOT
BRANCH  17  19
ATOM      1  S   UNL     1      -7.099 -11.491  18.402  0.00  0.00    -0.088 S 
ATOM     19  C   UNL     1      -6.822 -10.439  17.085  0.00  0.00    +0.026 A 
ATOM     21  C   UNL     1      -7.895  -9.597  16.876  0.00  0.00    +0.024 A 
ATOM     24  C   UNL     1      -8.969  -9.810  17.803  0.00  0.00    -0.010 A 
ATOM     25  C   UNL     1      -8.662 -10.832  18.707  0.00  0.00    +0.020 A 
ATOM     26  C   UNL     1     -10.223  -9.164  17.923  0.00  0.00    +0.009 A 
ATOM     27  C   UNL     1      -9.567 -11.220  19.714  0.00  0.00    +0.015 A 
ATOM     28  C   UNL     1     -11.123  -9.547  18.922  0.00  0.00    +0.001 A 
ATOM     29  C   UNL     1     -10.796 -10.564  19.807  0.00  0.00    +0.001 A 
ENDBRANCH  17  19
BRANCH   6  20
ATOM     20  C   UNL     1      -4.500 -16.164  12.961  0.00  0.00    +0.068 C 
ATOM     22  C   UNL     1      -4.394 -17.050  11.728  0.00  0.00    +0.027 C 
ATOM     23  C   UNL     1      -5.949 -15.989  13.394  0.00  0.00    +0.027 C 
ENDBRANCH   6  20
TORSDOF 2
ENDMDL
MODEL 3
REMARK VINA RESULT:      -6.7      3.276      8.680
REMARK  Name = 7672458
REMARK  4 active torsions:
REMARK  status: ('A' for Active; 'I' for Inactive)
REMARK    1  A    between atoms: N_6  and  C_20
REMARK    2  A    between atoms: C_17  and  C_19
REMARK    3  A    between atoms: C_20  and  C_22
REMARK    4  A    between atoms: C_20  and  C_23
REMARK                            x       y       z     vdW  Elec       q    Type
REMARK                         _______ _______ _______ _____ _____    ______ ____
ROOT
ATOM      2  O   UNL     1      12.168   7.454   1.371  0.00  0.00    -0.267 OA
ATOM      3  O   UNL     1       9.908   3.355  -2.367  0.00  0.00    -0.253 OA
ATOM      4  N   UNL     1      11.987   4.361  -2.609  0.00  0.00    -0.285 N 
ATOM      5  N   UNL     1      12.948   5.594   0.200  0.00  0.00    -0.311 N 
ATOM      6  N   UNL     1       9.997   5.476  -3.235  0.00  0.00    -0.297 N 
ATOM      7  C   UNL     1      14.005   5.773  -2.123  0.00  0.00    +0.027 C 
ATOM      8  C   UNL     1      13.774   3.574  -1.057  0.00  0.00    +0.054 C 
ATOM      9  C   UNL     1      14.769   4.517  -1.726  0.00  0.00    +0.018 C 
ATOM     10  C   UNL     1      12.859   5.440  -3.098  0.00  0.00    +0.114 C 
ATOM     11  C   UNL     1      13.494   6.461  -0.851  0.00  0.00    +0.130 C 
ATOM     12  C   UNL     1      12.684   3.186  -2.071  0.00  0.00    +0.119 C 
ATOM     13  C   UNL     1      13.140   4.211   0.165  0.00  0.00    +0.027 A 
ATOM     14  C   UNL     1      12.739   3.448   1.195  0.00  0.00    +0.022 A 
ATOM     15  C   UNL     1      12.324   6.235   1.289  0.00  0.00    +0.260 A 
ATOM     16  C   UNL     1      10.583   4.330  -2.712  0.00  0.00    +0.302 C 
ATOM     17  C   UNL     1      11.853   5.347   2.407  0.00  0.00    +0.053 A 
ATOM     18  C   UNL     1      12.082   4.028   2.333  0.00  0.00    +0.016 A 
ATOM     30  H   UNL     1      10.556   6.206  -3.654  0.00  0.00    +0.150 HD
ENDROOT
BRANCH  17  19
ATOM      1  S   UNL     1      12.071   6.698   4.754  0.00  0.00    -0.088 S 
ATOM     19  C   UNL     1      11.176   5.898   3.539  0.00  0.00    +0.026 A 
ATOM     21  C   UNL     1       9.827   5.890   3.827  0.00  0.00    +0.024 A 
ATOM     24  C   UNL     1       9.509   6.546   5.063  0.00  0.00    -0.010 A 
ATOM     25  C   UNL     1      10.660   7.042   5.682  0.00  0.00    +0.020 A 
ATOM     26  C   UNL     1       8.264   6.749   5.703  0.00  0.00    +0.009 A 
ATOM     27  C   UNL     1      10.597   7.726   6.912  0.00  0.00    +0.015 A 
ATOM     28  C   UNL     1       8.198   7.429   6.923  0.00  0.00    +0.001 A 
ATOM     29  C   UNL     1       9.354   7.911   7.519  0.00  0.00    +0.001 A 
ENDBRANCH  17  19
BRANCH   6  20
ATOM     20  C   UNL     1       8.567   5.599  -3.409  0.00  0.00    +0.068 C 
ATOM     22  C   UNL     1       8.183   5.314  -4.855  0.00  0.00    +0.027 C 
ATOM     23  C   UNL     1       8.092   6.978  -2.973  0.00  0.00    +0.027 C 
ENDBRANCH   6  20
TORSDOF 2
ENDMDL
MODEL 4
REMARK VINA RESULT:      -6.6     23.806     25.582
REMARK  Name = 7672458
REMARK  4 active torsions:
REMARK  status: ('A' for Active; 'I' for Inactive)
REMARK    1  A    between atoms: N_6  and  C_20
REMARK    2  A    between atoms: C_17  and  C_19
REMARK    3  A    between atoms: C_20  and  C_22
REMARK    4  A    between atoms: C_20  and  C_23
REMARK                            x       y       z     vdW  Elec       q    Type
REMARK                         _______ _______ _______ _____ _____    ______ ____
ROOT
ATOM      2  O   UNL     1      -5.838 -12.388  10.795  0.00  0.00    -0.267 OA
ATOM      3  O   UNL     1      -3.721 -10.181  15.946  0.00  0.00    -0.253 OA
ATOM      4  N   UNL     1      -3.314 -12.328  15.163  0.00  0.00    -0.285 N 
ATOM      5  N   UNL     1      -3.838 -12.462  11.994  0.00  0.00    -0.311 N 
ATOM      6  N   UNL     1      -5.362 -11.764  16.202  0.00  0.00    -0.297 N 
ATOM      7  C   UNL     1      -3.293 -14.333  13.651  0.00  0.00    +0.027 C 
ATOM      8  C   UNL     1      -1.678 -12.521  13.289  0.00  0.00    +0.054 C 
ATOM      9  C   UNL     1      -1.841 -14.037  13.304  0.00  0.00    +0.018 C 
ATOM     10  C   UNL     1      -3.664 -13.751  15.030  0.00  0.00    +0.114 C 
ATOM     11  C   UNL     1      -4.189 -13.780  12.536  0.00  0.00    +0.130 C 
ATOM     12  C   UNL     1      -1.971 -11.966  14.694  0.00  0.00    +0.119 C 
ATOM     13  C   UNL     1      -2.603 -11.873  12.276  0.00  0.00    +0.027 A 
ATOM     14  C   UNL     1      -2.251 -10.725  11.674  0.00  0.00    +0.022 A 
ATOM     15  C   UNL     1      -4.756 -11.882  11.095  0.00  0.00    +0.260 A 
ATOM     16  C   UNL     1      -4.106 -11.343  15.781  0.00  0.00    +0.302 C 
ATOM     17  C   UNL     1      -4.345 -10.577  10.469  0.00  0.00    +0.053 A 
ATOM     18  C   UNL     1      -3.140 -10.067  10.759  0.00  0.00    +0.016 A 
ATOM     30  H   UNL     1      -5.614 -12.742  16.202  0.00  0.00    +0.150 HD
ENDROOT
BRANCH  17  19
ATOM      1  S   UNL     1      -5.298 -10.366   7.934  0.00  0.00    -0.088 S 
ATOM     19  C   UNL     1      -5.222  -9.892   9.574  0.00  0.00    +0.026 A 
ATOM     21  C   UNL     1      -6.076  -8.840   9.836  0.00  0.00    +0.024 A 
ATOM     24  C   UNL     1      -6.809  -8.406   8.681  0.00  0.00    -0.010 A 
ATOM     25  C   UNL     1      -6.476  -9.166   7.556  0.00  0.00    +0.020 A 
ATOM     26  C   UNL     1      -7.767  -7.375   8.533  0.00  0.00    +0.009 A 
ATOM     27  C   UNL     1      -7.070  -8.923   6.302  0.00  0.00    +0.015 A 
ATOM     28  C   UNL     1      -8.359  -7.132   7.291  0.00  0.00    +0.001 A 
ATOM     29  C   UNL     1      -8.012  -7.899   6.188  0.00  0.00    +0.001 A 
ENDBRANCH  17  19
BRANCH   6  20
ATOM     20  C   UNL     1      -6.292 -10.872  16.858  0.00  0.00    +0.068 C 
ATOM     22  C   UNL     1      -6.113 -10.938  18.369  0.00  0.00    +0.027 C 
ATOM     23  C   UNL     1      -7.724 -11.203  16.457  0.00  0.00    +0.027 C 
ENDBRANCH   6  20
TORSDOF 2
ENDMDL
MODEL 5
REMARK VINA RESULT:      -6.6     27.576     31.221
REMARK  Name = 7672458
REMARK  4 active torsions:
REMARK  status: ('A' for Active; 'I' for Inactive)
REMARK    1  A    between atoms: N_6  and  C_20
REMARK    2  A    between atoms: C_17  and  C_19
REMARK    3  A    between atoms: C_20  and  C_22
REMARK    4  A    between atoms: C_20  and  C_23
REMARK                            x       y       z     vdW  Elec       q    Type
REMARK                         _______ _______ _______ _____ _____    ______ ____
ROOT
ATOM      2  O   UNL     1     -14.848   8.573  21.974  0.00  0.00    -0.267 OA
ATOM      3  O   UNL     1     -13.129   8.078  16.257  0.00  0.00    -0.253 OA
ATOM      4  N   UNL     1     -12.515   9.810  17.676  0.00  0.00    -0.285 N 
ATOM      5  N   UNL     1     -12.899   8.913  20.739  0.00  0.00    -0.311 N 
ATOM      6  N   UNL     1     -14.643   9.758  16.645  0.00  0.00    -0.297 N 
ATOM      7  C   UNL     1     -12.268  11.191  19.759  0.00  0.00    +0.027 C 
ATOM      8  C   UNL     1     -10.795   9.261  19.398  0.00  0.00    +0.054 C 
ATOM      9  C   UNL     1     -10.832  10.703  19.893  0.00  0.00    +0.018 C 
ATOM     10  C   UNL     1     -12.741  11.127  18.293  0.00  0.00    +0.114 C 
ATOM     11  C   UNL     1     -13.161  10.356  20.685  0.00  0.00    +0.130 C 
ATOM     12  C   UNL     1     -11.188   9.227  17.910  0.00  0.00    +0.119 C 
ATOM     13  C   UNL     1     -11.729   8.373  20.198  0.00  0.00    +0.027 A 
ATOM     14  C   UNL     1     -11.448   7.070  20.364  0.00  0.00    +0.022 A 
ATOM     15  C   UNL     1     -13.824   8.128  21.454  0.00  0.00    +0.260 A 
ATOM     16  C   UNL     1     -13.410   9.140  16.821  0.00  0.00    +0.302 C 
ATOM     17  C   UNL     1     -13.498   6.665  21.587  0.00  0.00    +0.053 A 
ATOM     18  C   UNL     1     -12.352   6.203  21.068  0.00  0.00    +0.016 A 
ATOM     30  H   UNL     1     -14.813  10.694  16.983  0.00  0.00    +0.150 HD
ENDROOT
BRANCH  17  19
ATOM      1  S   UNL     1     -15.914   5.423  21.573  0.00  0.00    -0.088 S 
ATOM     19  C   UNL     1     -14.392   5.778  22.263  0.00  0.00    +0.026 A 
ATOM     21  C   UNL     1     -14.212   5.117  23.460  0.00  0.00    +0.024 A 
ATOM     24  C   UNL     1     -15.335   4.303  23.830  0.00  0.00    -0.010 A 
ATOM     25  C   UNL     1     -16.352   4.379  22.873  0.00  0.00    +0.020 A 
ATOM     26  C   UNL     1     -15.543   3.482  24.964  0.00  0.00    +0.009 A 
ATOM     27  C   UNL     1     -17.556   3.664  23.020  0.00  0.00    +0.015 A 
ATOM     28  C   UNL     1     -16.737   2.771  25.113  0.00  0.00    +0.001 A 
ATOM     29  C   UNL     1     -17.731   2.862  24.150  0.00  0.00    +0.001 A 
ENDBRANCH  17  19
BRANCH   6  20
ATOM     20  C   UNL     1     -15.669   9.198  15.794  0.00  0.00    +0.068 C 
ATOM     22  C   UNL     1     -16.418  10.307  15.067  0.00  0.00    +0.027 C 
ATOM     23  C   UNL     1     -16.620   8.327  16.604  0.00  0.00    +0.027 C 
ENDBRANCH   6  20
TORSDOF 2
ENDMDL
MODEL 6
REMARK VINA RESULT:      -6.5     25.423     27.571
REMARK  Name = 7672458
REMARK  4 active torsions:
REMARK  status: ('A' for Active; 'I' for Inactive)
REMARK    1  A    between atoms: N_6  and  C_20
REMARK    2  A    between atoms: C_17  and  C_19
REMARK    3  A    between atoms: C_20  and  C_22
REMARK    4  A    between atoms: C_20  and  C_23
REMARK                            x       y       z     vdW  Elec       q    Type
REMARK                         _______ _______ _______ _____ _____    ______ ____
ROOT
ATOM      2  O   UNL     1     -11.471  -7.599   9.791  0.00  0.00    -0.267 OA
ATOM      3  O   UNL     1     -15.854  -3.539   9.368  0.00  0.00    -0.253 OA
ATOM      4  N   UNL     1     -14.964  -4.318  11.365  0.00  0.00    -0.285 N 
ATOM      5  N   UNL     1     -12.065  -5.608  10.850  0.00  0.00    -0.311 N 
ATOM      6  N   UNL     1     -16.538  -5.588  10.139  0.00  0.00    -0.297 N 
ATOM      7  C   UNL     1     -13.484  -5.548  12.978  0.00  0.00    +0.027 C 
ATOM      8  C   UNL     1     -12.707  -3.447  11.975  0.00  0.00    +0.054 C 
ATOM      9  C   UNL     1     -12.749  -4.247  13.272  0.00  0.00    +0.018 C 
ATOM     10  C   UNL     1     -14.917  -5.276  12.481  0.00  0.00    +0.114 C 
ATOM     11  C   UNL     1     -12.668  -6.355  11.960  0.00  0.00    +0.130 C 
ATOM     12  C   UNL     1     -14.144  -3.113  11.539  0.00  0.00    +0.119 C 
ATOM     13  C   UNL     1     -11.999  -4.212  10.873  0.00  0.00    +0.027 A 
ATOM     14  C   UNL     1     -11.336  -3.553   9.908  0.00  0.00    +0.022 A 
ATOM     15  C   UNL     1     -11.463  -6.368   9.828  0.00  0.00    +0.260 A 
ATOM     16  C   UNL     1     -15.789  -4.421  10.230  0.00  0.00    +0.302 C 
ATOM     17  C   UNL     1     -10.763  -5.596   8.743  0.00  0.00    +0.053 A 
ATOM     18  C   UNL     1     -10.711  -4.259   8.825  0.00  0.00    +0.016 A 
ATOM     30  H   UNL     1     -16.597  -6.234  10.914  0.00  0.00    +0.150 HD
ENDROOT
BRANCH  17  19
ATOM      1  S   UNL     1      -8.502  -6.704   7.722  0.00  0.00    -0.088 S 
ATOM     19  C   UNL     1     -10.154  -6.275   7.643  0.00  0.00    +0.026 A 
ATOM     21  C   UNL     1     -10.723  -6.668   6.449  0.00  0.00    +0.024 A 
ATOM     24  C   UNL     1      -9.798  -7.332   5.574  0.00  0.00    -0.010 A 
ATOM     25  C   UNL     1      -8.529  -7.421   6.154  0.00  0.00    +0.020 A 
ATOM     26  C   UNL     1      -9.984  -7.877   4.282  0.00  0.00    +0.009 A 
ATOM     27  C   UNL     1      -7.454  -8.033   5.481  0.00  0.00    +0.015 A 
ATOM     28  C   UNL     1      -8.919  -8.486   3.612  0.00  0.00    +0.001 A 
ATOM     29  C   UNL     1      -7.669  -8.563   4.207  0.00  0.00    +0.001 A 
ENDBRANCH  17  19
BRANCH   6  20
ATOM     20  C   UNL     1     -17.438  -5.842   9.036  0.00  0.00    +0.068 C 
ATOM     22  C   UNL     1     -18.750  -6.424   9.545  0.00  0.00    +0.027 C 
ATOM     23  C   UNL     1     -16.784  -6.763   8.014  0.00  0.00    +0.027 C 
ENDBRANCH   6  20
TORSDOF 2
ENDMDL
MODEL 7
REMARK VINA RESULT:      -6.5     29.398     32.877
REMARK  Name = 7672458
REMARK  4 active torsions:
REMARK  status: ('A' for Active; 'I' for Inactive)
REMARK    1  A    between atoms: N_6  and  C_20
REMARK    2  A    between atoms: C_17  and  C_19
REMARK    3  A    between atoms: C_20  and  C_22
REMARK    4  A    between atoms: C_20  and  C_23
REMARK                            x       y       z     vdW  Elec       q    Type
REMARK                         _______ _______ _______ _____ _____    ______ ____
ROOT
ATOM      2  O   UNL     1     -13.164   4.916  23.023  0.00  0.00    -0.267 OA
ATOM      3  O   UNL     1     -14.957  10.595  22.376  0.00  0.00    -0.253 OA
ATOM      4  N   UNL     1     -13.371   9.550  21.041  0.00  0.00    -0.285 N 
ATOM      5  N   UNL     1     -13.675   6.358  21.262  0.00  0.00    -0.311 N 
ATOM      6  N   UNL     1     -12.826  10.366  23.193  0.00  0.00    -0.297 N 
ATOM      7  C   UNL     1     -11.899   7.762  20.071  0.00  0.00    +0.027 C 
ATOM      8  C   UNL     1     -14.246   7.918  19.369  0.00  0.00    +0.054 C 
ATOM      9  C   UNL     1     -12.827   7.673  18.867  0.00  0.00    +0.018 C 
ATOM     10  C   UNL     1     -11.988   9.148  20.739  0.00  0.00    +0.114 C 
ATOM     11  C   UNL     1     -12.250   6.632  21.047  0.00  0.00    +0.130 C 
ATOM     12  C   UNL     1     -14.337   9.338  19.956  0.00  0.00    +0.119 C 
ATOM     13  C   UNL     1     -14.648   6.899  20.419  0.00  0.00    +0.027 A 
ATOM     14  C   UNL     1     -15.936   6.541  20.556  0.00  0.00    +0.022 A 
ATOM     15  C   UNL     1     -13.997   5.441  22.283  0.00  0.00    +0.260 A 
ATOM     16  C   UNL     1     -13.799  10.197  22.215  0.00  0.00    +0.302 C 
ATOM     17  C   UNL     1     -15.452   5.091  22.434  0.00  0.00    +0.053 A 
ATOM     18  C   UNL     1     -16.342   5.623  21.584  0.00  0.00    +0.016 A 
ATOM     30  H   UNL     1     -11.852  10.178  23.001  0.00  0.00    +0.150 HD
ENDROOT
BRANCH  17  19
ATOM      1  S   UNL     1     -16.840   2.841  23.062  0.00  0.00    -0.088 S 
ATOM     19  C   UNL     1     -15.883   4.199  23.463  0.00  0.00    +0.026 A 
ATOM     21  C   UNL     1     -15.635   4.260  24.819  0.00  0.00    +0.024 A 
ATOM     24  C   UNL     1     -16.235   3.181  25.552  0.00  0.00    -0.010 A 
ATOM     25  C   UNL     1     -16.933   2.319  24.702  0.00  0.00    +0.020 A 
ATOM     26  C   UNL     1     -16.216   2.887  26.936  0.00  0.00    +0.009 A 
ATOM     27  C   UNL     1     -17.606   1.185  25.196  0.00  0.00    +0.015 A 
ATOM     28  C   UNL     1     -16.883   1.762  27.429  0.00  0.00    +0.001 A 
ATOM     29  C   UNL     1     -17.570   0.921  26.566  0.00  0.00    +0.001 A 
ENDBRANCH  17  19
BRANCH   6  20
ATOM     20  C   UNL     1     -13.106  11.017  24.454  0.00  0.00    +0.068 C 
ATOM     22  C   UNL     1     -12.820  12.509  24.355  0.00  0.00    +0.027 C 
ATOM     23  C   UNL     1     -12.305  10.373  25.577  0.00  0.00    +0.027 C 
ENDBRANCH   6  20
TORSDOF 2
ENDMDL
MODEL 8
REMARK VINA RESULT:      -6.5     26.206     29.876
REMARK  Name = 7672458
REMARK  4 active torsions:
REMARK  status: ('A' for Active; 'I' for Inactive)
REMARK    1  A    between atoms: N_6  and  C_20
REMARK    2  A    between atoms: C_17  and  C_19
REMARK    3  A    between atoms: C_20  and  C_22
REMARK    4  A    between atoms: C_20  and  C_23
REMARK                            x       y       z     vdW  Elec       q    Type
REMARK                         _______ _______ _______ _____ _____    ______ ____
ROOT
ATOM      2  O   UNL     1     -14.918   9.106  19.711  0.00  0.00    -0.267 OA
ATOM      3  O   UNL     1     -10.994   7.845  15.365  0.00  0.00    -0.253 OA
ATOM      4  N   UNL     1     -11.244   9.930  16.354  0.00  0.00    -0.285 N 
ATOM      5  N   UNL     1     -12.703   9.629  19.203  0.00  0.00    -0.311 N 
ATOM      6  N   UNL     1     -12.749   9.164  14.698  0.00  0.00    -0.297 N 
ATOM      7  C   UNL     1     -12.047  11.734  17.906  0.00  0.00    +0.027 C 
ATOM      8  C   UNL     1     -10.306  10.173  18.653  0.00  0.00    +0.054 C 
ATOM      9  C   UNL     1     -10.735  11.637  18.672  0.00  0.00    +0.018 C 
ATOM     10  C   UNL     1     -11.876  11.255  16.451  0.00  0.00    +0.114 C 
ATOM     11  C   UNL     1     -13.115  10.926  18.653  0.00  0.00    +0.130 C 
ATOM     12  C   UNL     1     -10.058   9.737  17.199  0.00  0.00    +0.119 C 
ATOM     13  C   UNL     1     -11.353   9.279  19.289  0.00  0.00    +0.027 A 
ATOM     14  C   UNL     1     -10.989   8.142  19.906  0.00  0.00    +0.022 A 
ATOM     15  C   UNL     1     -13.722   8.815  19.737  0.00  0.00    +0.260 A 
ATOM     16  C   UNL     1     -11.620   8.905  15.466  0.00  0.00    +0.302 C 
ATOM     17  C   UNL     1     -13.282   7.531  20.386  0.00  0.00    +0.053 A 
ATOM     18  C   UNL     1     -11.972   7.254  20.459  0.00  0.00    +0.016 A 
ATOM     30  H   UNL     1     -13.166  10.084  14.673  0.00  0.00    +0.150 HD
ENDROOT
BRANCH  17  19
ATOM      1  S   UNL     1     -13.870   5.730  22.333  0.00  0.00    -0.088 S 
ATOM     19  C   UNL     1     -14.243   6.621  20.923  0.00  0.00    +0.026 A 
ATOM     21  C   UNL     1     -15.508   6.325  20.458  0.00  0.00    +0.024 A 
ATOM     24  C   UNL     1     -16.192   5.352  21.262  0.00  0.00    -0.010 A 
ATOM     25  C   UNL     1     -15.400   4.937  22.336  0.00  0.00    +0.020 A 
ATOM     26  C   UNL     1     -17.483   4.791  21.125  0.00  0.00    +0.009 A 
ATOM     27  C   UNL     1     -15.861   3.984  23.264  0.00  0.00    +0.015 A 
ATOM     28  C   UNL     1     -17.945   3.845  22.045  0.00  0.00    +0.001 A 
ATOM     29  C   UNL     1     -17.140   3.447  23.103  0.00  0.00    +0.001 A 
ENDBRANCH  17  19
BRANCH   6  20
ATOM     20  C   UNL     1     -13.259   8.213  13.735  0.00  0.00    +0.068 C 
ATOM     22  C   UNL     1     -13.609   8.916  12.430  0.00  0.00    +0.027 C 
ATOM     23  C   UNL     1     -14.462   7.471  14.303  0.00  0.00    +0.027 C 
ENDBRANCH   6  20
TORSDOF 2
ENDMDL
MODEL 9
REMARK VINA RESULT:      -6.4     42.422     43.488
REMARK  Name = 7672458
REMARK  4 active torsions:
REMARK  status: ('A' for Active; 'I' for Inactive)
REMARK    1  A    between atoms: N_6  and  C_20
REMARK    2  A    between atoms: C_17  and  C_19
REMARK    3  A    between atoms: C_20  and  C_22
REMARK    4  A    between atoms: C_20  and  C_23
REMARK                            x       y       z     vdW  Elec       q    Type
REMARK                         _______ _______ _______ _____ _____    ______ ____
ROOT
ATOM      2  O   UNL     1      -9.978 -10.353  40.008  0.00  0.00    -0.267 OA
ATOM      3  O   UNL     1      -6.597  -5.557  38.807  0.00  0.00    -0.253 OA
ATOM      4  N   UNL     1      -6.430  -6.841  40.733  0.00  0.00    -0.285 N 
ATOM      5  N   UNL     1      -7.742  -9.735  40.244  0.00  0.00    -0.311 N 
ATOM      6  N   UNL     1      -8.141  -5.229  40.471  0.00  0.00    -0.297 N 
ATOM      7  C   UNL     1      -6.820  -8.689  42.388  0.00  0.00    +0.027 C 
ATOM      8  C   UNL     1      -5.325  -9.064  40.478  0.00  0.00    +0.054 C 
ATOM      9  C   UNL     1      -5.499  -9.320  41.971  0.00  0.00    +0.018 C 
ATOM     10  C   UNL     1      -6.822  -7.172  42.112  0.00  0.00    +0.114 C 
ATOM     11  C   UNL     1      -7.961  -9.406  41.657  0.00  0.00    +0.130 C 
ATOM     12  C   UNL     1      -5.245  -7.547  40.231  0.00  0.00    +0.119 C 
ATOM     13  C   UNL     1      -6.468  -9.657  39.675  0.00  0.00    +0.027 A 
ATOM     14  C   UNL     1      -6.264 -10.078  38.416  0.00  0.00    +0.022 A 
ATOM     15  C   UNL     1      -8.849 -10.236  39.531  0.00  0.00    +0.260 A 
ATOM     16  C   UNL     1      -7.027  -5.856  39.925  0.00  0.00    +0.302 C 
ATOM     17  C   UNL     1      -8.593 -10.663  38.112  0.00  0.00    +0.053 A 
ATOM     18  C   UNL     1      -7.348 -10.586  37.623  0.00  0.00    +0.016 A 
ATOM     30  H   UNL     1      -8.397  -5.367  41.439  0.00  0.00    +0.150 HD
ENDROOT
BRANCH  17  19
ATOM      1  S   UNL     1      -9.538 -12.694  36.574  0.00  0.00    -0.088 S 
ATOM     19  C   UNL     1      -9.660 -11.150  37.294  0.00  0.00    +0.026 A 
ATOM     21  C   UNL     1     -10.852 -10.534  36.973  0.00  0.00    +0.024 A 
ATOM     24  C   UNL     1     -11.688 -11.332  36.121  0.00  0.00    -0.010 A 
ATOM     25  C   UNL     1     -11.082 -12.556  35.821  0.00  0.00    +0.020 A 
ATOM     26  C   UNL     1     -12.966 -11.066  35.575  0.00  0.00    +0.009 A 
ATOM     27  C   UNL     1     -11.715 -13.507  34.998  0.00  0.00    +0.015 A 
ATOM     28  C   UNL     1     -13.597 -12.009  34.759  0.00  0.00    +0.001 A 
ATOM     29  C   UNL     1     -12.976 -13.216  34.475  0.00  0.00    +0.001 A 
ENDBRANCH  17  19
BRANCH   6  20
ATOM     20  C   UNL     1      -8.862  -4.192  39.769  0.00  0.00    +0.068 C 
ATOM     22  C   UNL     1      -8.794  -2.882  40.542  0.00  0.00    +0.027 C 
ATOM     23  C   UNL     1     -10.305  -4.615  39.525  0.00  0.00    +0.027 C 
ENDBRANCH   6  20
TORSDOF 2
ENDMDL
MODEL 10
REMARK VINA RESULT:      -6.4     26.377     28.636
REMARK  Name = 7672458
REMARK  4 active torsions:
REMARK  status: ('A' for Active; 'I' for Inactive)
REMARK    1  A    between atoms: N_6  and  C_20
REMARK    2  A    between atoms: C_17  and  C_19
REMARK    3  A    between atoms: C_20  and  C_22
REMARK    4  A    between atoms: C_20  and  C_23
REMARK                            x       y       z     vdW  Elec       q    Type
REMARK                         _______ _______ _______ _____ _____    ______ ____
ROOT
ATOM      2  O   UNL     1      -6.963 -12.747  14.910  0.00  0.00    -0.267 OA
ATOM      3  O   UNL     1     -10.294  -8.855  18.015  0.00  0.00    -0.253 OA
ATOM      4  N   UNL     1     -10.112 -11.118  18.499  0.00  0.00    -0.285 N 
ATOM      5  N   UNL     1      -7.454 -12.323  17.150  0.00  0.00    -0.311 N 
ATOM      6  N   UNL     1     -11.507 -10.339  16.755  0.00  0.00    -0.297 N 
ATOM      7  C   UNL     1      -9.349 -13.508  18.395  0.00  0.00    +0.027 C 
ATOM      8  C   UNL     1      -7.978 -11.844  19.567  0.00  0.00    +0.054 C 
ATOM      9  C   UNL     1      -8.500 -13.274  19.638  0.00  0.00    +0.018 C 
ATOM     10  C   UNL     1     -10.530 -12.519  18.336  0.00  0.00    +0.114 C 
ATOM     11  C   UNL     1      -8.450 -13.401  17.157  0.00  0.00    +0.130 C 
ATOM     12  C   UNL     1      -9.167 -10.868  19.595  0.00  0.00    +0.119 C 
ATOM     13  C   UNL     1      -7.151 -11.614  18.316  0.00  0.00    +0.027 A 
ATOM     14  C   UNL     1      -6.152 -10.716  18.319  0.00  0.00    +0.022 A 
ATOM     15  C   UNL     1      -6.749 -12.119  15.948  0.00  0.00    +0.260 A 
ATOM     16  C   UNL     1     -10.614 -10.023  17.772  0.00  0.00    +0.302 C 
ATOM     17  C   UNL     1      -5.663 -11.078  15.976  0.00  0.00    +0.053 A 
ATOM     18  C   UNL     1      -5.400 -10.443  17.127  0.00  0.00    +0.016 A 
ATOM     30  H   UNL     1     -11.881 -11.273  16.658  0.00  0.00    +0.150 HD
ENDROOT
BRANCH  17  19
ATOM      1  S   UNL     1      -3.218 -10.960  14.798  0.00  0.00    -0.088 S 
ATOM     19  C   UNL     1      -4.917 -10.773  14.797  0.00  0.00    +0.026 A 
ATOM     21  C   UNL     1      -5.376 -10.323  13.576  0.00  0.00    +0.024 A 
ATOM     24  C   UNL     1      -4.326 -10.123  12.617  0.00  0.00    -0.010 A 
ATOM     25  C   UNL     1      -3.078 -10.438  13.161  0.00  0.00    +0.020 A 
ATOM     26  C   UNL     1      -4.379  -9.678  11.275  0.00  0.00    +0.009 A 
ATOM     27  C   UNL     1      -1.895 -10.319  12.405  0.00  0.00    +0.015 A 
ATOM     28  C   UNL     1      -3.208  -9.559  10.522  0.00  0.00    +0.001 A 
ATOM     29  C   UNL     1      -1.980  -9.877  11.083  0.00  0.00    +0.001 A 
ENDBRANCH  17  19
BRANCH   6  20
ATOM     20  C   UNL     1     -12.115  -9.326  15.921  0.00  0.00    +0.068 C 
ATOM     22  C   UNL     1     -13.539  -9.046  16.382  0.00  0.00    +0.027 C 
ATOM     23  C   UNL     1     -12.079  -9.746  14.458  0.00  0.00    +0.027 C 
ENDBRANCH   6  20
TORSDOF 2
ENDMDL
