REMARK  Name = 28962043
REMARK  10 active torsions:
REMARK  status: ('A' for Active; 'I' for Inactive)
REMARK    1  A    between atoms: S_1  and  N_10
REMARK    2  A    between atoms: S_1  and  C_24
REMARK    3  A    between atoms: O_3  and  C_14
REMARK    4  A    between atoms: O_4  and  C_21
REMARK    5  A    between atoms: O_7  and  C_32
REMARK    6  A    between atoms: O_7  and  C_33
REMARK    7  A    between atoms: N_8  and  C_12
REMARK    8  A    between atoms: N_10  and  C_18
REMARK    9  A    between atoms: C_13  and  C_18
REMARK   10  A    between atoms: C_15  and  C_21
REMARK                            x       y       z     vdW  Elec       q    Type
REMARK                         _______ _______ _______ _____ _____    ______ ____
ROOT
ATOM      2  O   UNL     1       1.738   3.308   0.605  0.00  0.00    -0.366 OA
ATOM     12  C   UNL     1      -0.494   2.607   0.166  0.00  0.00    +0.118 C 
ATOM     13  C   UNL     1       0.763   2.313   0.994  0.00  0.00    +0.154 C 
ATOM     14  C   UNL     1       0.061   3.306  -1.066  0.00  0.00    +0.165 C 
ATOM     15  C   UNL     1       1.182   4.128  -0.441  0.00  0.00    +0.174 C 
ENDROOT
BRANCH  12   8
ATOM      8  N   UNL     1      -1.364   1.475  -0.104  0.00  0.00    -0.292 NA
ATOM      9  N   UNL     1      -3.804  -0.009  -0.053  0.00  0.00    -0.313 N 
ATOM     11  N   UNL     1      -4.787  -2.142   0.239  0.00  0.00    -0.240 NA
ATOM     16  C   UNL     1      -1.850   0.888   1.151  0.00  0.00    +0.104 C 
ATOM     17  C   UNL     1      -2.501   1.886  -0.936  0.00  0.00    +0.104 C 
ATOM     19  C   UNL     1      -2.721  -0.340   0.882  0.00  0.00    +0.122 C 
ATOM     20  C   UNL     1      -3.396   0.691  -1.275  0.00  0.00    +0.122 C 
ATOM     22  C   UNL     1      -4.934  -0.835  -0.070  0.00  0.00    +0.121 A 
ATOM     23  C   UNL     1      -6.143  -0.249  -0.409  0.00  0.00    +0.043 A 
ATOM     25  C   UNL     1      -7.274  -1.057  -0.432  0.00  0.00    +0.005 A 
ATOM     26  C   UNL     1      -5.908  -2.897   0.207  0.00  0.00    +0.113 A 
ATOM     29  C   UNL     1      -7.163  -2.407  -0.119  0.00  0.00    +0.020 A 
ENDBRANCH  12   8
BRANCH  14   3
ATOM      3  O   UNL     1       0.591   2.374  -1.999  0.00  0.00    -0.388 OA
ATOM     34  H   UNL     1       0.831   2.866  -2.803  0.00  0.00    +0.210 HD
ENDBRANCH  14   3
BRANCH  13  18
ATOM     18  C   UNL     1       1.409   0.947   0.795  0.00  0.00    +0.139 C 
BRANCH  18  10
ATOM     10  N   UNL     1       2.266   0.638   1.954  0.00  0.00    -0.187 NA
ATOM     35  H   UNL     1       3.010   1.319   2.154  0.00  0.00    +0.148 HD
BRANCH  10   1
ATOM      1  S   UNL     1       2.493  -0.977   2.443  0.00  0.00    +0.058 S 
ATOM      5  O   UNL     1       1.200  -1.599   2.655  0.00  0.00    -0.153 OA
ATOM      6  O   UNL     1       3.502  -1.018   3.484  0.00  0.00    -0.153 OA
BRANCH   1  24
ATOM     24  C   UNL     1       3.213  -1.694   0.997  0.00  0.00    +0.105 A 
ATOM     27  C   UNL     1       2.395  -2.256   0.017  0.00  0.00    +0.032 A 
ATOM     28  C   UNL     1       4.598  -1.699   0.837  0.00  0.00    +0.032 A 
ATOM     30  C   UNL     1       2.963  -2.823  -1.124  0.00  0.00    +0.047 A 
ATOM     31  C   UNL     1       5.167  -2.266  -0.304  0.00  0.00    +0.047 A 
ATOM     32  C   UNL     1       4.349  -2.828  -1.284  0.00  0.00    +0.120 A 
BRANCH  32   7
ATOM      7  O   UNL     1       4.903  -3.382  -2.397  0.00  0.00    -0.495 OA
ATOM     33  C   UNL     1       4.009  -3.940  -3.359  0.00  0.00    +0.277 C 
ENDBRANCH  32   7
ENDBRANCH   1  24
ENDBRANCH  10   1
ENDBRANCH  18  10
ENDBRANCH  13  18
BRANCH  15  21
ATOM     21  C   UNL     1       2.290   4.549  -1.389  0.00  0.00    +0.190 C 
BRANCH  21   4
ATOM      4  O   UNL     1       3.246   5.310  -0.668  0.00  0.00    -0.392 OA
ATOM     36  H   UNL     1       3.940   5.569  -1.298  0.00  0.00    +0.210 HD
ENDBRANCH  21   4
ENDBRANCH  15  21
TORSDOF 9
