MODEL 1
REMARK VINA RESULT:      -7.3      0.000      0.000
REMARK  Name = 26742472
REMARK  13 active torsions:
REMARK  status: ('A' for Active; 'I' for Inactive)
REMARK    1  A    between atoms: N_3  and  C_14
REMARK    2  A    between atoms: N_6  and  C_31
REMARK    3  A    between atoms: N_6  and  C_32
REMARK    4  A    between atoms: N_6  and  C_33
REMARK    5  A    between atoms: C_8  and  C_15
REMARK    6  A    between atoms: C_9  and  C_14
REMARK    7  A    between atoms: C_17  and  C_20
REMARK    8  A    between atoms: C_18  and  C_21
REMARK    9  A    between atoms: C_19  and  C_24
REMARK   10  A    between atoms: C_20  and  C_22
REMARK   11  A    between atoms: C_20  and  C_23
REMARK   12  A    between atoms: C_22  and  C_25
REMARK   13  A    between atoms: C_23  and  C_26
REMARK                            x       y       z     vdW  Elec       q    Type
REMARK                         _______ _______ _______ _____ _____    ______ ____
ROOT
ATOM      2  N   UNL     1      13.165   7.006  19.844  0.00  0.00    -0.297 NA
ATOM      7  C   UNL     1      14.761   8.845  18.923  0.00  0.00    +0.002 C 
ATOM      8  C   UNL     1      15.574   7.611  19.404  0.00  0.00    +0.055 C 
ATOM      9  C   UNL     1      12.839   8.317  20.462  0.00  0.00    +0.074 C 
ATOM     10  C   UNL     1      13.900   9.375  20.089  0.00  0.00    +0.024 C 
ATOM     11  C   UNL     1      13.790   8.342  17.833  0.00  0.00    +0.019 C 
ATOM     12  C   UNL     1      14.580   6.652  20.119  0.00  0.00    +0.094 C 
ATOM     13  C   UNL     1      12.998   7.140  18.377  0.00  0.00    +0.085 C 
ENDROOT
BRANCH   8  15
ATOM      4  N   UNL     1      16.980   9.087  20.755  0.00  0.00    -0.237 NA
ATOM      5  N   UNL     1      19.072   8.354  21.702  0.00  0.00    -0.232 NA
ATOM     15  C   UNL     1      16.833   7.855  20.224  0.00  0.00    +0.050 A 
ATOM     16  C   UNL     1      17.747   6.835  20.386  0.00  0.00    +0.052 A 
ATOM     18  C   UNL     1      18.860   7.144  21.142  0.00  0.00    +0.075 A 
ATOM     19  C   UNL     1      18.107   9.264  21.472  0.00  0.00    +0.127 A 
ATOM     24  C   UNL     1      18.307  10.614  22.074  0.00  0.00    +0.088 C 
BRANCH  18  21
ATOM     21  C   UNL     1      19.892   6.166  21.386  0.00  0.00    +0.001 A 
ATOM     27  C   UNL     1      20.664   6.239  22.545  0.00  0.00    +0.012 A 
ATOM     28  C   UNL     1      20.116   5.144  20.463  0.00  0.00    +0.012 A 
ATOM     29  C   UNL     1      21.661   5.294  22.781  0.00  0.00    +0.024 A 
ATOM     30  C   UNL     1      21.113   4.198  20.698  0.00  0.00    +0.024 A 
ATOM     31  C   UNL     1      21.886   4.273  21.857  0.00  0.00    +0.029 A 
BRANCH  31   6
ATOM      6  N   UNL     1      22.895   3.316  22.094  0.00  0.00    -0.336 N 
ATOM     32  C   UNL     1      23.368   2.467  21.018  0.00  0.00    +0.129 C 
ATOM     33  C   UNL     1      23.477   3.174  23.414  0.00  0.00    +0.129 C 
ENDBRANCH  31   6
ENDBRANCH  18  21
ENDBRANCH   8  15
BRANCH   9  14
ATOM     14  C   UNL     1      12.643   8.216  21.976  0.00  0.00    +0.123 C 
BRANCH  14   3
ATOM      1  O   UNL     1       9.991   9.100  22.642  0.00  0.00    -0.276 OA
ATOM      3  N   UNL     1      12.277   9.483  22.530  0.00  0.00    -0.314 N 
ATOM     17  C   UNL     1      10.960   9.834  22.825  0.00  0.00    +0.216 C 
ATOM     34  H   UNL     1      13.023  10.148  22.708  0.00  0.00    +0.149 HD
BRANCH  17  20
ATOM     20  C   UNL     1      10.832  11.252  23.393  0.00  0.00    +0.074 C 
BRANCH  20  22
ATOM     22  C   UNL     1      11.639  12.279  22.580  0.00  0.00    +0.009 C 
ATOM     25  C   UNL     1      10.777  13.434  22.082  0.00  0.00    +0.004 C 
ENDBRANCH  20  22
BRANCH  20  23
ATOM     23  C   UNL     1      11.222  11.264  24.886  0.00  0.00    +0.009 C 
ATOM     26  C   UNL     1      12.489  12.046  25.208  0.00  0.00    +0.004 C 
ENDBRANCH  20  23
ENDBRANCH  17  20
ENDBRANCH  14   3
ENDBRANCH   9  14
TORSDOF 8
ENDMDL
MODEL 2
REMARK VINA RESULT:      -7.3     26.676     30.529
REMARK  Name = 26742472
REMARK  13 active torsions:
REMARK  status: ('A' for Active; 'I' for Inactive)
REMARK    1  A    between atoms: N_3  and  C_14
REMARK    2  A    between atoms: N_6  and  C_31
REMARK    3  A    between atoms: N_6  and  C_32
REMARK    4  A    between atoms: N_6  and  C_33
REMARK    5  A    between atoms: C_8  and  C_15
REMARK    6  A    between atoms: C_9  and  C_14
REMARK    7  A    between atoms: C_17  and  C_20
REMARK    8  A    between atoms: C_18  and  C_21
REMARK    9  A    between atoms: C_19  and  C_24
REMARK   10  A    between atoms: C_20  and  C_22
REMARK   11  A    between atoms: C_20  and  C_23
REMARK   12  A    between atoms: C_22  and  C_25
REMARK   13  A    between atoms: C_23  and  C_26
REMARK                            x       y       z     vdW  Elec       q    Type
REMARK                         _______ _______ _______ _____ _____    ______ ____
ROOT
ATOM      2  N   UNL     1      -7.461 -11.563  17.953  0.00  0.00    -0.297 NA
ATOM      7  C   UNL     1      -4.923 -11.495  18.533  0.00  0.00    +0.002 C 
ATOM      8  C   UNL     1      -5.238 -10.528  17.358  0.00  0.00    +0.055 C 
ATOM      9  C   UNL     1      -6.918 -12.944  18.020  0.00  0.00    +0.074 C 
ATOM     10  C   UNL     1      -5.380 -12.920  18.156  0.00  0.00    +0.024 C 
ATOM     11  C   UNL     1      -5.788 -11.042  19.729  0.00  0.00    +0.019 C 
ATOM     12  C   UNL     1      -6.716 -10.772  16.941  0.00  0.00    +0.094 C 
ATOM     13  C   UNL     1      -7.254 -10.929  19.278  0.00  0.00    +0.085 C 
ENDROOT
BRANCH   8  15
ATOM      4  N   UNL     1      -2.976 -10.599  16.432  0.00  0.00    -0.237 NA
ATOM      5  N   UNL     1      -2.555 -10.497  14.061  0.00  0.00    -0.232 NA
ATOM     15  C   UNL     1      -4.295 -10.517  16.163  0.00  0.00    +0.050 A 
ATOM     16  C   UNL     1      -4.814 -10.423  14.889  0.00  0.00    +0.052 A 
ATOM     18  C   UNL     1      -3.888 -10.418  13.865  0.00  0.00    +0.075 A 
ATOM     19  C   UNL     1      -2.174 -10.584  15.349  0.00  0.00    +0.127 A 
ATOM     24  C   UNL     1      -0.708 -10.672  15.606  0.00  0.00    +0.088 C 
BRANCH  18  21
ATOM     21  C   UNL     1      -4.301 -10.324  12.486  0.00  0.00    +0.001 A 
ATOM     27  C   UNL     1      -3.348 -10.349  11.468  0.00  0.00    +0.012 A 
ATOM     28  C   UNL     1      -5.655 -10.210  12.169  0.00  0.00    +0.012 A 
ATOM     29  C   UNL     1      -3.746 -10.259  10.135  0.00  0.00    +0.024 A 
ATOM     30  C   UNL     1      -6.054 -10.119  10.836  0.00  0.00    +0.024 A 
ATOM     31  C   UNL     1      -5.100 -10.143   9.818  0.00  0.00    +0.029 A 
BRANCH  31   6
ATOM      6  N   UNL     1      -5.504 -10.051   8.471  0.00  0.00    -0.336 N 
ATOM     32  C   UNL     1      -6.592  -9.172   8.090  0.00  0.00    +0.129 C 
ATOM     33  C   UNL     1      -4.833 -10.828   7.447  0.00  0.00    +0.129 C 
ENDBRANCH  31   6
ENDBRANCH  18  21
ENDBRANCH   8  15
BRANCH   9  14
ATOM     14  C   UNL     1      -7.372 -13.806  16.840  0.00  0.00    +0.123 C 
BRANCH  14   3
ATOM      1  O   UNL     1      -6.954 -13.100  14.086  0.00  0.00    -0.276 OA
ATOM      3  N   UNL     1      -6.260 -14.178  16.020  0.00  0.00    -0.314 N 
ATOM     17  C   UNL     1      -6.133 -13.791  14.687  0.00  0.00    +0.216 C 
ATOM     34  H   UNL     1      -5.539 -14.752  16.445  0.00  0.00    +0.149 HD
BRANCH  17  20
ATOM     20  C   UNL     1      -4.860 -14.333  14.026  0.00  0.00    +0.074 C 
BRANCH  20  22
ATOM     22  C   UNL     1      -3.597 -14.002  14.839  0.00  0.00    +0.009 C 
ATOM     25  C   UNL     1      -2.327 -14.081  14.000  0.00  0.00    +0.004 C 
ENDBRANCH  20  22
BRANCH  20  23
ATOM     23  C   UNL     1      -4.760 -13.827  12.572  0.00  0.00    +0.009 C 
ATOM     26  C   UNL     1      -5.294 -14.794  11.523  0.00  0.00    +0.004 C 
ENDBRANCH  20  23
ENDBRANCH  17  20
ENDBRANCH  14   3
ENDBRANCH   9  14
TORSDOF 8
ENDMDL
MODEL 3
REMARK VINA RESULT:      -7.1     15.494     19.667
REMARK  Name = 26742472
REMARK  13 active torsions:
REMARK  status: ('A' for Active; 'I' for Inactive)
REMARK    1  A    between atoms: N_3  and  C_14
REMARK    2  A    between atoms: N_6  and  C_31
REMARK    3  A    between atoms: N_6  and  C_32
REMARK    4  A    between atoms: N_6  and  C_33
REMARK    5  A    between atoms: C_8  and  C_15
REMARK    6  A    between atoms: C_9  and  C_14
REMARK    7  A    between atoms: C_17  and  C_20
REMARK    8  A    between atoms: C_18  and  C_21
REMARK    9  A    between atoms: C_19  and  C_24
REMARK   10  A    between atoms: C_20  and  C_22
REMARK   11  A    between atoms: C_20  and  C_23
REMARK   12  A    between atoms: C_22  and  C_25
REMARK   13  A    between atoms: C_23  and  C_26
REMARK                            x       y       z     vdW  Elec       q    Type
REMARK                         _______ _______ _______ _____ _____    ______ ____
ROOT
ATOM      2  N   UNL     1      10.675   5.296   7.912  0.00  0.00    -0.297 NA
ATOM      7  C   UNL     1       9.210   7.349   7.262  0.00  0.00    +0.002 C 
ATOM      8  C   UNL     1       9.072   6.224   6.198  0.00  0.00    +0.055 C 
ATOM      9  C   UNL     1      11.484   6.540   7.983  0.00  0.00    +0.074 C 
ATOM     10  C   UNL     1      10.697   7.737   7.406  0.00  0.00    +0.024 C 
ATOM     11  C   UNL     1       8.767   6.743   8.612  0.00  0.00    +0.019 C 
ATOM     12  C   UNL     1      10.120   5.128   6.545  0.00  0.00    +0.094 C 
ATOM     13  C   UNL     1       9.541   5.436   8.857  0.00  0.00    +0.085 C 
ENDROOT
BRANCH   8  15
ATOM      4  N   UNL     1       8.355   7.672   4.362  0.00  0.00    -0.237 NA
ATOM      5  N   UNL     1       9.142   7.366   2.104  0.00  0.00    -0.232 NA
ATOM     15  C   UNL     1       9.113   6.617   4.728  0.00  0.00    +0.050 A 
ATOM     16  C   UNL     1       9.900   5.897   3.854  0.00  0.00    +0.052 A 
ATOM     18  C   UNL     1       9.876   6.321   2.540  0.00  0.00    +0.075 A 
ATOM     19  C   UNL     1       8.416   7.986   3.053  0.00  0.00    +0.127 A 
ATOM     24  C   UNL     1       7.591   9.146   2.609  0.00  0.00    +0.088 C 
BRANCH  18  21
ATOM     21  C   UNL     1      10.654   5.651   1.526  0.00  0.00    +0.001 A 
ATOM     27  C   UNL     1      11.465   4.570   1.870  0.00  0.00    +0.012 A 
ATOM     28  C   UNL     1      10.594   6.084   0.202  0.00  0.00    +0.012 A 
ATOM     29  C   UNL     1      12.216   3.922   0.890  0.00  0.00    +0.024 A 
ATOM     30  C   UNL     1      11.346   5.438  -0.778  0.00  0.00    +0.024 A 
ATOM     31  C   UNL     1      12.157   4.356  -0.435  0.00  0.00    +0.029 A 
BRANCH  31   6
ATOM      6  N   UNL     1      12.918   3.702  -1.426  0.00  0.00    -0.336 N 
ATOM     32  C   UNL     1      12.317   2.672  -2.251  0.00  0.00    +0.129 C 
ATOM     33  C   UNL     1      14.307   4.056  -1.640  0.00  0.00    +0.129 C 
ENDBRANCH  31   6
ENDBRANCH  18  21
ENDBRANCH   8  15
BRANCH   9  14
ATOM     14  C   UNL     1      12.853   6.384   7.318  0.00  0.00    +0.123 C 
BRANCH  14   3
ATOM      1  O   UNL     1      14.505   8.033   5.641  0.00  0.00    -0.276 OA
ATOM      3  N   UNL     1      12.752   6.535   5.899  0.00  0.00    -0.314 N 
ATOM     17  C   UNL     1      13.598   7.359   5.157  0.00  0.00    +0.216 C 
ATOM     34  H   UNL     1      12.023   6.012   5.425  0.00  0.00    +0.149 HD
BRANCH  17  20
ATOM     20  C   UNL     1      13.272   7.358   3.660  0.00  0.00    +0.074 C 
BRANCH  20  22
ATOM     22  C   UNL     1      14.452   6.861   2.808  0.00  0.00    +0.009 C 
ATOM     25  C   UNL     1      14.206   7.038   1.313  0.00  0.00    +0.004 C 
ENDBRANCH  20  22
BRANCH  20  23
ATOM     23  C   UNL     1      12.790   8.756   3.221  0.00  0.00    +0.009 C 
ATOM     26  C   UNL     1      11.643   9.324   4.046  0.00  0.00    +0.004 C 
ENDBRANCH  20  23
ENDBRANCH  17  20
ENDBRANCH  14   3
ENDBRANCH   9  14
TORSDOF 8
ENDMDL
MODEL 4
REMARK VINA RESULT:      -6.8     16.210     20.003
REMARK  Name = 26742472
REMARK  13 active torsions:
REMARK  status: ('A' for Active; 'I' for Inactive)
REMARK    1  A    between atoms: N_3  and  C_14
REMARK    2  A    between atoms: N_6  and  C_31
REMARK    3  A    between atoms: N_6  and  C_32
REMARK    4  A    between atoms: N_6  and  C_33
REMARK    5  A    between atoms: C_8  and  C_15
REMARK    6  A    between atoms: C_9  and  C_14
REMARK    7  A    between atoms: C_17  and  C_20
REMARK    8  A    between atoms: C_18  and  C_21
REMARK    9  A    between atoms: C_19  and  C_24
REMARK   10  A    between atoms: C_20  and  C_22
REMARK   11  A    between atoms: C_20  and  C_23
REMARK   12  A    between atoms: C_22  and  C_25
REMARK   13  A    between atoms: C_23  and  C_26
REMARK                            x       y       z     vdW  Elec       q    Type
REMARK                         _______ _______ _______ _____ _____    ______ ____
ROOT
ATOM      2  N   UNL     1      10.279   6.909   7.909  0.00  0.00    -0.297 NA
ATOM      7  C   UNL     1       9.740   5.223   5.999  0.00  0.00    +0.002 C 
ATOM      8  C   UNL     1      11.119   5.898   5.756  0.00  0.00    +0.055 C 
ATOM      9  C   UNL     1       8.913   7.159   7.381  0.00  0.00    +0.074 C 
ATOM     10  C   UNL     1       8.653   6.312   6.116  0.00  0.00    +0.024 C 
ATOM     11  C   UNL     1       9.825   4.517   7.369  0.00  0.00    +0.019 C 
ATOM     12  C   UNL     1      11.276   7.025   6.815  0.00  0.00    +0.094 C 
ATOM     13  C   UNL     1      10.319   5.519   8.425  0.00  0.00    +0.085 C 
ENDROOT
BRANCH   8  15
ATOM      4  N   UNL     1      11.787   7.676   4.216  0.00  0.00    -0.237 NA
ATOM      5  N   UNL     1      12.039   7.298   1.849  0.00  0.00    -0.232 NA
ATOM     15  C   UNL     1      11.446   6.378   4.349  0.00  0.00    +0.050 A 
ATOM     16  C   UNL     1      11.380   5.490   3.295  0.00  0.00    +0.052 A 
ATOM     18  C   UNL     1      11.690   6.010   2.055  0.00  0.00    +0.075 A 
ATOM     19  C   UNL     1      12.066   8.064   2.956  0.00  0.00    +0.127 A 
ATOM     24  C   UNL     1      12.446   9.493   2.768  0.00  0.00    +0.088 C 
BRANCH  18  21
ATOM     21  C   UNL     1      11.658   5.186   0.871  0.00  0.00    +0.001 A 
ATOM     27  C   UNL     1      12.591   4.163   0.707  0.00  0.00    +0.012 A 
ATOM     28  C   UNL     1      10.692   5.411  -0.110  0.00  0.00    +0.012 A 
ATOM     29  C   UNL     1      12.560   3.365  -0.436  0.00  0.00    +0.024 A 
ATOM     30  C   UNL     1      10.660   4.615  -1.254  0.00  0.00    +0.024 A 
ATOM     31  C   UNL     1      11.594   3.591  -1.418  0.00  0.00    +0.029 A 
BRANCH  31   6
ATOM      6  N   UNL     1      11.562   2.786  -2.575  0.00  0.00    -0.336 N 
ATOM     32  C   UNL     1      10.442   1.900  -2.820  0.00  0.00    +0.129 C 
ATOM     33  C   UNL     1      12.644   2.840  -3.538  0.00  0.00    +0.129 C 
ENDBRANCH  31   6
ENDBRANCH  18  21
ENDBRANCH   8  15
BRANCH   9  14
ATOM     14  C   UNL     1       8.646   8.646   7.135  0.00  0.00    +0.123 C 
BRANCH  14   3
ATOM      1  O   UNL     1       9.774  10.289   5.065  0.00  0.00    -0.276 OA
ATOM      3  N   UNL     1       8.112   8.860   5.825  0.00  0.00    -0.314 N 
ATOM     17  C   UNL     1       8.726   9.676   4.876  0.00  0.00    +0.216 C 
ATOM     34  H   UNL     1       7.243   8.389   5.593  0.00  0.00    +0.149 HD
BRANCH  17  20
ATOM     20  C   UNL     1       7.945   9.752   3.559  0.00  0.00    +0.074 C 
BRANCH  20  22
ATOM     22  C   UNL     1       6.455  10.064   3.783  0.00  0.00    +0.009 C 
ATOM     25  C   UNL     1       5.624   9.870   2.520  0.00  0.00    +0.004 C 
ENDBRANCH  20  22
BRANCH  20  23
ATOM     23  C   UNL     1       8.149   8.457   2.746  0.00  0.00    +0.009 C 
ATOM     26  C   UNL     1       8.824   8.653   1.394  0.00  0.00    +0.004 C 
ENDBRANCH  20  23
ENDBRANCH  17  20
ENDBRANCH  14   3
ENDBRANCH   9  14
TORSDOF 8
ENDMDL
MODEL 5
REMARK VINA RESULT:      -6.8     16.634     21.806
REMARK  Name = 26742472
REMARK  13 active torsions:
REMARK  status: ('A' for Active; 'I' for Inactive)
REMARK    1  A    between atoms: N_3  and  C_14
REMARK    2  A    between atoms: N_6  and  C_31
REMARK    3  A    between atoms: N_6  and  C_32
REMARK    4  A    between atoms: N_6  and  C_33
REMARK    5  A    between atoms: C_8  and  C_15
REMARK    6  A    between atoms: C_9  and  C_14
REMARK    7  A    between atoms: C_17  and  C_20
REMARK    8  A    between atoms: C_18  and  C_21
REMARK    9  A    between atoms: C_19  and  C_24
REMARK   10  A    between atoms: C_20  and  C_22
REMARK   11  A    between atoms: C_20  and  C_23
REMARK   12  A    between atoms: C_22  and  C_25
REMARK   13  A    between atoms: C_23  and  C_26
REMARK                            x       y       z     vdW  Elec       q    Type
REMARK                         _______ _______ _______ _____ _____    ______ ____
ROOT
ATOM      2  N   UNL     1       9.439   4.975   5.779  0.00  0.00    -0.297 NA
ATOM      7  C   UNL     1      10.662   7.152   6.519  0.00  0.00    +0.002 C 
ATOM      8  C   UNL     1       9.130   7.397   6.418  0.00  0.00    +0.055 C 
ATOM      9  C   UNL     1      10.579   5.252   4.868  0.00  0.00    +0.074 C 
ATOM     10  C   UNL     1      11.188   6.641   5.162  0.00  0.00    +0.024 C 
ATOM     11  C   UNL     1      10.865   6.014   7.543  0.00  0.00    +0.019 C 
ATOM     12  C   UNL     1       8.500   6.125   5.782  0.00  0.00    +0.094 C 
ATOM     13  C   UNL     1       9.981   4.818   7.151  0.00  0.00    +0.085 C 
ENDROOT
BRANCH   8  15
ATOM      4  N   UNL     1       9.114   9.837   6.255  0.00  0.00    -0.237 NA
ATOM      5  N   UNL     1       7.820  11.004   4.591  0.00  0.00    -0.232 NA
ATOM     15  C   UNL     1       8.650   8.676   5.748  0.00  0.00    +0.050 A 
ATOM     16  C   UNL     1       7.780   8.599   4.680  0.00  0.00    +0.052 A 
ATOM     18  C   UNL     1       7.395   9.807   4.135  0.00  0.00    +0.075 A 
ATOM     19  C   UNL     1       8.664  10.946   5.637  0.00  0.00    +0.127 A 
ATOM     24  C   UNL     1       9.155  12.250   6.170  0.00  0.00    +0.088 C 
BRANCH  18  21
ATOM     21  C   UNL     1       6.487   9.864   3.014  0.00  0.00    +0.001 A 
ATOM     27  C   UNL     1       5.171  10.284   3.203  0.00  0.00    +0.012 A 
ATOM     28  C   UNL     1       6.927   9.501   1.741  0.00  0.00    +0.012 A 
ATOM     29  C   UNL     1       4.294  10.341   2.121  0.00  0.00    +0.024 A 
ATOM     30  C   UNL     1       6.050   9.556   0.658  0.00  0.00    +0.024 A 
ATOM     31  C   UNL     1       4.733   9.976   0.847  0.00  0.00    +0.029 A 
BRANCH  31   6
ATOM      6  N   UNL     1       3.847  10.032  -0.248  0.00  0.00    -0.336 N 
ATOM     32  C   UNL     1       2.441  10.319  -0.040  0.00  0.00    +0.129 C 
ATOM     33  C   UNL     1       4.331   9.811  -1.597  0.00  0.00    +0.129 C 
ENDBRANCH  31   6
ENDBRANCH  18  21
ENDBRANCH   8  15
BRANCH   9  14
ATOM     14  C   UNL     1      10.198   5.097   3.394  0.00  0.00    +0.123 C 
BRANCH  14   3
ATOM      1  O   UNL     1      10.205   4.162   0.676  0.00  0.00    -0.276 OA
ATOM      3  N   UNL     1      11.346   4.780   2.600  0.00  0.00    -0.314 N 
ATOM     17  C   UNL     1      11.261   4.330   1.283  0.00  0.00    +0.216 C 
ATOM     34  H   UNL     1      12.257   4.890   3.033  0.00  0.00    +0.149 HD
BRANCH  17  20
ATOM     20  C   UNL     1      12.632   4.044   0.660  0.00  0.00    +0.074 C 
BRANCH  20  22
ATOM     22  C   UNL     1      12.516   3.335  -0.701  0.00  0.00    +0.009 C 
ATOM     25  C   UNL     1      13.159   4.133  -1.830  0.00  0.00    +0.004 C 
ENDBRANCH  20  22
BRANCH  20  23
ATOM     23  C   UNL     1      13.511   3.253   1.650  0.00  0.00    +0.009 C 
ATOM     26  C   UNL     1      15.000   3.567   1.572  0.00  0.00    +0.004 C 
ENDBRANCH  20  23
ENDBRANCH  17  20
ENDBRANCH  14   3
ENDBRANCH   9  14
TORSDOF 8
ENDMDL
MODEL 6
REMARK VINA RESULT:      -6.7     15.340     18.600
REMARK  Name = 26742472
REMARK  13 active torsions:
REMARK  status: ('A' for Active; 'I' for Inactive)
REMARK    1  A    between atoms: N_3  and  C_14
REMARK    2  A    between atoms: N_6  and  C_31
REMARK    3  A    between atoms: N_6  and  C_32
REMARK    4  A    between atoms: N_6  and  C_33
REMARK    5  A    between atoms: C_8  and  C_15
REMARK    6  A    between atoms: C_9  and  C_14
REMARK    7  A    between atoms: C_17  and  C_20
REMARK    8  A    between atoms: C_18  and  C_21
REMARK    9  A    between atoms: C_19  and  C_24
REMARK   10  A    between atoms: C_20  and  C_22
REMARK   11  A    between atoms: C_20  and  C_23
REMARK   12  A    between atoms: C_22  and  C_25
REMARK   13  A    between atoms: C_23  and  C_26
REMARK                            x       y       z     vdW  Elec       q    Type
REMARK                         _______ _______ _______ _____ _____    ______ ____
ROOT
ATOM      2  N   UNL     1      11.436  11.491   6.962  0.00  0.00    -0.297 NA
ATOM      7  C   UNL     1       9.525  10.084   8.035  0.00  0.00    +0.002 C 
ATOM      8  C   UNL     1      10.810   9.224   7.876  0.00  0.00    +0.055 C 
ATOM      9  C   UNL     1      10.192  11.627   6.160  0.00  0.00    +0.074 C 
ATOM     10  C   UNL     1       9.111  10.643   6.658  0.00  0.00    +0.024 C 
ATOM     11  C   UNL     1       9.903  11.291   8.920  0.00  0.00    +0.019 C 
ATOM     12  C   UNL     1      11.829  10.062   7.053  0.00  0.00    +0.094 C 
ATOM     13  C   UNL     1      11.148  11.979   8.333  0.00  0.00    +0.085 C 
ENDROOT
BRANCH   8  15
ATOM      4  N   UNL     1      10.132   6.894   8.183  0.00  0.00    -0.237 NA
ATOM      5  N   UNL     1      10.381   5.245   6.443  0.00  0.00    -0.232 NA
ATOM     15  C   UNL     1      10.664   7.806   7.342  0.00  0.00    +0.050 A 
ATOM     16  C   UNL     1      11.072   7.518   6.056  0.00  0.00    +0.052 A 
ATOM     18  C   UNL     1      10.905   6.208   5.655  0.00  0.00    +0.075 A 
ATOM     19  C   UNL     1      10.022   5.651   7.675  0.00  0.00    +0.127 A 
ATOM     24  C   UNL     1       9.440   4.614   8.575  0.00  0.00    +0.088 C 
BRANCH  18  21
ATOM     21  C   UNL     1      11.293   5.778   4.334  0.00  0.00    +0.001 A 
ATOM     27  C   UNL     1      12.366   6.390   3.687  0.00  0.00    +0.012 A 
ATOM     28  C   UNL     1      10.597   4.746   3.704  0.00  0.00    +0.012 A 
ATOM     29  C   UNL     1      12.742   5.974   2.411  0.00  0.00    +0.024 A 
ATOM     30  C   UNL     1      10.972   4.329   2.427  0.00  0.00    +0.024 A 
ATOM     31  C   UNL     1      12.045   4.943   1.780  0.00  0.00    +0.029 A 
BRANCH  31   6
ATOM      6  N   UNL     1      12.424   4.521   0.489  0.00  0.00    -0.336 N 
ATOM     32  C   UNL     1      13.801   4.641   0.053  0.00  0.00    +0.129 C 
ATOM     33  C   UNL     1      11.443   3.955  -0.416  0.00  0.00    +0.129 C 
ENDBRANCH  31   6
ENDBRANCH  18  21
ENDBRANCH   8  15
BRANCH   9  14
ATOM     14  C   UNL     1      10.449  11.480   4.658  0.00  0.00    +0.123 C 
BRANCH  14   3
ATOM      1  O   UNL     1      11.401   9.604   2.701  0.00  0.00    -0.276 OA
ATOM      3  N   UNL     1       9.733  10.362   4.125  0.00  0.00    -0.314 N 
ATOM     17  C   UNL     1      10.271   9.496   3.173  0.00  0.00    +0.216 C 
ATOM     34  H   UNL     1       8.789  10.207   4.464  0.00  0.00    +0.149 HD
BRANCH  17  20
ATOM     20  C   UNL     1       9.297   8.390   2.753  0.00  0.00    +0.074 C 
BRANCH  20  22
ATOM     22  C   UNL     1       8.978   8.437   1.249  0.00  0.00    +0.009 C 
ATOM     25  C   UNL     1       9.767   7.403   0.454  0.00  0.00    +0.004 C 
ENDBRANCH  20  22
BRANCH  20  23
ATOM     23  C   UNL     1       8.021   8.450   3.617  0.00  0.00    +0.009 C 
ATOM     26  C   UNL     1       7.919   7.363   4.680  0.00  0.00    +0.004 C 
ENDBRANCH  20  23
ENDBRANCH  17  20
ENDBRANCH  14   3
ENDBRANCH   9  14
TORSDOF 8
ENDMDL
MODEL 7
REMARK VINA RESULT:      -6.6     26.953     30.411
REMARK  Name = 26742472
REMARK  13 active torsions:
REMARK  status: ('A' for Active; 'I' for Inactive)
REMARK    1  A    between atoms: N_3  and  C_14
REMARK    2  A    between atoms: N_6  and  C_31
REMARK    3  A    between atoms: N_6  and  C_32
REMARK    4  A    between atoms: N_6  and  C_33
REMARK    5  A    between atoms: C_8  and  C_15
REMARK    6  A    between atoms: C_9  and  C_14
REMARK    7  A    between atoms: C_17  and  C_20
REMARK    8  A    between atoms: C_18  and  C_21
REMARK    9  A    between atoms: C_19  and  C_24
REMARK   10  A    between atoms: C_20  and  C_22
REMARK   11  A    between atoms: C_20  and  C_23
REMARK   12  A    between atoms: C_22  and  C_25
REMARK   13  A    between atoms: C_23  and  C_26
REMARK                            x       y       z     vdW  Elec       q    Type
REMARK                         _______ _______ _______ _____ _____    ______ ____
ROOT
ATOM      2  N   UNL     1      -7.619 -10.423  18.139  0.00  0.00    -0.297 NA
ATOM      7  C   UNL     1      -5.573 -12.034  18.102  0.00  0.00    +0.002 C 
ATOM      8  C   UNL     1      -5.185 -10.650  17.512  0.00  0.00    +0.055 C 
ATOM      9  C   UNL     1      -8.005 -11.722  17.528  0.00  0.00    +0.074 C 
ATOM     10  C   UNL     1      -6.763 -12.613  17.308  0.00  0.00    +0.024 C 
ATOM     11  C   UNL     1      -6.068 -11.782  19.543  0.00  0.00    +0.019 C 
ATOM     12  C   UNL     1      -6.494  -9.820  17.381  0.00  0.00    +0.094 C 
ATOM     13  C   UNL     1      -7.153 -10.692  19.521  0.00  0.00    +0.085 C 
ENDROOT
BRANCH   8  15
ATOM      4  N   UNL     1      -3.025 -10.813  16.377  0.00  0.00    -0.237 NA
ATOM      5  N   UNL     1      -2.807 -10.573  13.989  0.00  0.00    -0.232 NA
ATOM     15  C   UNL     1      -4.352 -10.620  16.238  0.00  0.00    +0.050 A 
ATOM     16  C   UNL     1      -4.973 -10.400  15.025  0.00  0.00    +0.052 A 
ATOM     18  C   UNL     1      -4.143 -10.387  13.923  0.00  0.00    +0.075 A 
ATOM     19  C   UNL     1      -2.322 -10.777  15.228  0.00  0.00    +0.127 A 
ATOM     24  C   UNL     1      -0.850 -10.985  15.342  0.00  0.00    +0.088 C 
BRANCH  18  21
ATOM     21  C   UNL     1      -4.666 -10.166  12.597  0.00  0.00    +0.001 A 
ATOM     27  C   UNL     1      -3.795 -10.023  11.517  0.00  0.00    +0.012 A 
ATOM     28  C   UNL     1      -6.045 -10.099  12.393  0.00  0.00    +0.012 A 
ATOM     29  C   UNL     1      -4.300  -9.810  10.236  0.00  0.00    +0.024 A 
ATOM     30  C   UNL     1      -6.551  -9.886  11.112  0.00  0.00    +0.024 A 
ATOM     31  C   UNL     1      -5.679  -9.742  10.032  0.00  0.00    +0.029 A 
BRANCH  31   6
ATOM      6  N   UNL     1      -6.191  -9.526   8.736  0.00  0.00    -0.336 N 
ATOM     32  C   UNL     1      -5.591 -10.182   7.592  0.00  0.00    +0.129 C 
ATOM     33  C   UNL     1      -7.330  -8.652   8.532  0.00  0.00    +0.129 C 
ENDBRANCH  31   6
ENDBRANCH  18  21
ENDBRANCH   8  15
BRANCH   9  14
ATOM     14  C   UNL     1      -8.813 -11.543  16.241  0.00  0.00    +0.123 C 
BRANCH  14   3
ATOM      1  O   UNL     1      -9.106  -9.126  14.714  0.00  0.00    -0.276 OA
ATOM      3  N   UNL     1      -9.823 -10.543  16.406  0.00  0.00    -0.314 N 
ATOM     17  C   UNL     1      -9.894  -9.394  15.619  0.00  0.00    +0.216 C 
ATOM     34  H   UNL     1     -10.511 -10.691  17.137  0.00  0.00    +0.149 HD
BRANCH  17  20
ATOM     20  C   UNL     1     -11.057  -8.474  16.007  0.00  0.00    +0.074 C 
BRANCH  20  22
ATOM     22  C   UNL     1     -10.571  -7.098  16.497  0.00  0.00    +0.009 C 
ATOM     25  C   UNL     1     -11.415  -5.954  15.947  0.00  0.00    +0.004 C 
ENDBRANCH  20  22
BRANCH  20  23
ATOM     23  C   UNL     1     -11.961  -9.170  17.045  0.00  0.00    +0.009 C 
ATOM     26  C   UNL     1     -13.453  -8.928  16.855  0.00  0.00    +0.004 C 
ENDBRANCH  20  23
ENDBRANCH  17  20
ENDBRANCH  14   3
ENDBRANCH   9  14
TORSDOF 8
ENDMDL
MODEL 8
REMARK VINA RESULT:      -6.6     29.962     33.397
REMARK  Name = 26742472
REMARK  13 active torsions:
REMARK  status: ('A' for Active; 'I' for Inactive)
REMARK    1  A    between atoms: N_3  and  C_14
REMARK    2  A    between atoms: N_6  and  C_31
REMARK    3  A    between atoms: N_6  and  C_32
REMARK    4  A    between atoms: N_6  and  C_33
REMARK    5  A    between atoms: C_8  and  C_15
REMARK    6  A    between atoms: C_9  and  C_14
REMARK    7  A    between atoms: C_17  and  C_20
REMARK    8  A    between atoms: C_18  and  C_21
REMARK    9  A    between atoms: C_19  and  C_24
REMARK   10  A    between atoms: C_20  and  C_22
REMARK   11  A    between atoms: C_20  and  C_23
REMARK   12  A    between atoms: C_22  and  C_25
REMARK   13  A    between atoms: C_23  and  C_26
REMARK                            x       y       z     vdW  Elec       q    Type
REMARK                         _______ _______ _______ _____ _____    ______ ____
ROOT
ATOM      2  N   UNL     1      -5.601 -11.401  17.149  0.00  0.00    -0.297 NA
ATOM      7  C   UNL     1      -6.378 -11.739  19.612  0.00  0.00    +0.002 C 
ATOM      8  C   UNL     1      -7.021 -12.810  18.687  0.00  0.00    +0.055 C 
ATOM      9  C   UNL     1      -6.086 -10.113  17.710  0.00  0.00    +0.074 C 
ATOM     10  C   UNL     1      -6.740 -10.331  19.092  0.00  0.00    +0.024 C 
ATOM     11  C   UNL     1      -4.847 -11.893  19.475  0.00  0.00    +0.019 C 
ATOM     12  C   UNL     1      -6.676 -12.423  17.221  0.00  0.00    +0.094 C 
ATOM     13  C   UNL     1      -4.467 -11.863  17.985  0.00  0.00    +0.085 C 
ENDROOT
BRANCH   8  15
ATOM      4  N   UNL     1      -9.258 -13.131  17.754  0.00  0.00    -0.237 NA
ATOM      5  N   UNL     1     -11.160 -13.670  19.133  0.00  0.00    -0.232 NA
ATOM     15  C   UNL     1      -8.500 -13.121  18.869  0.00  0.00    +0.050 A 
ATOM     16  C   UNL     1      -8.991 -13.372  20.134  0.00  0.00    +0.052 A 
ATOM     18  C   UNL     1     -10.342 -13.643  20.207  0.00  0.00    +0.075 A 
ATOM     19  C   UNL     1     -10.561 -13.409  17.956  0.00  0.00    +0.127 A 
ATOM     24  C   UNL     1     -11.433 -13.428  16.747  0.00  0.00    +0.088 C 
BRANCH  18  21
ATOM     21  C   UNL     1     -10.980 -13.921  21.471  0.00  0.00    +0.001 A 
ATOM     27  C   UNL     1     -10.311 -14.667  22.441  0.00  0.00    +0.012 A 
ATOM     28  C   UNL     1     -12.265 -13.441  21.725  0.00  0.00    +0.012 A 
ATOM     29  C   UNL     1     -10.926 -14.934  23.664  0.00  0.00    +0.024 A 
ATOM     30  C   UNL     1     -12.881 -13.709  22.946  0.00  0.00    +0.024 A 
ATOM     31  C   UNL     1     -12.212 -14.456  23.917  0.00  0.00    +0.029 A 
BRANCH  31   6
ATOM      6  N   UNL     1     -12.835 -14.726  25.152  0.00  0.00    -0.336 N 
ATOM     32  C   UNL     1     -12.264 -15.697  26.065  0.00  0.00    +0.129 C 
ATOM     33  C   UNL     1     -14.051 -14.033  25.529  0.00  0.00    +0.129 C 
ENDBRANCH  31   6
ENDBRANCH  18  21
ENDBRANCH   8  15
BRANCH   9  14
ATOM     14  C   UNL     1      -7.017  -9.372  16.749  0.00  0.00    +0.123 C 
BRANCH  14   3
ATOM      1  O   UNL     1      -9.672 -10.253  16.088  0.00  0.00    -0.276 OA
ATOM      3  N   UNL     1      -8.233  -8.995  17.404  0.00  0.00    -0.314 N 
ATOM     17  C   UNL     1      -9.485  -9.471  17.019  0.00  0.00    +0.216 C 
ATOM     34  H   UNL     1      -8.161  -8.348  18.182  0.00  0.00    +0.149 HD
BRANCH  17  20
ATOM     20  C   UNL     1     -10.628  -8.903  17.869  0.00  0.00    +0.074 C 
BRANCH  20  22
ATOM     22  C   UNL     1     -11.334  -9.992  18.695  0.00  0.00    +0.009 C 
ATOM     25  C   UNL     1     -10.739 -10.141  20.091  0.00  0.00    +0.004 C 
ENDBRANCH  20  22
BRANCH  20  23
ATOM     23  C   UNL     1     -11.615  -8.123  16.978  0.00  0.00    +0.009 C 
ATOM     26  C   UNL     1     -11.126  -6.749  16.536  0.00  0.00    +0.004 C 
ENDBRANCH  20  23
ENDBRANCH  17  20
ENDBRANCH  14   3
ENDBRANCH   9  14
TORSDOF 8
ENDMDL
MODEL 9
REMARK VINA RESULT:      -6.6     28.337     31.780
REMARK  Name = 26742472
REMARK  13 active torsions:
REMARK  status: ('A' for Active; 'I' for Inactive)
REMARK    1  A    between atoms: N_3  and  C_14
REMARK    2  A    between atoms: N_6  and  C_31
REMARK    3  A    between atoms: N_6  and  C_32
REMARK    4  A    between atoms: N_6  and  C_33
REMARK    5  A    between atoms: C_8  and  C_15
REMARK    6  A    between atoms: C_9  and  C_14
REMARK    7  A    between atoms: C_17  and  C_20
REMARK    8  A    between atoms: C_18  and  C_21
REMARK    9  A    between atoms: C_19  and  C_24
REMARK   10  A    between atoms: C_20  and  C_22
REMARK   11  A    between atoms: C_20  and  C_23
REMARK   12  A    between atoms: C_22  and  C_25
REMARK   13  A    between atoms: C_23  and  C_26
REMARK                            x       y       z     vdW  Elec       q    Type
REMARK                         _______ _______ _______ _____ _____    ______ ____
ROOT
ATOM      2  N   UNL     1      -4.606  -9.559  11.565  0.00  0.00    -0.297 NA
ATOM      7  C   UNL     1      -5.229 -10.937   9.444  0.00  0.00    +0.002 C 
ATOM      8  C   UNL     1      -5.243  -9.416   9.127  0.00  0.00    +0.055 C 
ATOM      9  C   UNL     1      -5.669 -10.543  11.893  0.00  0.00    +0.074 C 
ATOM     10  C   UNL     1      -6.197 -11.224  10.611  0.00  0.00    +0.024 C 
ATOM     11  C   UNL     1      -3.806 -11.275   9.941  0.00  0.00    +0.019 C 
ATOM     12  C   UNL     1      -5.064  -8.660  10.475  0.00  0.00    +0.094 C 
ATOM     13  C   UNL     1      -3.425 -10.311  11.077  0.00  0.00    +0.085 C 
ENDROOT
BRANCH   8  15
ATOM      4  N   UNL     1      -6.469  -9.257   7.017  0.00  0.00    -0.237 NA
ATOM      5  N   UNL     1      -8.449  -7.904   6.782  0.00  0.00    -0.232 NA
ATOM     15  C   UNL     1      -6.400  -8.864   8.306  0.00  0.00    +0.050 A 
ATOM     16  C   UNL     1      -7.304  -8.005   8.896  0.00  0.00    +0.052 A 
ATOM     18  C   UNL     1      -8.319  -7.552   8.078  0.00  0.00    +0.075 A 
ATOM     19  C   UNL     1      -7.505  -8.746   6.323  0.00  0.00    +0.127 A 
ATOM     24  C   UNL     1      -7.615  -9.157   4.894  0.00  0.00    +0.088 C 
BRANCH  18  21
ATOM     21  C   UNL     1      -9.329  -6.648   8.573  0.00  0.00    +0.001 A 
ATOM     27  C   UNL     1     -10.463  -7.150   9.211  0.00  0.00    +0.012 A 
ATOM     28  C   UNL     1      -9.170  -5.271   8.418  0.00  0.00    +0.012 A 
ATOM     29  C   UNL     1     -11.439  -6.277   9.690  0.00  0.00    +0.024 A 
ATOM     30  C   UNL     1     -10.145  -4.397   8.897  0.00  0.00    +0.024 A 
ATOM     31  C   UNL     1     -11.280  -4.900   9.533  0.00  0.00    +0.029 A 
BRANCH  31   6
ATOM      6  N   UNL     1     -12.266  -4.016  10.017  0.00  0.00    -0.336 N 
ATOM     32  C   UNL     1     -13.334  -3.562   9.148  0.00  0.00    +0.129 C 
ATOM     33  C   UNL     1     -12.231  -3.556  11.392  0.00  0.00    +0.129 C 
ENDBRANCH  31   6
ENDBRANCH  18  21
ENDBRANCH   8  15
BRANCH   9  14
ATOM     14  C   UNL     1      -6.801  -9.926  12.717  0.00  0.00    +0.123 C 
BRANCH  14   3
ATOM      1  O   UNL     1      -6.734 -11.544  15.091  0.00  0.00    -0.276 OA
ATOM      3  N   UNL     1      -6.334  -9.530  14.011  0.00  0.00    -0.314 N 
ATOM     17  C   UNL     1      -6.336 -10.381  15.115  0.00  0.00    +0.216 C 
ATOM     34  H   UNL     1      -5.991  -8.580  14.112  0.00  0.00    +0.149 HD
BRANCH  17  20
ATOM     20  C   UNL     1      -5.801  -9.712  16.386  0.00  0.00    +0.074 C 
BRANCH  20  22
ATOM     22  C   UNL     1      -4.629 -10.493  17.006  0.00  0.00    +0.009 C 
ATOM     25  C   UNL     1      -3.461 -10.655  16.038  0.00  0.00    +0.004 C 
ENDBRANCH  20  22
BRANCH  20  23
ATOM     23  C   UNL     1      -6.948  -9.495  17.394  0.00  0.00    +0.009 C 
ATOM     26  C   UNL     1      -6.954 -10.463  18.571  0.00  0.00    +0.004 C 
ENDBRANCH  20  23
ENDBRANCH  17  20
ENDBRANCH  14   3
ENDBRANCH   9  14
TORSDOF 8
ENDMDL
MODEL 10
REMARK VINA RESULT:      -6.5     27.770     30.877
REMARK  Name = 26742472
REMARK  13 active torsions:
REMARK  status: ('A' for Active; 'I' for Inactive)
REMARK    1  A    between atoms: N_3  and  C_14
REMARK    2  A    between atoms: N_6  and  C_31
REMARK    3  A    between atoms: N_6  and  C_32
REMARK    4  A    between atoms: N_6  and  C_33
REMARK    5  A    between atoms: C_8  and  C_15
REMARK    6  A    between atoms: C_9  and  C_14
REMARK    7  A    between atoms: C_17  and  C_20
REMARK    8  A    between atoms: C_18  and  C_21
REMARK    9  A    between atoms: C_19  and  C_24
REMARK   10  A    between atoms: C_20  and  C_22
REMARK   11  A    between atoms: C_20  and  C_23
REMARK   12  A    between atoms: C_22  and  C_25
REMARK   13  A    between atoms: C_23  and  C_26
REMARK                            x       y       z     vdW  Elec       q    Type
REMARK                         _______ _______ _______ _____ _____    ______ ____
ROOT
ATOM      2  N   UNL     1     -11.366   8.477  16.650  0.00  0.00    -0.297 NA
ATOM      7  C   UNL     1     -11.579  10.718  17.959  0.00  0.00    +0.002 C 
ATOM      8  C   UNL     1     -11.286   9.545  18.934  0.00  0.00    +0.055 C 
ATOM      9  C   UNL     1     -12.610   9.184  16.247  0.00  0.00    +0.074 C 
ATOM     10  C   UNL     1     -12.860  10.407  17.156  0.00  0.00    +0.024 C 
ATOM     11  C   UNL     1     -10.411  10.762  16.950  0.00  0.00    +0.019 C 
ATOM     12  C   UNL     1     -11.374   8.227  18.113  0.00  0.00    +0.094 C 
ATOM     13  C   UNL     1     -10.219   9.363  16.339  0.00  0.00    +0.085 C 
ENDROOT
BRANCH   8  15
ATOM      4  N   UNL     1     -12.094  10.581  20.997  0.00  0.00    -0.237 NA
ATOM      5  N   UNL     1     -13.489   9.399  22.567  0.00  0.00    -0.232 NA
ATOM     15  C   UNL     1     -12.082   9.472  20.230  0.00  0.00    +0.050 A 
ATOM     16  C   UNL     1     -12.739   8.304  20.559  0.00  0.00    +0.052 A 
ATOM     18  C   UNL     1     -13.434   8.325  21.751  0.00  0.00    +0.075 A 
ATOM     19  C   UNL     1     -12.807  10.476  22.136  0.00  0.00    +0.127 A 
ATOM     24  C   UNL     1     -12.843  11.683  23.011  0.00  0.00    +0.088 C 
BRANCH  18  21
ATOM     21  C   UNL     1     -14.162   7.168  22.211  0.00  0.00    +0.001 A 
ATOM     27  C   UNL     1     -15.376   7.327  22.879  0.00  0.00    +0.012 A 
ATOM     28  C   UNL     1     -13.654   5.888  21.986  0.00  0.00    +0.012 A 
ATOM     29  C   UNL     1     -16.081   6.209  23.322  0.00  0.00    +0.024 A 
ATOM     30  C   UNL     1     -14.358   4.770  22.429  0.00  0.00    +0.024 A 
ATOM     31  C   UNL     1     -15.572   4.929  23.098  0.00  0.00    +0.029 A 
BRANCH  31   6
ATOM      6  N   UNL     1     -16.284   3.797  23.547  0.00  0.00    -0.336 N 
ATOM     32  C   UNL     1     -17.474   3.355  22.847  0.00  0.00    +0.129 C 
ATOM     33  C   UNL     1     -15.830   3.057  24.708  0.00  0.00    +0.129 C 
ENDBRANCH  31   6
ENDBRANCH  18  21
ENDBRANCH   8  15
BRANCH   9  14
ATOM     14  C   UNL     1     -13.822   8.251  16.201  0.00  0.00    +0.123 C 
BRANCH  14   3
ATOM      1  O   UNL     1     -16.434   7.170  16.717  0.00  0.00    -0.276 OA
ATOM      3  N   UNL     1     -14.520   8.257  17.450  0.00  0.00    -0.314 N 
ATOM     17  C   UNL     1     -15.791   7.708  17.616  0.00  0.00    +0.216 C 
ATOM     34  H   UNL     1     -14.054   8.688  18.242  0.00  0.00    +0.149 HD
BRANCH  17  20
ATOM     20  C   UNL     1     -16.325   7.858  19.045  0.00  0.00    +0.074 C 
BRANCH  20  22
ATOM     22  C   UNL     1     -17.355   6.771  19.397  0.00  0.00    +0.009 C 
ATOM     25  C   UNL     1     -16.704   5.423  19.686  0.00  0.00    +0.004 C 
ENDBRANCH  20  22
BRANCH  20  23
ATOM     23  C   UNL     1     -16.888   9.278  19.255  0.00  0.00    +0.009 C 
ATOM     26  C   UNL     1     -15.984  10.211  20.051  0.00  0.00    +0.004 C 
ENDBRANCH  20  23
ENDBRANCH  17  20
ENDBRANCH  14   3
ENDBRANCH   9  14
TORSDOF 8
ENDMDL
