MODEL 1
REMARK VINA RESULT:      -6.5      0.000      0.000
REMARK  Name = 25313098
REMARK  8 active torsions:
REMARK  status: ('A' for Active; 'I' for Inactive)
REMARK    1  A    between atoms: O_2  and  C_24
REMARK    2  A    between atoms: N_5  and  C_19
REMARK    3  A    between atoms: N_6  and  C_25
REMARK    4  A    between atoms: C_7  and  C_11
REMARK    5  A    between atoms: C_8  and  C_17
REMARK    6  A    between atoms: C_11  and  C_19
REMARK    7  A    between atoms: C_13  and  C_16
REMARK    8  A    between atoms: C_17  and  C_24
REMARK                            x       y       z     vdW  Elec       q    Type
REMARK                         _______ _______ _______ _____ _____    ______ ____
ROOT
ATOM      1  O   UNL     1      -1.742  -9.918  12.311  0.00  0.00    -0.275 OA
ATOM      4  N   UNL     1      -3.000 -11.243  13.739  0.00  0.00    -0.301 N 
ATOM      7  C   UNL     1      -4.818 -11.536  15.404  0.00  0.00    +0.011 C 
ATOM      8  C   UNL     1      -3.738 -11.599  16.516  0.00  0.00    +0.006 C 
ATOM      9  C   UNL     1      -4.216 -11.996  14.064  0.00  0.00    +0.111 C 
ATOM     10  C   UNL     1      -2.464 -10.839  16.110  0.00  0.00    +0.023 C 
ATOM     12  C   UNL     1      -1.947 -11.306  14.752  0.00  0.00    +0.108 C 
ATOM     16  C   UNL     1      -2.799 -10.521  12.553  0.00  0.00    +0.219 C 
ENDROOT
BRANCH  16  13
ATOM     13  C   UNL     1      -3.955 -10.502  11.540  0.00  0.00    +0.075 C 
ATOM     14  C   UNL     1      -5.016  -9.393  11.697  0.00  0.00    +0.013 C 
ATOM     15  C   UNL     1      -3.665  -9.922  10.141  0.00  0.00    +0.013 C 
ATOM     18  C   UNL     1      -5.106  -9.368  10.157  0.00  0.00    +0.001 C 
ENDBRANCH  16  13
BRANCH   7  11
ATOM     11  C   UNL     1      -5.472 -10.157  15.249  0.00  0.00    +0.020 C 
BRANCH  11  19
ATOM     19  C   UNL     1      -6.944 -10.294  14.888  0.00  0.00    +0.085 C 
BRANCH  19   5
ATOM      5  N   UNL     1      -7.768 -10.111  16.083  0.00  0.00    -0.299 NA
ATOM      6  N   UNL     1     -10.191 -10.029  17.592  0.00  0.00    -0.327 N 
ATOM     20  C   UNL     1      -8.482 -11.352  16.410  0.00  0.00    +0.103 C 
ATOM     21  C   UNL     1      -8.729  -9.019  15.885  0.00  0.00    +0.103 C 
ATOM     22  C   UNL     1      -9.303 -11.191  17.692  0.00  0.00    +0.120 C 
ATOM     23  C   UNL     1      -9.557  -8.781  17.149  0.00  0.00    +0.120 C 
BRANCH   6  25
ATOM     25  C   UNL     1     -11.311  -9.937  18.426  0.00  0.00    +0.030 A 
ATOM     26  C   UNL     1     -11.168 -10.093  19.805  0.00  0.00    +0.023 A 
ATOM     27  C   UNL     1     -12.570  -9.688  17.880  0.00  0.00    +0.023 A 
ATOM     28  C   UNL     1     -12.284  -9.998  20.637  0.00  0.00    +0.002 A 
ATOM     29  C   UNL     1     -13.686  -9.592  18.711  0.00  0.00    +0.002 A 
ATOM     30  C   UNL     1     -13.543  -9.747  20.090  0.00  0.00    +0.000 A 
ENDBRANCH   6  25
ENDBRANCH  19   5
ENDBRANCH  11  19
ENDBRANCH   7  11
BRANCH   8  17
ATOM     17  C   UNL     1      -4.245 -11.115  17.874  0.00  0.00    +0.124 C 
BRANCH  17  24
ATOM      3  O   UNL     1      -3.485 -12.116  19.962  0.00  0.00    -0.251 OA
ATOM     24  C   UNL     1      -4.127 -12.184  18.924  0.00  0.00    +0.305 C 
BRANCH  24   2
ATOM      2  O   UNL     1      -4.852 -13.270  18.556  0.00  0.00    -0.481 OA
ATOM     31  H   UNL     1      -5.489 -13.539  19.252  0.00  0.00    +0.295 HD
ENDBRANCH  24   2
ENDBRANCH  17  24
ENDBRANCH   8  17
TORSDOF 8
ENDMDL
MODEL 2
REMARK VINA RESULT:      -6.3     19.889     22.069
REMARK  Name = 25313098
REMARK  8 active torsions:
REMARK  status: ('A' for Active; 'I' for Inactive)
REMARK    1  A    between atoms: O_2  and  C_24
REMARK    2  A    between atoms: N_5  and  C_19
REMARK    3  A    between atoms: N_6  and  C_25
REMARK    4  A    between atoms: C_7  and  C_11
REMARK    5  A    between atoms: C_8  and  C_17
REMARK    6  A    between atoms: C_11  and  C_19
REMARK    7  A    between atoms: C_13  and  C_16
REMARK    8  A    between atoms: C_17  and  C_24
REMARK                            x       y       z     vdW  Elec       q    Type
REMARK                         _______ _______ _______ _____ _____    ______ ____
ROOT
ATOM      1  O   UNL     1      -9.717   9.387  17.537  0.00  0.00    -0.275 OA
ATOM      4  N   UNL     1     -11.761   8.575  18.269  0.00  0.00    -0.301 N 
ATOM      7  C   UNL     1     -13.573   8.441  19.961  0.00  0.00    +0.011 C 
ATOM      8  C   UNL     1     -13.024   7.053  20.383  0.00  0.00    +0.006 C 
ATOM      9  C   UNL     1     -13.203   8.725  18.494  0.00  0.00    +0.111 C 
ATOM     10  C   UNL     1     -11.521   6.924  20.082  0.00  0.00    +0.023 C 
ATOM     12  C   UNL     1     -11.215   7.267  18.627  0.00  0.00    +0.108 C 
ATOM     16  C   UNL     1     -10.928   9.568  17.731  0.00  0.00    +0.219 C 
ENDROOT
BRANCH  16  13
ATOM     13  C   UNL     1     -11.580  10.916  17.384  0.00  0.00    +0.075 C 
ATOM     14  C   UNL     1     -11.216  12.128  18.267  0.00  0.00    +0.013 C 
ATOM     15  C   UNL     1     -10.993  11.703  16.194  0.00  0.00    +0.013 C 
ATOM     18  C   UNL     1     -11.307  12.988  16.990  0.00  0.00    +0.001 C 
ENDBRANCH  16  13
BRANCH   7  11
ATOM     11  C   UNL     1     -13.109   9.594  20.861  0.00  0.00    +0.020 C 
BRANCH  11  19
ATOM     19  C   UNL     1     -14.300  10.383  21.386  0.00  0.00    +0.085 C 
BRANCH  19   5
ATOM      5  N   UNL     1     -14.061  10.776  22.775  0.00  0.00    -0.299 NA
ATOM      6  N   UNL     1     -13.152  10.436  25.461  0.00  0.00    -0.327 N 
ATOM     20  C   UNL     1     -12.624  10.752  23.076  0.00  0.00    +0.103 C 
ATOM     21  C   UNL     1     -14.779   9.883  23.694  0.00  0.00    +0.103 C 
ATOM     22  C   UNL     1     -12.356  11.216  24.510  0.00  0.00    +0.120 C 
ATOM     23  C   UNL     1     -14.582  10.319  25.147  0.00  0.00    +0.120 C 
BRANCH   6  25
ATOM     25  C   UNL     1     -12.768  10.377  26.806  0.00  0.00    +0.030 A 
ATOM     26  C   UNL     1     -13.683  10.703  27.807  0.00  0.00    +0.023 A 
ATOM     27  C   UNL     1     -11.471   9.992  27.144  0.00  0.00    +0.023 A 
ATOM     28  C   UNL     1     -13.300  10.642  29.147  0.00  0.00    +0.002 A 
ATOM     29  C   UNL     1     -11.089   9.929  28.485  0.00  0.00    +0.002 A 
ATOM     30  C   UNL     1     -12.003  10.255  29.486  0.00  0.00    +0.000 A 
ENDBRANCH   6  25
ENDBRANCH  19   5
ENDBRANCH  11  19
ENDBRANCH   7  11
BRANCH   8  17
ATOM     17  C   UNL     1     -13.312   6.713  21.845  0.00  0.00    +0.124 C 
BRANCH  17  24
ATOM      3  O   UNL     1     -14.548   4.618  21.687  0.00  0.00    -0.251 OA
ATOM     24  C   UNL     1     -13.556   5.242  22.035  0.00  0.00    +0.305 C 
BRANCH  24   2
ATOM      2  O   UNL     1     -12.495   4.679  22.666  0.00  0.00    -0.481 OA
ATOM     31  H   UNL     1     -12.594   3.707  22.754  0.00  0.00    +0.295 HD
ENDBRANCH  24   2
ENDBRANCH  17  24
ENDBRANCH   8  17
TORSDOF 8
ENDMDL
MODEL 3
REMARK VINA RESULT:      -6.3     23.903     28.095
REMARK  Name = 25313098
REMARK  8 active torsions:
REMARK  status: ('A' for Active; 'I' for Inactive)
REMARK    1  A    between atoms: O_2  and  C_24
REMARK    2  A    between atoms: N_5  and  C_19
REMARK    3  A    between atoms: N_6  and  C_25
REMARK    4  A    between atoms: C_7  and  C_11
REMARK    5  A    between atoms: C_8  and  C_17
REMARK    6  A    between atoms: C_11  and  C_19
REMARK    7  A    between atoms: C_13  and  C_16
REMARK    8  A    between atoms: C_17  and  C_24
REMARK                            x       y       z     vdW  Elec       q    Type
REMARK                         _______ _______ _______ _____ _____    ______ ____
ROOT
ATOM      1  O   UNL     1       8.593  10.323   5.551  0.00  0.00    -0.275 OA
ATOM      4  N   UNL     1      10.038   8.950   6.735  0.00  0.00    -0.301 N 
ATOM      7  C   UNL     1      11.177   6.772   7.086  0.00  0.00    +0.011 C 
ATOM      8  C   UNL     1      10.173   6.474   8.230  0.00  0.00    +0.006 C 
ATOM      9  C   UNL     1      11.337   8.293   6.914  0.00  0.00    +0.111 C 
ATOM     10  C   UNL     1       8.845   7.223   8.026  0.00  0.00    +0.023 C 
ATOM     12  C   UNL     1       9.077   8.716   7.812  0.00  0.00    +0.108 C 
ATOM     16  C   UNL     1       9.698   9.769   5.648  0.00  0.00    +0.219 C 
ENDROOT
BRANCH  16  13
ATOM     13  C   UNL     1      10.764   9.962   4.557  0.00  0.00    +0.075 C 
ATOM     14  C   UNL     1      10.367   9.608   3.109  0.00  0.00    +0.013 C 
ATOM     15  C   UNL     1      11.016  11.399   4.056  0.00  0.00    +0.013 C 
ATOM     18  C   UNL     1      11.255  10.787   2.659  0.00  0.00    +0.001 C 
ENDBRANCH  16  13
BRANCH   7  11
ATOM     11  C   UNL     1      10.806   6.120   5.747  0.00  0.00    +0.020 C 
BRANCH  11  19
ATOM     19  C   UNL     1      11.692   6.644   4.626  0.00  0.00    +0.085 C 
BRANCH  19   5
ATOM      5  N   UNL     1      11.744   5.669   3.537  0.00  0.00    -0.299 NA
ATOM      6  N   UNL     1      11.532   4.761   0.837  0.00  0.00    -0.327 N 
ATOM     20  C   UNL     1      12.747   6.063   2.540  0.00  0.00    +0.103 C 
ATOM     21  C   UNL     1      10.428   5.540   2.899  0.00  0.00    +0.103 C 
ATOM     22  C   UNL     1      12.851   5.021   1.424  0.00  0.00    +0.120 C 
ATOM     23  C   UNL     1      10.455   4.480   1.795  0.00  0.00    +0.120 C 
BRANCH   6  25
ATOM     25  C   UNL     1      11.439   4.198  -0.440  0.00  0.00    +0.030 A 
ATOM     26  C   UNL     1      10.507   4.691  -1.353  0.00  0.00    +0.023 A 
ATOM     27  C   UNL     1      12.280   3.146  -0.802  0.00  0.00    +0.023 A 
ATOM     28  C   UNL     1      10.416   4.131  -2.628  0.00  0.00    +0.002 A 
ATOM     29  C   UNL     1      12.190   2.586  -2.077  0.00  0.00    +0.002 A 
ATOM     30  C   UNL     1      11.258   3.079  -2.990  0.00  0.00    +0.000 A 
ENDBRANCH   6  25
ENDBRANCH  19   5
ENDBRANCH  11  19
ENDBRANCH   7  11
BRANCH   8  17
ATOM     17  C   UNL     1       9.924   4.981   8.437  0.00  0.00    +0.124 C 
BRANCH  17  24
ATOM      3  O   UNL     1       8.429   4.264  10.223  0.00  0.00    -0.251 OA
ATOM     24  C   UNL     1       9.518   4.676   9.852  0.00  0.00    +0.305 C 
BRANCH  24   2
ATOM      2  O   UNL     1      10.555   4.926  10.690  0.00  0.00    -0.481 OA
ATOM     31  H   UNL     1      11.381   4.487  10.392  0.00  0.00    +0.295 HD
ENDBRANCH  24   2
ENDBRANCH  17  24
ENDBRANCH   8  17
TORSDOF 8
ENDMDL
MODEL 4
REMARK VINA RESULT:      -6.2      4.688      7.527
REMARK  Name = 25313098
REMARK  8 active torsions:
REMARK  status: ('A' for Active; 'I' for Inactive)
REMARK    1  A    between atoms: O_2  and  C_24
REMARK    2  A    between atoms: N_5  and  C_19
REMARK    3  A    between atoms: N_6  and  C_25
REMARK    4  A    between atoms: C_7  and  C_11
REMARK    5  A    between atoms: C_8  and  C_17
REMARK    6  A    between atoms: C_11  and  C_19
REMARK    7  A    between atoms: C_13  and  C_16
REMARK    8  A    between atoms: C_17  and  C_24
REMARK                            x       y       z     vdW  Elec       q    Type
REMARK                         _______ _______ _______ _____ _____    ______ ____
ROOT
ATOM      1  O   UNL     1      -6.498 -11.338  20.255  0.00  0.00    -0.275 OA
ATOM      4  N   UNL     1      -8.406 -11.563  18.958  0.00  0.00    -0.301 N 
ATOM      7  C   UNL     1     -10.192 -10.604  17.525  0.00  0.00    +0.011 C 
ATOM      8  C   UNL     1     -11.163 -10.709  18.730  0.00  0.00    +0.006 C 
ATOM      9  C   UNL     1      -9.079 -11.658  17.658  0.00  0.00    +0.111 C 
ATOM     10  C   UNL     1     -10.410 -10.655  20.069  0.00  0.00    +0.023 C 
ATOM     12  C   UNL     1      -9.288 -11.689  20.117  0.00  0.00    +0.108 C 
ATOM     16  C   UNL     1      -7.025 -11.389  19.134  0.00  0.00    +0.219 C 
ENDROOT
BRANCH  16  13
ATOM     13  C   UNL     1      -6.168 -11.262  17.864  0.00  0.00    +0.075 C 
ATOM     14  C   UNL     1      -5.986  -9.849  17.271  0.00  0.00    +0.013 C 
ATOM     15  C   UNL     1      -4.636 -11.305  18.034  0.00  0.00    +0.013 C 
ATOM     18  C   UNL     1      -4.557 -10.280  16.882  0.00  0.00    +0.001 C 
ENDBRANCH  16  13
BRANCH   7  11
ATOM     11  C   UNL     1      -9.585  -9.207  17.334  0.00  0.00    +0.020 C 
BRANCH  11  19
ATOM     19  C   UNL     1      -9.486  -8.857  15.856  0.00  0.00    +0.085 C 
BRANCH  19   5
ATOM      5  N   UNL     1     -10.653  -8.072  15.453  0.00  0.00    -0.299 NA
ATOM      6  N   UNL     1     -12.082  -6.113  13.944  0.00  0.00    -0.327 N 
ATOM     20  C   UNL     1     -10.968  -8.308  14.038  0.00  0.00    +0.103 C 
ATOM     21  C   UNL     1     -10.414  -6.641  15.680  0.00  0.00    +0.103 C 
ATOM     22  C   UNL     1     -12.221  -7.536  13.619  0.00  0.00    +0.120 C 
ATOM     23  C   UNL     1     -11.649  -5.814  15.315  0.00  0.00    +0.120 C 
BRANCH   6  25
ATOM     25  C   UNL     1     -12.879  -5.169  13.287  0.00  0.00    +0.030 A 
ATOM     26  C   UNL     1     -14.243  -5.092  13.567  0.00  0.00    +0.023 A 
ATOM     27  C   UNL     1     -12.309  -4.305  12.352  0.00  0.00    +0.023 A 
ATOM     28  C   UNL     1     -15.037  -4.149  12.914  0.00  0.00    +0.002 A 
ATOM     29  C   UNL     1     -13.102  -3.361  11.699  0.00  0.00    +0.002 A 
ATOM     30  C   UNL     1     -14.467  -3.283  11.980  0.00  0.00    +0.000 A 
ENDBRANCH   6  25
ENDBRANCH  19   5
ENDBRANCH  11  19
ENDBRANCH   7  11
BRANCH   8  17
ATOM     17  C   UNL     1     -12.278  -9.663  18.696  0.00  0.00    +0.124 C 
BRANCH  17  24
ATOM      3  O   UNL     1     -13.769 -10.897  17.215  0.00  0.00    -0.251 OA
ATOM     24  C   UNL     1     -13.192  -9.864  17.519  0.00  0.00    +0.305 C 
BRANCH  24   2
ATOM      2  O   UNL     1     -13.296  -8.707  16.817  0.00  0.00    -0.481 OA
ATOM     31  H   UNL     1     -12.488  -8.525  16.291  0.00  0.00    +0.295 HD
ENDBRANCH  24   2
ENDBRANCH  17  24
ENDBRANCH   8  17
TORSDOF 8
ENDMDL
MODEL 5
REMARK VINA RESULT:      -6.2     24.662     28.208
REMARK  Name = 25313098
REMARK  8 active torsions:
REMARK  status: ('A' for Active; 'I' for Inactive)
REMARK    1  A    between atoms: O_2  and  C_24
REMARK    2  A    between atoms: N_5  and  C_19
REMARK    3  A    between atoms: N_6  and  C_25
REMARK    4  A    between atoms: C_7  and  C_11
REMARK    5  A    between atoms: C_8  and  C_17
REMARK    6  A    between atoms: C_11  and  C_19
REMARK    7  A    between atoms: C_13  and  C_16
REMARK    8  A    between atoms: C_17  and  C_24
REMARK                            x       y       z     vdW  Elec       q    Type
REMARK                         _______ _______ _______ _____ _____    ______ ____
ROOT
ATOM      1  O   UNL     1      12.533   2.365  -1.448  0.00  0.00    -0.275 OA
ATOM      4  N   UNL     1      11.872   4.540  -1.906  0.00  0.00    -0.301 N 
ATOM      7  C   UNL     1      10.452   6.526  -1.457  0.00  0.00    +0.011 C 
ATOM      8  C   UNL     1       9.599   6.150  -2.697  0.00  0.00    +0.006 C 
ATOM      9  C   UNL     1      11.881   5.979  -1.619  0.00  0.00    +0.111 C 
ATOM     10  C   UNL     1       9.660   4.641  -2.988  0.00  0.00    +0.023 C 
ATOM     12  C   UNL     1      11.103   4.153  -3.087  0.00  0.00    +0.108 C 
ATOM     16  C   UNL     1      12.551   3.570  -1.153  0.00  0.00    +0.219 C 
ENDROOT
BRANCH  16  13
ATOM     13  C   UNL     1      13.334   4.059   0.076  0.00  0.00    +0.075 C 
ATOM     14  C   UNL     1      13.284   3.180   1.343  0.00  0.00    +0.013 C 
ATOM     15  C   UNL     1      14.861   3.843   0.078  0.00  0.00    +0.013 C 
ATOM     18  C   UNL     1      14.747   3.601   1.598  0.00  0.00    +0.001 C 
ENDBRANCH  16  13
BRANCH   7  11
ATOM     11  C   UNL     1       9.851   6.061  -0.124  0.00  0.00    +0.020 C 
BRANCH  11  19
ATOM     19  C   UNL     1      10.625   6.642   1.051  0.00  0.00    +0.085 C 
BRANCH  19   5
ATOM      5  N   UNL     1      10.050   6.164   2.309  0.00  0.00    -0.299 NA
ATOM      6  N   UNL     1       9.833   5.905   5.145  0.00  0.00    -0.327 N 
ATOM     20  C   UNL     1       9.586   7.293   3.125  0.00  0.00    +0.103 C 
ATOM     21  C   UNL     1      11.036   5.376   3.059  0.00  0.00    +0.103 C 
ATOM     22  C   UNL     1       8.930   6.804   4.418  0.00  0.00    +0.120 C 
ATOM     23  C   UNL     1      10.428   4.823   4.350  0.00  0.00    +0.120 C 
BRANCH   6  25
ATOM     25  C   UNL     1       9.642   5.687   6.514  0.00  0.00    +0.030 A 
ATOM     26  C   UNL     1       9.972   4.453   7.076  0.00  0.00    +0.023 A 
ATOM     27  C   UNL     1       9.123   6.702   7.317  0.00  0.00    +0.023 A 
ATOM     28  C   UNL     1       9.783   4.237   8.441  0.00  0.00    +0.002 A 
ATOM     29  C   UNL     1       8.936   6.486   8.682  0.00  0.00    +0.002 A 
ATOM     30  C   UNL     1       9.266   5.253   9.244  0.00  0.00    +0.000 A 
ENDBRANCH   6  25
ENDBRANCH  19   5
ENDBRANCH  11  19
ENDBRANCH   7  11
BRANCH   8  17
ATOM     17  C   UNL     1       8.149   6.621  -2.594  0.00  0.00    +0.124 C 
BRANCH  17  24
ATOM      3  O   UNL     1       7.540   8.823  -1.746  0.00  0.00    -0.251 OA
ATOM     24  C   UNL     1       8.050   8.121  -2.607  0.00  0.00    +0.305 C 
BRANCH  24   2
ATOM      2  O   UNL     1       8.620   8.608  -3.738  0.00  0.00    -0.481 OA
ATOM     31  H   UNL     1       8.490   9.577  -3.826  0.00  0.00    +0.295 HD
ENDBRANCH  24   2
ENDBRANCH  17  24
ENDBRANCH   8  17
TORSDOF 8
ENDMDL
MODEL 6
REMARK VINA RESULT:      -6.2     26.055     30.791
REMARK  Name = 25313098
REMARK  8 active torsions:
REMARK  status: ('A' for Active; 'I' for Inactive)
REMARK    1  A    between atoms: O_2  and  C_24
REMARK    2  A    between atoms: N_5  and  C_19
REMARK    3  A    between atoms: N_6  and  C_25
REMARK    4  A    between atoms: C_7  and  C_11
REMARK    5  A    between atoms: C_8  and  C_17
REMARK    6  A    between atoms: C_11  and  C_19
REMARK    7  A    between atoms: C_13  and  C_16
REMARK    8  A    between atoms: C_17  and  C_24
REMARK                            x       y       z     vdW  Elec       q    Type
REMARK                         _______ _______ _______ _____ _____    ______ ____
ROOT
ATOM      1  O   UNL     1      13.168   2.678   1.714  0.00  0.00    -0.275 OA
ATOM      4  N   UNL     1      11.855   4.585   1.844  0.00  0.00    -0.301 N 
ATOM      7  C   UNL     1      11.414   6.872   2.704  0.00  0.00    +0.011 C 
ATOM      8  C   UNL     1      10.386   6.261   3.692  0.00  0.00    +0.006 C 
ATOM      9  C   UNL     1      11.548   5.968   1.465  0.00  0.00    +0.111 C 
ATOM     10  C   UNL     1      10.719   4.797   4.020  0.00  0.00    +0.023 C 
ATOM     12  C   UNL     1      10.889   3.967   2.751  0.00  0.00    +0.108 C 
ATOM     16  C   UNL     1      12.962   3.856   1.383  0.00  0.00    +0.219 C 
ENDROOT
BRANCH  16  13
ATOM     13  C   UNL     1      13.931   4.579   0.435  0.00  0.00    +0.075 C 
ATOM     14  C   UNL     1      15.434   4.265   0.584  0.00  0.00    +0.013 C 
ATOM     15  C   UNL     1      14.041   4.049  -1.009  0.00  0.00    +0.013 C 
ATOM     18  C   UNL     1      15.539   4.417  -0.948  0.00  0.00    +0.001 C 
ENDBRANCH  16  13
BRANCH   7  11
ATOM     11  C   UNL     1      12.792   7.136   3.323  0.00  0.00    +0.020 C 
BRANCH  11  19
ATOM     19  C   UNL     1      13.729   7.776   2.308  0.00  0.00    +0.085 C 
BRANCH  19   5
ATOM      5  N   UNL     1      14.928   8.271   2.983  0.00  0.00    -0.299 NA
ATOM      6  N   UNL     1      17.448   8.059   4.311  0.00  0.00    -0.327 N 
ATOM     20  C   UNL     1      16.133   7.894   2.235  0.00  0.00    +0.103 C 
ATOM     21  C   UNL     1      15.004   7.742   4.351  0.00  0.00    +0.103 C 
ATOM     22  C   UNL     1      17.392   8.455   2.900  0.00  0.00    +0.120 C 
ATOM     23  C   UNL     1      16.226   8.299   5.087  0.00  0.00    +0.120 C 
BRANCH   6  25
ATOM     25  C   UNL     1      18.672   8.079   4.989  0.00  0.00    +0.030 A 
ATOM     26  C   UNL     1      18.742   8.588   6.286  0.00  0.00    +0.023 A 
ATOM     27  C   UNL     1      19.821   7.587   4.370  0.00  0.00    +0.023 A 
ATOM     28  C   UNL     1      19.962   8.604   6.964  0.00  0.00    +0.002 A 
ATOM     29  C   UNL     1      21.041   7.603   5.048  0.00  0.00    +0.002 A 
ATOM     30  C   UNL     1      21.111   8.112   6.345  0.00  0.00    +0.000 A 
ENDBRANCH   6  25
ENDBRANCH  19   5
ENDBRANCH  11  19
ENDBRANCH   7  11
BRANCH   8  17
ATOM     17  C   UNL     1      10.226   7.079   4.973  0.00  0.00    +0.124 C 
BRANCH  17  24
ATOM      3  O   UNL     1       9.044   6.091   6.861  0.00  0.00    -0.251 OA
ATOM     24  C   UNL     1       9.029   6.637   5.768  0.00  0.00    +0.305 C 
BRANCH  24   2
ATOM      2  O   UNL     1       7.893   6.934   5.089  0.00  0.00    -0.481 OA
ATOM     31  H   UNL     1       8.047   6.984   4.121  0.00  0.00    +0.295 HD
ENDBRANCH  24   2
ENDBRANCH  17  24
ENDBRANCH   8  17
TORSDOF 8
ENDMDL
MODEL 7
REMARK VINA RESULT:      -5.9      2.908      5.764
REMARK  Name = 25313098
REMARK  8 active torsions:
REMARK  status: ('A' for Active; 'I' for Inactive)
REMARK    1  A    between atoms: O_2  and  C_24
REMARK    2  A    between atoms: N_5  and  C_19
REMARK    3  A    between atoms: N_6  and  C_25
REMARK    4  A    between atoms: C_7  and  C_11
REMARK    5  A    between atoms: C_8  and  C_17
REMARK    6  A    between atoms: C_11  and  C_19
REMARK    7  A    between atoms: C_13  and  C_16
REMARK    8  A    between atoms: C_17  and  C_24
REMARK                            x       y       z     vdW  Elec       q    Type
REMARK                         _______ _______ _______ _____ _____    ______ ____
ROOT
ATOM      1  O   UNL     1      -3.986 -16.345  12.859  0.00  0.00    -0.275 OA
ATOM      4  N   UNL     1      -2.637 -14.461  12.775  0.00  0.00    -0.301 N 
ATOM      7  C   UNL     1      -2.150 -12.102  13.376  0.00  0.00    +0.011 C 
ATOM      8  C   UNL     1      -2.586 -11.687  11.947  0.00  0.00    +0.006 C 
ATOM      9  C   UNL     1      -1.646 -13.556  13.367  0.00  0.00    +0.111 C 
ATOM     10  C   UNL     1      -3.586 -12.690  11.347  0.00  0.00    +0.023 C 
ATOM     12  C   UNL     1      -3.049 -14.117  11.415  0.00  0.00    +0.108 C 
ATOM     16  C   UNL     1      -3.165 -15.595  13.410  0.00  0.00    +0.219 C 
ENDROOT
BRANCH  16  13
ATOM     13  C   UNL     1      -2.684 -15.885  14.840  0.00  0.00    +0.075 C 
ATOM     14  C   UNL     1      -3.627 -16.694  15.755  0.00  0.00    +0.013 C 
ATOM     15  C   UNL     1      -1.654 -17.018  15.028  0.00  0.00    +0.013 C 
ATOM     18  C   UNL     1      -2.362 -17.335  16.362  0.00  0.00    +0.001 C 
ENDBRANCH  16  13
BRANCH   7  11
ATOM     11  C   UNL     1      -3.243 -11.922  14.437  0.00  0.00    +0.020 C 
BRANCH  11  19
ATOM     19  C   UNL     1      -2.727 -11.106  15.614  0.00  0.00    +0.085 C 
BRANCH  19   5
ATOM      5  N   UNL     1      -3.852 -10.544  16.360  0.00  0.00    -0.299 NA
ATOM      6  N   UNL     1      -6.517 -10.455  17.383  0.00  0.00    -0.327 N 
ATOM     20  C   UNL     1      -4.269 -11.459  17.430  0.00  0.00    +0.103 C 
ATOM     21  C   UNL     1      -4.983 -10.278  15.462  0.00  0.00    +0.103 C 
ATOM     22  C   UNL     1      -5.409 -10.857  18.255  0.00  0.00    +0.120 C 
ATOM     23  C   UNL     1      -6.147  -9.637  16.221  0.00  0.00    +0.120 C 
BRANCH   6  25
ATOM     25  C   UNL     1      -7.799 -10.291  17.920  0.00  0.00    +0.030 A 
ATOM     26  C   UNL     1      -8.710  -9.434  17.302  0.00  0.00    +0.023 A 
ATOM     27  C   UNL     1      -8.167 -10.986  19.072  0.00  0.00    +0.023 A 
ATOM     28  C   UNL     1      -9.989  -9.273  17.836  0.00  0.00    +0.002 A 
ATOM     29  C   UNL     1      -9.446 -10.826  19.606  0.00  0.00    +0.002 A 
ATOM     30  C   UNL     1     -10.357  -9.969  18.988  0.00  0.00    +0.000 A 
ENDBRANCH   6  25
ENDBRANCH  19   5
ENDBRANCH  11  19
ENDBRANCH   7  11
BRANCH   8  17
ATOM     17  C   UNL     1      -3.142 -10.265  11.877  0.00  0.00    +0.124 C 
BRANCH  17  24
ATOM      3  O   UNL     1      -1.280  -9.063  10.864  0.00  0.00    -0.251 OA
ATOM     24  C   UNL     1      -2.440  -9.445  10.831  0.00  0.00    +0.305 C 
BRANCH  24   2
ATOM      2  O   UNL     1      -3.294  -9.176   9.811  0.00  0.00    -0.481 OA
ATOM     31  H   UNL     1      -2.845  -8.720   9.068  0.00  0.00    +0.295 HD
ENDBRANCH  24   2
ENDBRANCH  17  24
ENDBRANCH   8  17
TORSDOF 8
ENDMDL
MODEL 8
REMARK VINA RESULT:      -5.9     24.393     28.164
REMARK  Name = 25313098
REMARK  8 active torsions:
REMARK  status: ('A' for Active; 'I' for Inactive)
REMARK    1  A    between atoms: O_2  and  C_24
REMARK    2  A    between atoms: N_5  and  C_19
REMARK    3  A    between atoms: N_6  and  C_25
REMARK    4  A    between atoms: C_7  and  C_11
REMARK    5  A    between atoms: C_8  and  C_17
REMARK    6  A    between atoms: C_11  and  C_19
REMARK    7  A    between atoms: C_13  and  C_16
REMARK    8  A    between atoms: C_17  and  C_24
REMARK                            x       y       z     vdW  Elec       q    Type
REMARK                         _______ _______ _______ _____ _____    ______ ____
ROOT
ATOM      1  O   UNL     1       7.228   9.503   3.817  0.00  0.00    -0.275 OA
ATOM      4  N   UNL     1       9.017   8.463   4.863  0.00  0.00    -0.301 N 
ATOM      7  C   UNL     1      10.422   6.464   5.303  0.00  0.00    +0.011 C 
ATOM      8  C   UNL     1       9.707   6.309   6.670  0.00  0.00    +0.006 C 
ATOM      9  C   UNL     1      10.387   7.937   4.859  0.00  0.00    +0.111 C 
ATOM     10  C   UNL     1       8.296   6.918   6.642  0.00  0.00    +0.023 C 
ATOM     12  C   UNL     1       8.323   8.361   6.146  0.00  0.00    +0.108 C 
ATOM     16  C   UNL     1       8.382   9.050   3.759  0.00  0.00    +0.219 C 
ENDROOT
BRANCH  16  13
ATOM     13  C   UNL     1       9.179   9.116   2.446  0.00  0.00    +0.075 C 
ATOM     14  C   UNL     1       9.030   7.933   1.467  0.00  0.00    +0.013 C 
ATOM     15  C   UNL     1       8.625  10.016   1.323  0.00  0.00    +0.013 C 
ATOM     18  C   UNL     1       9.151   8.963   0.325  0.00  0.00    +0.001 C 
ENDBRANCH  16  13
BRANCH   7  11
ATOM     11  C   UNL     1       9.858   5.560   4.199  0.00  0.00    +0.020 C 
BRANCH  11  19
ATOM     19  C   UNL     1      10.918   4.589   3.699  0.00  0.00    +0.085 C 
BRANCH  19   5
ATOM      5  N   UNL     1      11.153   4.803   2.271  0.00  0.00    -0.299 NA
ATOM      6  N   UNL     1      11.363   4.055  -0.477  0.00  0.00    -0.327 N 
ATOM     20  C   UNL     1       9.950   4.473   1.496  0.00  0.00    +0.103 C 
ATOM     21  C   UNL     1      12.284   3.988   1.808  0.00  0.00    +0.103 C 
ATOM     22  C   UNL     1      10.165   4.747   0.006  0.00  0.00    +0.120 C 
ATOM     23  C   UNL     1      12.576   4.247   0.328  0.00  0.00    +0.120 C 
BRANCH   6  25
ATOM     25  C   UNL     1      11.516   3.803  -1.845  0.00  0.00    +0.030 A 
ATOM     26  C   UNL     1      12.265   2.707  -2.274  0.00  0.00    +0.023 A 
ATOM     27  C   UNL     1      10.919   4.648  -2.781  0.00  0.00    +0.023 A 
ATOM     28  C   UNL     1      12.414   2.455  -3.638  0.00  0.00    +0.002 A 
ATOM     29  C   UNL     1      11.067   4.395  -4.145  0.00  0.00    +0.002 A 
ATOM     30  C   UNL     1      11.816   3.299  -4.573  0.00  0.00    +0.000 A 
ENDBRANCH   6  25
ENDBRANCH  19   5
ENDBRANCH  11  19
ENDBRANCH   7  11
BRANCH   8  17
ATOM     17  C   UNL     1       9.661   4.862   7.163  0.00  0.00    +0.124 C 
BRANCH  17  24
ATOM      3  O   UNL     1       9.044   4.203   9.426  0.00  0.00    -0.251 OA
ATOM     24  C   UNL     1       9.799   4.780   8.658  0.00  0.00    +0.305 C 
BRANCH  24   2
ATOM      2  O   UNL     1      10.908   5.453   9.053  0.00  0.00    -0.481 OA
ATOM     31  H   UNL     1      11.363   5.005   9.798  0.00  0.00    +0.295 HD
ENDBRANCH  24   2
ENDBRANCH  17  24
ENDBRANCH   8  17
TORSDOF 8
ENDMDL
MODEL 9
REMARK VINA RESULT:      -5.8     24.476     27.988
REMARK  Name = 25313098
REMARK  8 active torsions:
REMARK  status: ('A' for Active; 'I' for Inactive)
REMARK    1  A    between atoms: O_2  and  C_24
REMARK    2  A    between atoms: N_5  and  C_19
REMARK    3  A    between atoms: N_6  and  C_25
REMARK    4  A    between atoms: C_7  and  C_11
REMARK    5  A    between atoms: C_8  and  C_17
REMARK    6  A    between atoms: C_11  and  C_19
REMARK    7  A    between atoms: C_13  and  C_16
REMARK    8  A    between atoms: C_17  and  C_24
REMARK                            x       y       z     vdW  Elec       q    Type
REMARK                         _______ _______ _______ _____ _____    ______ ____
ROOT
ATOM      1  O   UNL     1      10.733   5.149  -3.720  0.00  0.00    -0.275 OA
ATOM      4  N   UNL     1      10.920   4.605  -1.474  0.00  0.00    -0.301 N 
ATOM      7  C   UNL     1      11.587   5.156   0.853  0.00  0.00    +0.011 C 
ATOM      8  C   UNL     1      12.832   4.250   0.670  0.00  0.00    +0.006 C 
ATOM      9  C   UNL     1      10.459   4.689  -0.084  0.00  0.00    +0.111 C 
ATOM     10  C   UNL     1      13.248   4.152  -0.808  0.00  0.00    +0.023 C 
ATOM     12  C   UNL     1      12.074   3.734  -1.688  0.00  0.00    +0.108 C 
ATOM     16  C   UNL     1      10.322   5.268  -2.556  0.00  0.00    +0.219 C 
ENDROOT
BRANCH  16  13
ATOM     13  C   UNL     1       9.114   6.168  -2.246  0.00  0.00    +0.075 C 
ATOM     14  C   UNL     1       9.389   7.668  -2.016  0.00  0.00    +0.013 C 
ATOM     15  C   UNL     1       8.221   6.591  -3.430  0.00  0.00    +0.013 C 
ATOM     18  C   UNL     1       8.038   7.943  -2.708  0.00  0.00    +0.001 C 
ENDBRANCH  16  13
BRANCH   7  11
ATOM     11  C   UNL     1      11.868   6.650   0.646  0.00  0.00    +0.020 C 
BRANCH  11  19
ATOM     19  C   UNL     1      11.197   7.483   1.729  0.00  0.00    +0.085 C 
BRANCH  19   5
ATOM      5  N   UNL     1      10.996   6.668   2.927  0.00  0.00    -0.299 NA
ATOM      6  N   UNL     1      10.182   6.139   5.613  0.00  0.00    -0.327 N 
ATOM     20  C   UNL     1       9.570   6.605   3.273  0.00  0.00    +0.103 C 
ATOM     21  C   UNL     1      11.760   7.215   4.055  0.00  0.00    +0.103 C 
ATOM     22  C   UNL     1       9.340   5.709   4.493  0.00  0.00    +0.120 C 
ATOM     23  C   UNL     1      11.603   6.339   5.300  0.00  0.00    +0.120 C 
BRANCH   6  25
ATOM     25  C   UNL     1       9.843   5.767   6.919  0.00  0.00    +0.030 A 
ATOM     26  C   UNL     1       9.987   4.440   7.326  0.00  0.00    +0.023 A 
ATOM     27  C   UNL     1       9.364   6.723   7.814  0.00  0.00    +0.023 A 
ATOM     28  C   UNL     1       9.652   4.071   8.629  0.00  0.00    +0.002 A 
ATOM     29  C   UNL     1       9.030   6.354   9.118  0.00  0.00    +0.002 A 
ATOM     30  C   UNL     1       9.173   5.027   9.525  0.00  0.00    +0.000 A 
ENDBRANCH   6  25
ENDBRANCH  19   5
ENDBRANCH  11  19
ENDBRANCH   7  11
BRANCH   8  17
ATOM     17  C   UNL     1      14.017   4.676   1.536  0.00  0.00    +0.124 C 
BRANCH  17  24
ATOM      3  O   UNL     1      15.886   3.823   0.224  0.00  0.00    -0.251 OA
ATOM     24  C   UNL     1      15.237   3.841   1.259  0.00  0.00    +0.305 C 
BRANCH  24   2
ATOM      2  O   UNL     1      15.531   3.085   2.347  0.00  0.00    -0.481 OA
ATOM     31  H   UNL     1      15.006   3.352   3.131  0.00  0.00    +0.295 HD
ENDBRANCH  24   2
ENDBRANCH  17  24
ENDBRANCH   8  17
TORSDOF 8
ENDMDL
MODEL 10
REMARK VINA RESULT:      -5.8      2.779      5.596
REMARK  Name = 25313098
REMARK  8 active torsions:
REMARK  status: ('A' for Active; 'I' for Inactive)
REMARK    1  A    between atoms: O_2  and  C_24
REMARK    2  A    between atoms: N_5  and  C_19
REMARK    3  A    between atoms: N_6  and  C_25
REMARK    4  A    between atoms: C_7  and  C_11
REMARK    5  A    between atoms: C_8  and  C_17
REMARK    6  A    between atoms: C_11  and  C_19
REMARK    7  A    between atoms: C_13  and  C_16
REMARK    8  A    between atoms: C_17  and  C_24
REMARK                            x       y       z     vdW  Elec       q    Type
REMARK                         _______ _______ _______ _____ _____    ______ ____
ROOT
ATOM      1  O   UNL     1      -7.794 -12.533  20.244  0.00  0.00    -0.275 OA
ATOM      4  N   UNL     1      -6.525 -11.070  18.968  0.00  0.00    -0.301 N 
ATOM      7  C   UNL     1      -5.653 -10.278  16.783  0.00  0.00    +0.011 C 
ATOM      8  C   UNL     1      -4.295 -10.943  17.126  0.00  0.00    +0.006 C 
ATOM      9  C   UNL     1      -6.397  -9.911  18.079  0.00  0.00    +0.111 C 
ATOM     10  C   UNL     1      -4.472 -12.121  18.099  0.00  0.00    +0.023 C 
ATOM     12  C   UNL     1      -5.260 -11.704  19.338  0.00  0.00    +0.108 C 
ATOM     16  C   UNL     1      -7.738 -11.561  19.474  0.00  0.00    +0.219 C 
ENDROOT
BRANCH  16  13
ATOM     13  C   UNL     1      -9.022 -10.841  19.035  0.00  0.00    +0.075 C 
ATOM     14  C   UNL     1     -10.037 -11.649  18.200  0.00  0.00    +0.013 C 
ATOM     15  C   UNL     1     -10.137 -10.672  20.087  0.00  0.00    +0.013 C 
ATOM     18  C   UNL     1     -11.147 -10.870  18.936  0.00  0.00    +0.001 C 
ENDBRANCH  16  13
BRANCH   7  11
ATOM     11  C   UNL     1      -6.551 -11.129  15.875  0.00  0.00    +0.020 C 
BRANCH  11  19
ATOM     19  C   UNL     1      -7.316 -10.251  14.895  0.00  0.00    +0.085 C 
BRANCH  19   5
ATOM      5  N   UNL     1      -8.665 -10.000  15.402  0.00  0.00    -0.299 NA
ATOM      6  N   UNL     1     -11.219  -8.726  15.499  0.00  0.00    -0.327 N 
ATOM     20  C   UNL     1      -9.665 -10.259  14.359  0.00  0.00    +0.103 C 
ATOM     21  C   UNL     1      -8.786  -8.616  15.879  0.00  0.00    +0.103 C 
ATOM     22  C   UNL     1     -11.084 -10.055  14.894  0.00  0.00    +0.120 C 
ATOM     23  C   UNL     1     -10.177  -8.358  16.465  0.00  0.00    +0.120 C 
BRANCH   6  25
ATOM     25  C   UNL     1     -12.490  -8.161  15.657  0.00  0.00    +0.030 A 
ATOM     26  C   UNL     1     -12.891  -7.107  14.837  0.00  0.00    +0.023 A 
ATOM     27  C   UNL     1     -13.356  -8.654  16.633  0.00  0.00    +0.023 A 
ATOM     28  C   UNL     1     -14.159  -6.546  14.993  0.00  0.00    +0.002 A 
ATOM     29  C   UNL     1     -14.624  -8.094  16.789  0.00  0.00    +0.002 A 
ATOM     30  C   UNL     1     -15.026  -7.039  15.969  0.00  0.00    +0.000 A 
ENDBRANCH   6  25
ENDBRANCH  19   5
ENDBRANCH  11  19
ENDBRANCH   7  11
BRANCH   8  17
ATOM     17  C   UNL     1      -3.510 -11.379  15.889  0.00  0.00    +0.124 C 
BRANCH  17  24
ATOM      3  O   UNL     1      -1.709 -10.042  14.938  0.00  0.00    -0.251 OA
ATOM     24  C   UNL     1      -2.151 -10.739  15.839  0.00  0.00    +0.305 C 
BRANCH  24   2
ATOM      2  O   UNL     1      -1.458 -11.047  16.964  0.00  0.00    -0.481 OA
ATOM     31  H   UNL     1      -1.976 -11.620  17.569  0.00  0.00    +0.295 HD
ENDBRANCH  24   2
ENDBRANCH  17  24
ENDBRANCH   8  17
TORSDOF 8
ENDMDL
