REMARK  Name = 11879581
REMARK  10 active torsions:
REMARK  status: ('A' for Active; 'I' for Inactive)
REMARK    1  A    between atoms: S_1  and  N_7
REMARK    2  A    between atoms: S_1  and  C_21
REMARK    3  A    between atoms: O_4  and  C_20
REMARK    4  A    between atoms: O_4  and  C_24
REMARK    5  A    between atoms: N_7  and  C_16
REMARK    6  A    between atoms: N_8  and  C_17
REMARK    7  A    between atoms: N_12  and  C_31
REMARK    8  A    between atoms: N_12  and  C_34
REMARK    9  A    between atoms: N_12  and  C_35
REMARK   10  A    between atoms: C_22  and  C_29
REMARK                            x       y       z     vdW  Elec       q    Type
REMARK                         _______ _______ _______ _____ _____    ______ ____
ROOT
ATOM      2  O   UNL     1       0.643   4.096  -0.523  0.00  0.00    -0.370 OA
ATOM      3  O   UNL     1       0.156   2.017   1.805  0.00  0.00    -0.370 OA
ATOM     14  C   UNL     1       0.505   1.912   0.415  0.00  0.00    +0.170 C 
ATOM     15  C   UNL     1      -0.256   2.988  -0.334  0.00  0.00    +0.175 C 
ATOM     16  C   UNL     1       1.958   2.271   0.215  0.00  0.00    +0.133 C 
ATOM     17  C   UNL     1      -1.381   3.391   0.602  0.00  0.00    +0.171 C 
ATOM     18  C   UNL     1       1.915   3.777   0.056  0.00  0.00    +0.183 C 
ATOM     19  C   UNL     1      -0.816   3.057   1.978  0.00  0.00    +0.190 C 
ENDROOT
BRANCH  17   8
ATOM      8  N   UNL     1      -2.647   2.731   0.274  0.00  0.00    -0.187 N 
ATOM      9  N   UNL     1      -3.741   3.446  -0.006  0.00  0.00    -0.041 NA
ATOM     10  N   UNL     1      -4.184   1.265  -0.122  0.00  0.00    -0.071 NA
ATOM     11  N   UNL     1      -4.681   2.542  -0.250  0.00  0.00    -0.020 NA
ATOM     20  C   UNL     1      -2.920   1.407   0.203  0.00  0.00    +0.342 A 
BRANCH  20   4
ATOM      4  O   UNL     1      -2.050   0.441   0.428  0.00  0.00    -0.423 OA
BRANCH   4  24
ATOM     24  C   UNL     1      -2.129  -0.797  -0.196  0.00  0.00    +0.134 A 
ATOM     28  C   UNL     1      -1.955  -1.940   0.560  0.00  0.00    +0.069 A 
ATOM     30  C   UNL     1      -2.380  -0.849  -1.553  0.00  0.00    +0.046 A 
ATOM     31  C   UNL     1      -2.034  -3.184  -0.067  0.00  0.00    +0.033 A 
ATOM     32  C   UNL     1      -2.460  -2.093  -2.180  0.00  0.00    +0.005 A 
ATOM     33  C   UNL     1      -2.287  -3.260  -1.436  0.00  0.00    +0.023 A 
BRANCH  31  12
ATOM     12  N   UNL     1      -1.858  -4.364   0.685  0.00  0.00    -0.336 N 
ATOM     34  C   UNL     1      -1.301  -5.551   0.068  0.00  0.00    +0.129 C 
ATOM     35  C   UNL     1      -2.220  -4.402   2.088  0.00  0.00    +0.129 C 
ENDBRANCH  31  12
ENDBRANCH   4  24
ENDBRANCH  20   4
ENDBRANCH  17   8
BRANCH  16   7
ATOM      7  N   UNL     1       2.463   1.652  -1.034  0.00  0.00    -0.182 NA
ATOM     36  H   UNL     1       1.836   1.639  -1.847  0.00  0.00    +0.148 HD
BRANCH   7   1
ATOM      1  S   UNL     1       3.844   0.666  -0.989  0.00  0.00    +0.060 S 
ATOM      5  O   UNL     1       4.935   1.392  -0.367  0.00  0.00    -0.153 OA
ATOM      6  O   UNL     1       4.024   0.055  -2.292  0.00  0.00    -0.153 OA
BRANCH   1  21
ATOM     21  C   UNL     1       3.341  -0.617   0.118  0.00  0.00    +0.123 A 
ATOM     22  C   UNL     1       2.383  -1.551  -0.249  0.00  0.00    +0.078 A 
ATOM     23  C   UNL     1       3.940  -0.658   1.369  0.00  0.00    +0.030 A 
ATOM     25  C   UNL     1       2.016  -2.548   0.655  0.00  0.00    +0.021 A 
ATOM     26  C   UNL     1       3.572  -1.655   2.273  0.00  0.00    +0.002 A 
ATOM     27  C   UNL     1       2.610  -2.600   1.916  0.00  0.00    +0.001 A 
BRANCH  22  29
ATOM     13  N   UNL     1       1.242  -1.508  -2.575  0.00  0.00    -0.191 NA
ATOM     29  C   UNL     1       1.753  -1.527  -1.534  0.00  0.00    +0.101 C 
ENDBRANCH  22  29
ENDBRANCH   1  21
ENDBRANCH   7   1
ENDBRANCH  16   7
TORSDOF 8
