MODEL 1
REMARK VINA RESULT:      -6.8      0.000      0.000
REMARK  Name = 44716941
REMARK  16 active torsions:
REMARK  status: ('A' for Active; 'I' for Inactive)
REMARK    1  A    between atoms: O_1  and  C_17
REMARK    2  A    between atoms: O_1  and  C_26
REMARK    3  A    between atoms: O_2  and  C_18
REMARK    4  A    between atoms: O_3  and  C_22
REMARK    5  A    between atoms: O_6  and  C_34
REMARK    6  A    between atoms: O_6  and  C_37
REMARK    7  A    between atoms: O_7  and  C_35
REMARK    8  A    between atoms: O_7  and  C_38
REMARK    9  A    between atoms: O_8  and  C_36
REMARK   10  A    between atoms: O_8  and  C_39
REMARK   11  A    between atoms: N_10  and  C_31
REMARK   12  A    between atoms: C_11  and  C_21
REMARK   13  A    between atoms: C_13  and  C_22
REMARK   14  A    between atoms: C_13  and  C_24
REMARK   15  A    between atoms: C_14  and  C_23
REMARK   16  A    between atoms: C_23  and  C_25
REMARK                            x       y       z     vdW  Elec       q    Type
REMARK                         _______ _______ _______ _____ _____    ______ ____
ROOT
ATOM     11  C   UNL     1      22.478   7.031  22.194  0.00  0.00    -0.023 C 
ATOM     12  C   UNL     1      21.815   8.322  21.576  0.00  0.00    +0.007 C 
ATOM     13  C   UNL     1      20.256   8.474  21.759  0.00  0.00    +0.031 C 
ATOM     14  C   UNL     1      23.951   6.944  21.613  0.00  0.00    +0.032 C 
ATOM     15  C   UNL     1      21.670   5.791  21.722  0.00  0.00    +0.011 C 
ATOM     16  C   UNL     1      22.631   9.584  21.933  0.00  0.00    +0.007 C 
ATOM     17  C   UNL     1      19.567   7.144  21.330  0.00  0.00    +0.186 C 
ATOM     18  C   UNL     1      24.786   8.220  21.864  0.00  0.00    +0.119 C 
ATOM     19  C   UNL     1      20.171   5.901  21.976  0.00  0.00    +0.046 C 
ATOM     20  C   UNL     1      24.063   9.485  21.408  0.00  0.00    +0.032 C 
ATOM     21  C   UNL     1      22.503   7.025  23.741  0.00  0.00    +0.012 C 
ATOM     24  C   UNL     1      19.739   9.593  20.810  0.00  0.00    +0.017 C 
ENDROOT
BRANCH  18   2
ATOM      2  O   UNL     1      25.137   8.336  23.239  0.00  0.00    -0.391 OA
ATOM     40  H   UNL     1      25.283   9.279  23.430  0.00  0.00    +0.210 HD
ENDBRANCH  18   2
BRANCH  17   1
ATOM      1  O   UNL     1      18.174   7.143  21.643  0.00  0.00    -0.446 OA
BRANCH   1  26
ATOM      5  O   UNL     1      17.621   6.048  19.713  0.00  0.00    -0.226 OA
ATOM     10  N   UNL     1      16.128   7.487  20.799  0.00  0.00    -0.251 N 
ATOM     26  C   UNL     1      17.323   6.817  20.619  0.00  0.00    +0.405 C 
ATOM     42  H   UNL     1      16.068   8.085  21.620  0.00  0.00    +0.158 HD
BRANCH  10  31
ATOM     31  C   UNL     1      14.974   7.443  19.984  0.00  0.00    +0.044 A 
ATOM     32  C   UNL     1      13.726   7.192  20.554  0.00  0.00    +0.073 A 
ATOM     33  C   UNL     1      15.083   7.651  18.609  0.00  0.00    +0.073 A 
ATOM     34  C   UNL     1      13.945   7.607  17.804  0.00  0.00    +0.167 A 
ATOM     35  C   UNL     1      12.587   7.150  19.750  0.00  0.00    +0.167 A 
ATOM     36  C   UNL     1      12.696   7.357  18.375  0.00  0.00    +0.204 A 
BRANCH  34   6
ATOM      6  O   UNL     1      14.065   7.811  16.462  0.00  0.00    -0.491 OA
ATOM     37  C   UNL     1      14.215   9.159  16.023  0.00  0.00    +0.277 C 
ENDBRANCH  34   6
BRANCH  35   7
ATOM      7  O   UNL     1      11.374   6.904  20.319  0.00  0.00    -0.491 OA
ATOM     38  C   UNL     1      11.343   5.972  21.398  0.00  0.00    +0.277 C 
ENDBRANCH  35   7
BRANCH  36   8
ATOM      8  O   UNL     1      11.584   7.313  17.589  0.00  0.00    -0.488 OA
ATOM     39  C   UNL     1      10.896   8.544  17.374  0.00  0.00    +0.277 C 
ENDBRANCH  36   8
ENDBRANCH  10  31
ENDBRANCH   1  26
ENDBRANCH  17   1
BRANCH  13  22
ATOM     22  C   UNL     1      19.827   8.899  23.179  0.00  0.00    +0.166 C 
BRANCH  22   3
ATOM      3  O   UNL     1      19.134  10.123  23.075  0.00  0.00    -0.394 OA
ATOM     41  H   UNL     1      19.495  10.718  23.754  0.00  0.00    +0.209 HD
ENDBRANCH  22   3
ENDBRANCH  13  22
BRANCH  14  23
ATOM     23  C   UNL     1      24.747   5.705  22.051  0.00  0.00    +0.102 C 
BRANCH  23  25
ATOM      4  O   UNL     1      24.736   4.946  19.793  0.00  0.00    -0.276 OA
ATOM      9  N   UNL     1      24.494   3.349  21.445  0.00  0.00    -0.301 N 
ATOM     25  C   UNL     1      24.662   4.642  20.985  0.00  0.00    +0.216 C 
ATOM     27  C   UNL     1      24.387   2.211  20.543  0.00  0.00    +0.108 C 
ATOM     28  C   UNL     1      24.403   2.923  22.838  0.00  0.00    +0.108 C 
ATOM     29  C   UNL     1      24.544   0.995  21.443  0.00  0.00    +0.020 C 
ATOM     30  C   UNL     1      23.947   1.472  22.762  0.00  0.00    +0.020 C 
ENDBRANCH  23  25
ENDBRANCH  14  23
TORSDOF 11
ENDMDL
MODEL 2
REMARK VINA RESULT:      -6.7      2.885     10.601
REMARK  Name = 44716941
REMARK  16 active torsions:
REMARK  status: ('A' for Active; 'I' for Inactive)
REMARK    1  A    between atoms: O_1  and  C_17
REMARK    2  A    between atoms: O_1  and  C_26
REMARK    3  A    between atoms: O_2  and  C_18
REMARK    4  A    between atoms: O_3  and  C_22
REMARK    5  A    between atoms: O_6  and  C_34
REMARK    6  A    between atoms: O_6  and  C_37
REMARK    7  A    between atoms: O_7  and  C_35
REMARK    8  A    between atoms: O_7  and  C_38
REMARK    9  A    between atoms: O_8  and  C_36
REMARK   10  A    between atoms: O_8  and  C_39
REMARK   11  A    between atoms: N_10  and  C_31
REMARK   12  A    between atoms: C_11  and  C_21
REMARK   13  A    between atoms: C_13  and  C_22
REMARK   14  A    between atoms: C_13  and  C_24
REMARK   15  A    between atoms: C_14  and  C_23
REMARK   16  A    between atoms: C_23  and  C_25
REMARK                            x       y       z     vdW  Elec       q    Type
REMARK                         _______ _______ _______ _____ _____    ______ ____
ROOT
ATOM     11  C   UNL     1      14.623   9.872  18.690  0.00  0.00    -0.023 C 
ATOM     12  C   UNL     1      15.040   8.387  19.021  0.00  0.00    +0.007 C 
ATOM     13  C   UNL     1      15.724   8.139  20.420  0.00  0.00    +0.031 C 
ATOM     14  C   UNL     1      14.269   9.920  17.146  0.00  0.00    +0.032 C 
ATOM     15  C   UNL     1      15.842  10.795  18.962  0.00  0.00    +0.011 C 
ATOM     16  C   UNL     1      13.896   7.405  18.680  0.00  0.00    +0.007 C 
ATOM     17  C   UNL     1      16.873   9.174  20.610  0.00  0.00    +0.186 C 
ATOM     18  C   UNL     1      13.191   8.892  16.730  0.00  0.00    +0.119 C 
ATOM     19  C   UNL     1      16.452  10.616  20.348  0.00  0.00    +0.046 C 
ATOM     20  C   UNL     1      13.526   7.478  17.198  0.00  0.00    +0.032 C 
ATOM     21  C   UNL     1      13.435  10.387  19.537  0.00  0.00    +0.012 C 
ATOM     24  C   UNL     1      16.367   6.722  20.428  0.00  0.00    +0.017 C 
ENDROOT
BRANCH  18   2
ATOM      2  O   UNL     1      11.910   9.271  17.225  0.00  0.00    -0.391 OA
ATOM     40  H   UNL     1      11.633   8.602  17.874  0.00  0.00    +0.210 HD
ENDBRANCH  18   2
BRANCH  17   1
ATOM      1  O   UNL     1      17.415   9.129  21.929  0.00  0.00    -0.446 OA
BRANCH   1  26
ATOM      5  O   UNL     1      19.638   9.537  21.583  0.00  0.00    -0.226 OA
ATOM     10  N   UNL     1      18.883   7.617  22.690  0.00  0.00    -0.251 N 
ATOM     26  C   UNL     1      18.748   8.822  22.028  0.00  0.00    +0.405 C 
ATOM     42  H   UNL     1      18.020   7.168  22.987  0.00  0.00    +0.158 HD
BRANCH  10  31
ATOM     31  C   UNL     1      20.075   6.928  23.009  0.00  0.00    +0.044 A 
ATOM     32  C   UNL     1      20.656   6.069  22.076  0.00  0.00    +0.073 A 
ATOM     33  C   UNL     1      20.671   7.107  24.258  0.00  0.00    +0.073 A 
ATOM     34  C   UNL     1      21.847   6.426  24.574  0.00  0.00    +0.167 A 
ATOM     35  C   UNL     1      21.832   5.390  22.391  0.00  0.00    +0.167 A 
ATOM     36  C   UNL     1      22.428   5.568  23.640  0.00  0.00    +0.204 A 
BRANCH  34   6
ATOM      6  O   UNL     1      22.418   6.609  25.797  0.00  0.00    -0.491 OA
ATOM     37  C   UNL     1      21.770   6.001  26.911  0.00  0.00    +0.277 C 
ENDBRANCH  34   6
BRANCH  35   7
ATOM      7  O   UNL     1      22.390   4.554  21.471  0.00  0.00    -0.491 OA
ATOM     38  C   UNL     1      21.680   3.353  21.175  0.00  0.00    +0.277 C 
ENDBRANCH  35   7
BRANCH  36   8
ATOM      8  O   UNL     1      23.577   4.902  23.948  0.00  0.00    -0.488 OA
ATOM     39  C   UNL     1      23.437   3.606  24.526  0.00  0.00    +0.277 C 
ENDBRANCH  36   8
ENDBRANCH  10  31
ENDBRANCH   1  26
ENDBRANCH  17   1
BRANCH  13  22
ATOM     22  C   UNL     1      14.745   8.159  21.612  0.00  0.00    +0.166 C 
BRANCH  22   3
ATOM      3  O   UNL     1      15.090   7.099  22.477  0.00  0.00    -0.394 OA
ATOM     41  H   UNL     1      16.061   7.061  22.514  0.00  0.00    +0.209 HD
ENDBRANCH  22   3
ENDBRANCH  13  22
BRANCH  14  23
ATOM     23  C   UNL     1      13.897  11.312  16.610  0.00  0.00    +0.102 C 
BRANCH  23  25
ATOM      4  O   UNL     1      13.096  11.073  14.379  0.00  0.00    -0.276 OA
ATOM      9  N   UNL     1      15.313  11.667  14.648  0.00  0.00    -0.301 N 
ATOM     25  C   UNL     1      14.052  11.338  15.111  0.00  0.00    +0.216 C 
ATOM     27  C   UNL     1      15.627  11.730  13.228  0.00  0.00    +0.108 C 
ATOM     28  C   UNL     1      16.482  11.995  15.458  0.00  0.00    +0.108 C 
ATOM     29  C   UNL     1      16.977  12.428  13.167  0.00  0.00    +0.020 C 
ATOM     30  C   UNL     1      17.640  11.996  14.470  0.00  0.00    +0.020 C 
ENDBRANCH  23  25
ENDBRANCH  14  23
TORSDOF 11
ENDMDL
MODEL 3
REMARK VINA RESULT:      -6.7     29.922     32.477
REMARK  Name = 44716941
REMARK  16 active torsions:
REMARK  status: ('A' for Active; 'I' for Inactive)
REMARK    1  A    between atoms: O_1  and  C_17
REMARK    2  A    between atoms: O_1  and  C_26
REMARK    3  A    between atoms: O_2  and  C_18
REMARK    4  A    between atoms: O_3  and  C_22
REMARK    5  A    between atoms: O_6  and  C_34
REMARK    6  A    between atoms: O_6  and  C_37
REMARK    7  A    between atoms: O_7  and  C_35
REMARK    8  A    between atoms: O_7  and  C_38
REMARK    9  A    between atoms: O_8  and  C_36
REMARK   10  A    between atoms: O_8  and  C_39
REMARK   11  A    between atoms: N_10  and  C_31
REMARK   12  A    between atoms: C_11  and  C_21
REMARK   13  A    between atoms: C_13  and  C_22
REMARK   14  A    between atoms: C_13  and  C_24
REMARK   15  A    between atoms: C_14  and  C_23
REMARK   16  A    between atoms: C_23  and  C_25
REMARK                            x       y       z     vdW  Elec       q    Type
REMARK                         _______ _______ _______ _____ _____    ______ ____
ROOT
ATOM     11  C   UNL     1      -4.782 -11.649  15.826  0.00  0.00    -0.023 C 
ATOM     12  C   UNL     1      -4.693 -12.955  14.945  0.00  0.00    +0.007 C 
ATOM     13  C   UNL     1      -3.654 -12.940  13.759  0.00  0.00    +0.031 C 
ATOM     14  C   UNL     1      -6.086 -11.780  16.718  0.00  0.00    +0.032 C 
ATOM     15  C   UNL     1      -4.934 -10.428  14.878  0.00  0.00    +0.011 C 
ATOM     16  C   UNL     1      -4.635 -14.216  15.836  0.00  0.00    +0.007 C 
ATOM     17  C   UNL     1      -3.852 -11.634  12.933  0.00  0.00    +0.186 C 
ATOM     18  C   UNL     1      -6.123 -13.073  17.565  0.00  0.00    +0.119 C 
ATOM     19  C   UNL     1      -3.878 -10.366  13.780  0.00  0.00    +0.046 C 
ATOM     20  C   UNL     1      -5.874 -14.324  16.726  0.00  0.00    +0.032 C 
ATOM     21  C   UNL     1      -3.537 -11.413  16.714  0.00  0.00    +0.012 C 
ATOM     24  C   UNL     1      -3.946 -14.139  12.812  0.00  0.00    +0.017 C 
ENDROOT
BRANCH  18   2
ATOM      2  O   UNL     1      -5.177 -13.011  18.629  0.00  0.00    -0.391 OA
ATOM     40  H   UNL     1      -5.284 -13.814  19.167  0.00  0.00    +0.210 HD
ENDBRANCH  18   2
BRANCH  17   1
ATOM      1  O   UNL     1      -2.826 -11.464  11.955  0.00  0.00    -0.446 OA
BRANCH   1  26
ATOM      5  O   UNL     1      -2.454  -9.675  10.580  0.00  0.00    -0.226 OA
ATOM     10  N   UNL     1      -4.276 -11.115  10.283  0.00  0.00    -0.251 N 
ATOM     26  C   UNL     1      -3.128 -10.648  10.895  0.00  0.00    +0.405 C 
ATOM     42  H   UNL     1      -4.697 -11.945  10.693  0.00  0.00    +0.158 HD
BRANCH  10  31
ATOM     31  C   UNL     1      -4.941 -10.580   9.156  0.00  0.00    +0.044 A 
ATOM     32  C   UNL     1      -4.684 -11.095   7.886  0.00  0.00    +0.073 A 
ATOM     33  C   UNL     1      -5.854  -9.537   9.314  0.00  0.00    +0.073 A 
ATOM     34  C   UNL     1      -6.508  -9.009   8.202  0.00  0.00    +0.167 A 
ATOM     35  C   UNL     1      -5.340 -10.568   6.773  0.00  0.00    +0.167 A 
ATOM     36  C   UNL     1      -6.252  -9.524   6.931  0.00  0.00    +0.204 A 
BRANCH  34   6
ATOM      6  O   UNL     1      -7.397  -7.989   8.370  0.00  0.00    -0.491 OA
ATOM     37  C   UNL     1      -8.622  -8.301   9.030  0.00  0.00    +0.277 C 
ENDBRANCH  34   6
BRANCH  35   7
ATOM      7  O   UNL     1      -5.080 -11.080   5.538  0.00  0.00    -0.491 OA
ATOM     38  C   UNL     1      -4.110 -12.122   5.460  0.00  0.00    +0.277 C 
ENDBRANCH  35   7
BRANCH  36   8
ATOM      8  O   UNL     1      -6.892  -9.008   5.844  0.00  0.00    -0.488 OA
ATOM     39  C   UNL     1      -8.133  -9.608   5.479  0.00  0.00    +0.277 C 
ENDBRANCH  36   8
ENDBRANCH  10  31
ENDBRANCH   1  26
ENDBRANCH  17   1
BRANCH  13  22
ATOM     22  C   UNL     1      -2.187 -13.107  14.205  0.00  0.00    +0.166 C 
BRANCH  22   3
ATOM      3  O   UNL     1      -1.446 -13.566  13.096  0.00  0.00    -0.394 OA
ATOM     41  H   UNL     1      -2.066 -14.020  12.501  0.00  0.00    +0.209 HD
ENDBRANCH  22   3
ENDBRANCH  13  22
BRANCH  14  23
ATOM     23  C   UNL     1      -6.385 -10.564  17.608  0.00  0.00    +0.102 C 
BRANCH  23  25
ATOM      4  O   UNL     1      -7.860  -9.308  16.222  0.00  0.00    -0.276 OA
ATOM      9  N   UNL     1      -8.757 -10.263  18.125  0.00  0.00    -0.301 N 
ATOM     25  C   UNL     1      -7.729  -9.985  17.244  0.00  0.00    +0.216 C 
ATOM     27  C   UNL     1     -10.112  -9.771  17.919  0.00  0.00    +0.108 C 
ATOM     28  C   UNL     1      -8.669 -11.058  19.346  0.00  0.00    +0.108 C 
ATOM     29  C   UNL     1     -10.958 -10.561  18.905  0.00  0.00    +0.020 C 
ATOM     30  C   UNL     1      -9.991 -10.808  20.058  0.00  0.00    +0.020 C 
ENDBRANCH  23  25
ENDBRANCH  14  23
TORSDOF 11
ENDMDL
MODEL 4
REMARK VINA RESULT:      -6.7      2.876     10.486
REMARK  Name = 44716941
REMARK  16 active torsions:
REMARK  status: ('A' for Active; 'I' for Inactive)
REMARK    1  A    between atoms: O_1  and  C_17
REMARK    2  A    between atoms: O_1  and  C_26
REMARK    3  A    between atoms: O_2  and  C_18
REMARK    4  A    between atoms: O_3  and  C_22
REMARK    5  A    between atoms: O_6  and  C_34
REMARK    6  A    between atoms: O_6  and  C_37
REMARK    7  A    between atoms: O_7  and  C_35
REMARK    8  A    between atoms: O_7  and  C_38
REMARK    9  A    between atoms: O_8  and  C_36
REMARK   10  A    between atoms: O_8  and  C_39
REMARK   11  A    between atoms: N_10  and  C_31
REMARK   12  A    between atoms: C_11  and  C_21
REMARK   13  A    between atoms: C_13  and  C_22
REMARK   14  A    between atoms: C_13  and  C_24
REMARK   15  A    between atoms: C_14  and  C_23
REMARK   16  A    between atoms: C_23  and  C_25
REMARK                            x       y       z     vdW  Elec       q    Type
REMARK                         _______ _______ _______ _____ _____    ______ ____
ROOT
ATOM     11  C   UNL     1      14.602   9.881  18.678  0.00  0.00    -0.023 C 
ATOM     12  C   UNL     1      15.015   8.393  19.004  0.00  0.00    +0.007 C 
ATOM     13  C   UNL     1      15.676   8.134  20.412  0.00  0.00    +0.031 C 
ATOM     14  C   UNL     1      14.273   9.941  17.129  0.00  0.00    +0.032 C 
ATOM     15  C   UNL     1      15.815  10.803  18.978  0.00  0.00    +0.011 C 
ATOM     16  C   UNL     1      13.878   7.414  18.637  0.00  0.00    +0.007 C 
ATOM     17  C   UNL     1      16.821   9.169  20.629  0.00  0.00    +0.186 C 
ATOM     18  C   UNL     1      13.203   8.916  16.688  0.00  0.00    +0.119 C 
ATOM     19  C   UNL     1      16.403  10.613  20.372  0.00  0.00    +0.046 C 
ATOM     20  C   UNL     1      13.533   7.498  17.149  0.00  0.00    +0.032 C 
ATOM     21  C   UNL     1      13.399  10.388  19.510  0.00  0.00    +0.012 C 
ATOM     24  C   UNL     1      16.321   6.718  20.419  0.00  0.00    +0.017 C 
ENDROOT
BRANCH  18   2
ATOM      2  O   UNL     1      11.914   9.290  17.164  0.00  0.00    -0.391 OA
ATOM     40  H   UNL     1      11.278   8.622  16.855  0.00  0.00    +0.210 HD
ENDBRANCH  18   2
BRANCH  17   1
ATOM      1  O   UNL     1      17.341   9.114  21.957  0.00  0.00    -0.446 OA
BRANCH   1  26
ATOM      5  O   UNL     1      19.559   9.616  21.715  0.00  0.00    -0.226 OA
ATOM     10  N   UNL     1      18.835   7.591  22.642  0.00  0.00    -0.251 N 
ATOM     26  C   UNL     1      18.680   8.841  22.073  0.00  0.00    +0.405 C 
ATOM     42  H   UNL     1      17.979   7.094  22.874  0.00  0.00    +0.158 HD
BRANCH  10  31
ATOM     31  C   UNL     1      20.040   6.916  22.943  0.00  0.00    +0.044 A 
ATOM     32  C   UNL     1      20.661   7.113  24.177  0.00  0.00    +0.073 A 
ATOM     33  C   UNL     1      20.608   6.051  22.007  0.00  0.00    +0.073 A 
ATOM     34  C   UNL     1      21.797   5.386  22.304  0.00  0.00    +0.167 A 
ATOM     35  C   UNL     1      21.849   6.446  24.474  0.00  0.00    +0.167 A 
ATOM     36  C   UNL     1      22.417   5.582  23.538  0.00  0.00    +0.204 A 
BRANCH  34   6
ATOM      6  O   UNL     1      22.342   4.545  21.381  0.00  0.00    -0.491 OA
ATOM     37  C   UNL     1      21.638   3.335  21.112  0.00  0.00    +0.277 C 
ENDBRANCH  34   6
BRANCH  35   7
ATOM      7  O   UNL     1      22.445   6.648  25.682  0.00  0.00    -0.491 OA
ATOM     38  C   UNL     1      21.829   6.043  26.818  0.00  0.00    +0.277 C 
ENDBRANCH  35   7
BRANCH  36   8
ATOM      8  O   UNL     1      23.579   4.932  23.828  0.00  0.00    -0.488 OA
ATOM     39  C   UNL     1      23.466   3.641  24.423  0.00  0.00    +0.277 C 
ENDBRANCH  36   8
ENDBRANCH  10  31
ENDBRANCH   1  26
ENDBRANCH  17   1
BRANCH  13  22
ATOM     22  C   UNL     1      14.678   8.144  21.589  0.00  0.00    +0.166 C 
BRANCH  22   3
ATOM      3  O   UNL     1      15.054   7.124  22.486  0.00  0.00    -0.394 OA
ATOM     41  H   UNL     1      15.603   6.491  21.992  0.00  0.00    +0.209 HD
ENDBRANCH  22   3
ENDBRANCH  13  22
BRANCH  14  23
ATOM     23  C   UNL     1      13.909  11.337  16.599  0.00  0.00    +0.102 C 
BRANCH  23  25
ATOM      4  O   UNL     1      13.109  11.119  14.365  0.00  0.00    -0.276 OA
ATOM      9  N   UNL     1      15.332  11.685  14.640  0.00  0.00    -0.301 N 
ATOM     25  C   UNL     1      14.067  11.369  15.100  0.00  0.00    +0.216 C 
ATOM     27  C   UNL     1      15.650  11.752  13.221  0.00  0.00    +0.108 C 
ATOM     28  C   UNL     1      16.504  11.995  15.454  0.00  0.00    +0.108 C 
ATOM     29  C   UNL     1      17.008  12.433  13.166  0.00  0.00    +0.020 C 
ATOM     30  C   UNL     1      17.664  11.987  14.468  0.00  0.00    +0.020 C 
ENDBRANCH  23  25
ENDBRANCH  14  23
TORSDOF 11
ENDMDL
MODEL 5
REMARK VINA RESULT:      -6.7     28.672     34.752
REMARK  Name = 44716941
REMARK  16 active torsions:
REMARK  status: ('A' for Active; 'I' for Inactive)
REMARK    1  A    between atoms: O_1  and  C_17
REMARK    2  A    between atoms: O_1  and  C_26
REMARK    3  A    between atoms: O_2  and  C_18
REMARK    4  A    between atoms: O_3  and  C_22
REMARK    5  A    between atoms: O_6  and  C_34
REMARK    6  A    between atoms: O_6  and  C_37
REMARK    7  A    between atoms: O_7  and  C_35
REMARK    8  A    between atoms: O_7  and  C_38
REMARK    9  A    between atoms: O_8  and  C_36
REMARK   10  A    between atoms: O_8  and  C_39
REMARK   11  A    between atoms: N_10  and  C_31
REMARK   12  A    between atoms: C_11  and  C_21
REMARK   13  A    between atoms: C_13  and  C_22
REMARK   14  A    between atoms: C_13  and  C_24
REMARK   15  A    between atoms: C_14  and  C_23
REMARK   16  A    between atoms: C_23  and  C_25
REMARK                            x       y       z     vdW  Elec       q    Type
REMARK                         _______ _______ _______ _____ _____    ______ ____
ROOT
ATOM     11  C   UNL     1     -12.260  -6.877  14.665  0.00  0.00    -0.023 C 
ATOM     12  C   UNL     1     -12.053  -8.438  14.570  0.00  0.00    +0.007 C 
ATOM     13  C   UNL     1     -11.402  -9.144  15.820  0.00  0.00    +0.031 C 
ATOM     14  C   UNL     1     -12.614  -6.367  13.206  0.00  0.00    +0.032 C 
ATOM     15  C   UNL     1     -10.923  -6.232  15.121  0.00  0.00    +0.011 C 
ATOM     16  C   UNL     1     -13.324  -9.130  14.028  0.00  0.00    +0.007 C 
ATOM     17  C   UNL     1     -10.119  -8.360  16.230  0.00  0.00    +0.186 C 
ATOM     18  C   UNL     1     -13.827  -7.091  12.579  0.00  0.00    +0.119 C 
ATOM     19  C   UNL     1     -10.336  -6.859  16.381  0.00  0.00    +0.046 C 
ATOM     20  C   UNL     1     -13.689  -8.610  12.637  0.00  0.00    +0.032 C 
ATOM     21  C   UNL     1     -13.361  -6.457  15.669  0.00  0.00    +0.012 C 
ATOM     24  C   UNL     1     -10.963 -10.582  15.422  0.00  0.00    +0.017 C 
ENDROOT
BRANCH  18   2
ATOM      2  O   UNL     1     -15.039  -6.694  13.211  0.00  0.00    -0.391 OA
ATOM     40  H   UNL     1     -15.344  -5.876  12.782  0.00  0.00    +0.210 HD
ENDBRANCH  18   2
BRANCH  17   1
ATOM      1  O   UNL     1      -9.581  -8.832  17.465  0.00  0.00    -0.446 OA
BRANCH   1  26
ATOM      5  O   UNL     1      -8.670 -10.898  17.829  0.00  0.00    -0.226 OA
ATOM     10  N   UNL     1      -7.508  -9.206  16.703  0.00  0.00    -0.251 N 
ATOM     26  C   UNL     1      -8.579  -9.764  17.374  0.00  0.00    +0.405 C 
ATOM     42  H   UNL     1      -7.622  -8.242  16.398  0.00  0.00    +0.158 HD
BRANCH  10  31
ATOM     31  C   UNL     1      -6.269  -9.809  16.387  0.00  0.00    +0.044 A 
ATOM     32  C   UNL     1      -5.472 -10.339  17.402  0.00  0.00    +0.073 A 
ATOM     33  C   UNL     1      -5.843  -9.874  15.060  0.00  0.00    +0.073 A 
ATOM     34  C   UNL     1      -4.620 -10.468  14.749  0.00  0.00    +0.167 A 
ATOM     35  C   UNL     1      -4.250 -10.934  17.090  0.00  0.00    +0.167 A 
ATOM     36  C   UNL     1      -3.824 -10.999  15.763  0.00  0.00    +0.204 A 
BRANCH  34   6
ATOM      6  O   UNL     1      -4.215 -10.524  13.449  0.00  0.00    -0.491 OA
ATOM     37  C   UNL     1      -5.153 -10.105  12.460  0.00  0.00    +0.277 C 
ENDBRANCH  34   6
BRANCH  35   7
ATOM      7  O   UNL     1      -3.481 -11.448  18.090  0.00  0.00    -0.491 OA
ATOM     38  C   UNL     1      -4.164 -12.036  19.196  0.00  0.00    +0.277 C 
ENDBRANCH  35   7
BRANCH  36   8
ATOM      8  O   UNL     1      -2.628 -11.579  15.459  0.00  0.00    -0.488 OA
ATOM     39  C   UNL     1      -1.476 -10.739  15.489  0.00  0.00    +0.277 C 
ENDBRANCH  36   8
ENDBRANCH  10  31
ENDBRANCH   1  26
ENDBRANCH  17   1
BRANCH  13  22
ATOM     22  C   UNL     1     -12.362  -9.317  17.016  0.00  0.00    +0.166 C 
BRANCH  22   3
ATOM      3  O   UNL     1     -11.922 -10.425  17.769  0.00  0.00    -0.394 OA
ATOM     41  H   UNL     1     -12.527 -11.163  17.579  0.00  0.00    +0.209 HD
ENDBRANCH  22   3
ENDBRANCH  13  22
BRANCH  14  23
ATOM     23  C   UNL     1     -12.791  -4.845  13.079  0.00  0.00    +0.102 C 
BRANCH  23  25
ATOM      4  O   UNL     1     -11.753  -4.772  10.935  0.00  0.00    -0.276 OA
ATOM      9  N   UNL     1     -13.789  -3.702  11.160  0.00  0.00    -0.301 N 
ATOM     25  C   UNL     1     -12.720  -4.445  11.627  0.00  0.00    +0.216 C 
ATOM     27  C   UNL     1     -13.867  -3.232   9.785  0.00  0.00    +0.108 C 
ATOM     28  C   UNL     1     -14.961  -3.287  11.923  0.00  0.00    +0.108 C 
ATOM     29  C   UNL     1     -15.306  -2.766   9.623  0.00  0.00    +0.020 C 
ATOM     30  C   UNL     1     -15.663  -2.279  11.023  0.00  0.00    +0.020 C 
ENDBRANCH  23  25
ENDBRANCH  14  23
TORSDOF 11
ENDMDL
MODEL 6
REMARK VINA RESULT:      -6.7     29.898     32.444
REMARK  Name = 44716941
REMARK  16 active torsions:
REMARK  status: ('A' for Active; 'I' for Inactive)
REMARK    1  A    between atoms: O_1  and  C_17
REMARK    2  A    between atoms: O_1  and  C_26
REMARK    3  A    between atoms: O_2  and  C_18
REMARK    4  A    between atoms: O_3  and  C_22
REMARK    5  A    between atoms: O_6  and  C_34
REMARK    6  A    between atoms: O_6  and  C_37
REMARK    7  A    between atoms: O_7  and  C_35
REMARK    8  A    between atoms: O_7  and  C_38
REMARK    9  A    between atoms: O_8  and  C_36
REMARK   10  A    between atoms: O_8  and  C_39
REMARK   11  A    between atoms: N_10  and  C_31
REMARK   12  A    between atoms: C_11  and  C_21
REMARK   13  A    between atoms: C_13  and  C_22
REMARK   14  A    between atoms: C_13  and  C_24
REMARK   15  A    between atoms: C_14  and  C_23
REMARK   16  A    between atoms: C_23  and  C_25
REMARK                            x       y       z     vdW  Elec       q    Type
REMARK                         _______ _______ _______ _____ _____    ______ ____
ROOT
ATOM     11  C   UNL     1      -4.760 -11.622  15.797  0.00  0.00    -0.023 C 
ATOM     12  C   UNL     1      -4.657 -12.935  14.927  0.00  0.00    +0.007 C 
ATOM     13  C   UNL     1      -3.624 -12.915  13.736  0.00  0.00    +0.031 C 
ATOM     14  C   UNL     1      -6.058 -11.764  16.697  0.00  0.00    +0.032 C 
ATOM     15  C   UNL     1      -4.933 -10.412  14.839  0.00  0.00    +0.011 C 
ATOM     16  C   UNL     1      -4.577 -14.187  15.828  0.00  0.00    +0.007 C 
ATOM     17  C   UNL     1      -3.844 -11.619  12.900  0.00  0.00    +0.186 C 
ATOM     18  C   UNL     1      -6.073 -13.050  17.555  0.00  0.00    +0.119 C 
ATOM     19  C   UNL     1      -3.883 -10.345  13.737  0.00  0.00    +0.046 C 
ATOM     20  C   UNL     1      -5.811 -14.304  16.724  0.00  0.00    +0.032 C 
ATOM     21  C   UNL     1      -3.514 -11.361  16.677  0.00  0.00    +0.012 C 
ATOM     24  C   UNL     1      -3.903 -14.126  12.800  0.00  0.00    +0.017 C 
ENDROOT
BRANCH  18   2
ATOM      2  O   UNL     1      -5.124 -12.966  18.613  0.00  0.00    -0.391 OA
ATOM     40  H   UNL     1      -5.593 -13.141  19.447  0.00  0.00    +0.210 HD
ENDBRANCH  18   2
BRANCH  17   1
ATOM      1  O   UNL     1      -2.824 -11.443  11.916  0.00  0.00    -0.446 OA
BRANCH   1  26
ATOM      5  O   UNL     1      -2.494  -9.632  10.559  0.00  0.00    -0.226 OA
ATOM     10  N   UNL     1      -4.259 -11.132  10.224  0.00  0.00    -0.251 N 
ATOM     26  C   UNL     1      -3.138 -10.631  10.856  0.00  0.00    +0.405 C 
ATOM     42  H   UNL     1      -4.657 -11.980  10.621  0.00  0.00    +0.158 HD
BRANCH  10  31
ATOM     31  C   UNL     1      -4.924 -10.613   9.090  0.00  0.00    +0.044 A 
ATOM     32  C   UNL     1      -5.856  -9.585   9.237  0.00  0.00    +0.073 A 
ATOM     33  C   UNL     1      -4.650 -11.129   7.823  0.00  0.00    +0.073 A 
ATOM     34  C   UNL     1      -5.307 -10.618   6.704  0.00  0.00    +0.167 A 
ATOM     35  C   UNL     1      -6.512  -9.072   8.118  0.00  0.00    +0.167 A 
ATOM     36  C   UNL     1      -6.238  -9.589   6.851  0.00  0.00    +0.204 A 
BRANCH  34   6
ATOM      6  O   UNL     1      -5.031 -11.131   5.473  0.00  0.00    -0.491 OA
ATOM     37  C   UNL     1      -4.110 -12.218   5.417  0.00  0.00    +0.277 C 
ENDBRANCH  34   6
BRANCH  35   7
ATOM      7  O   UNL     1      -7.419  -8.068   8.275  0.00  0.00    -0.491 OA
ATOM     38  C   UNL     1      -8.598  -8.372   9.018  0.00  0.00    +0.277 C 
ENDBRANCH  35   7
BRANCH  36   8
ATOM      8  O   UNL     1      -6.880  -9.089   5.758  0.00  0.00    -0.488 OA
ATOM     39  C   UNL     1      -8.115  -9.705   5.397  0.00  0.00    +0.277 C 
ENDBRANCH  36   8
ENDBRANCH  10  31
ENDBRANCH   1  26
ENDBRANCH  17   1
BRANCH  13  22
ATOM     22  C   UNL     1      -2.152 -13.058  14.176  0.00  0.00    +0.166 C 
BRANCH  22   3
ATOM      3  O   UNL     1      -1.409 -13.514  13.068  0.00  0.00    -0.394 OA
ATOM     41  H   UNL     1      -1.074 -14.400  13.288  0.00  0.00    +0.209 HD
ENDBRANCH  22   3
ENDBRANCH  13  22
BRANCH  14  23
ATOM     23  C   UNL     1      -6.370 -10.545  17.578  0.00  0.00    +0.102 C 
BRANCH  23  25
ATOM      4  O   UNL     1      -7.848  -9.307  16.178  0.00  0.00    -0.276 OA
ATOM      9  N   UNL     1      -8.747 -10.259  18.082  0.00  0.00    -0.301 N 
ATOM     25  C   UNL     1      -7.716  -9.978  17.204  0.00  0.00    +0.216 C 
ATOM     27  C   UNL     1     -10.104  -9.779  17.867  0.00  0.00    +0.108 C 
ATOM     28  C   UNL     1      -8.658 -11.048  19.308  0.00  0.00    +0.108 C 
ATOM     29  C   UNL     1     -10.948 -10.570  18.855  0.00  0.00    +0.020 C 
ATOM     30  C   UNL     1      -9.985 -10.805  20.012  0.00  0.00    +0.020 C 
ENDBRANCH  23  25
ENDBRANCH  14  23
TORSDOF 11
ENDMDL
MODEL 7
REMARK VINA RESULT:      -6.5     29.644     32.890
REMARK  Name = 44716941
REMARK  16 active torsions:
REMARK  status: ('A' for Active; 'I' for Inactive)
REMARK    1  A    between atoms: O_1  and  C_17
REMARK    2  A    between atoms: O_1  and  C_26
REMARK    3  A    between atoms: O_2  and  C_18
REMARK    4  A    between atoms: O_3  and  C_22
REMARK    5  A    between atoms: O_6  and  C_34
REMARK    6  A    between atoms: O_6  and  C_37
REMARK    7  A    between atoms: O_7  and  C_35
REMARK    8  A    between atoms: O_7  and  C_38
REMARK    9  A    between atoms: O_8  and  C_36
REMARK   10  A    between atoms: O_8  and  C_39
REMARK   11  A    between atoms: N_10  and  C_31
REMARK   12  A    between atoms: C_11  and  C_21
REMARK   13  A    between atoms: C_13  and  C_22
REMARK   14  A    between atoms: C_13  and  C_24
REMARK   15  A    between atoms: C_14  and  C_23
REMARK   16  A    between atoms: C_23  and  C_25
REMARK                            x       y       z     vdW  Elec       q    Type
REMARK                         _______ _______ _______ _____ _____    ______ ____
ROOT
ATOM     11  C   UNL     1      -7.392 -10.536  18.036  0.00  0.00    -0.023 C 
ATOM     12  C   UNL     1      -6.800 -11.996  18.125  0.00  0.00    +0.007 C 
ATOM     13  C   UNL     1      -5.244 -12.143  17.913  0.00  0.00    +0.031 C 
ATOM     14  C   UNL     1      -8.969 -10.680  17.957  0.00  0.00    +0.032 C 
ATOM     15  C   UNL     1      -6.873  -9.876  16.730  0.00  0.00    +0.011 C 
ATOM     16  C   UNL     1      -7.355 -12.741  19.359  0.00  0.00    +0.007 C 
ATOM     17  C   UNL     1      -4.836 -11.374  16.621  0.00  0.00    +0.186 C 
ATOM     18  C   UNL     1      -9.571 -11.497  19.123  0.00  0.00    +0.119 C 
ATOM     19  C   UNL     1      -5.359  -9.943  16.565  0.00  0.00    +0.046 C 
ATOM     20  C   UNL     1      -8.880 -12.847  19.303  0.00  0.00    +0.032 C 
ATOM     21  C   UNL     1      -6.988  -9.630  19.223  0.00  0.00    +0.012 C 
ATOM     24  C   UNL     1      -4.901 -13.644  17.690  0.00  0.00    +0.017 C 
ENDROOT
BRANCH  18   2
ATOM      2  O   UNL     1      -9.514 -10.762  20.341  0.00  0.00    -0.391 OA
ATOM     40  H   UNL     1      -8.685 -10.253  20.342  0.00  0.00    +0.210 HD
ENDBRANCH  18   2
BRANCH  17   1
ATOM      1  O   UNL     1      -3.419 -11.308  16.467  0.00  0.00    -0.446 OA
BRANCH   1  26
ATOM      5  O   UNL     1      -1.746 -11.456  14.915  0.00  0.00    -0.226 OA
ATOM     10  N   UNL     1      -3.990 -11.836  14.366  0.00  0.00    -0.251 N 
ATOM     26  C   UNL     1      -2.935 -11.529  15.203  0.00  0.00    +0.405 C 
ATOM     42  H   UNL     1      -4.913 -11.850  14.794  0.00  0.00    +0.158 HD
BRANCH  10  31
ATOM     31  C   UNL     1      -3.947 -12.136  12.985  0.00  0.00    +0.044 A 
ATOM     32  C   UNL     1      -3.881 -13.463  12.561  0.00  0.00    +0.073 A 
ATOM     33  C   UNL     1      -3.970 -11.104  12.047  0.00  0.00    +0.073 A 
ATOM     34  C   UNL     1      -3.927 -11.399  10.685  0.00  0.00    +0.167 A 
ATOM     35  C   UNL     1      -3.840 -13.758  11.198  0.00  0.00    +0.167 A 
ATOM     36  C   UNL     1      -3.862 -12.726  10.260  0.00  0.00    +0.204 A 
BRANCH  34   6
ATOM      6  O   UNL     1      -3.949 -10.381   9.778  0.00  0.00    -0.491 OA
ATOM     37  C   UNL     1      -3.349  -9.150  10.173  0.00  0.00    +0.277 C 
ENDBRANCH  34   6
BRANCH  35   7
ATOM      7  O   UNL     1      -3.775 -15.058  10.797  0.00  0.00    -0.491 OA
ATOM     38  C   UNL     1      -2.652 -15.817  11.239  0.00  0.00    +0.277 C 
ENDBRANCH  35   7
BRANCH  36   8
ATOM      8  O   UNL     1      -3.819 -13.014   8.929  0.00  0.00    -0.488 OA
ATOM     39  C   UNL     1      -5.069 -13.190   8.265  0.00  0.00    +0.277 C 
ENDBRANCH  36   8
ENDBRANCH  10  31
ENDBRANCH   1  26
ENDBRANCH  17   1
BRANCH  13  22
ATOM     22  C   UNL     1      -4.399 -11.697  19.124  0.00  0.00    +0.166 C 
BRANCH  22   3
ATOM      3  O   UNL     1      -3.288 -12.561  19.221  0.00  0.00    -0.394 OA
ATOM     41  H   UNL     1      -2.488 -12.012  19.164  0.00  0.00    +0.209 HD
ENDBRANCH  22   3
ENDBRANCH  13  22
BRANCH  14  23
ATOM     23  C   UNL     1      -9.732  -9.356  17.798  0.00  0.00    +0.102 C 
BRANCH  23  25
ATOM      4  O   UNL     1     -10.813 -10.484  16.000  0.00  0.00    -0.276 OA
ATOM      9  N   UNL     1     -11.089  -8.194  16.128  0.00  0.00    -0.301 N 
ATOM     25  C   UNL     1     -10.593  -9.409  16.562  0.00  0.00    +0.216 C 
ATOM     27  C   UNL     1     -11.931  -8.075  14.946  0.00  0.00    +0.108 C 
ATOM     28  C   UNL     1     -10.870  -6.891  16.748  0.00  0.00    +0.108 C 
ATOM     29  C   UNL     1     -12.502  -6.668  15.026  0.00  0.00    +0.020 C 
ATOM     30  C   UNL     1     -11.394  -5.891  15.726  0.00  0.00    +0.020 C 
ENDBRANCH  23  25
ENDBRANCH  14  23
TORSDOF 11
ENDMDL
MODEL 8
REMARK VINA RESULT:      -6.5     29.548     32.738
REMARK  Name = 44716941
REMARK  16 active torsions:
REMARK  status: ('A' for Active; 'I' for Inactive)
REMARK    1  A    between atoms: O_1  and  C_17
REMARK    2  A    between atoms: O_1  and  C_26
REMARK    3  A    between atoms: O_2  and  C_18
REMARK    4  A    between atoms: O_3  and  C_22
REMARK    5  A    between atoms: O_6  and  C_34
REMARK    6  A    between atoms: O_6  and  C_37
REMARK    7  A    between atoms: O_7  and  C_35
REMARK    8  A    between atoms: O_7  and  C_38
REMARK    9  A    between atoms: O_8  and  C_36
REMARK   10  A    between atoms: O_8  and  C_39
REMARK   11  A    between atoms: N_10  and  C_31
REMARK   12  A    between atoms: C_11  and  C_21
REMARK   13  A    between atoms: C_13  and  C_22
REMARK   14  A    between atoms: C_13  and  C_24
REMARK   15  A    between atoms: C_14  and  C_23
REMARK   16  A    between atoms: C_23  and  C_25
REMARK                            x       y       z     vdW  Elec       q    Type
REMARK                         _______ _______ _______ _____ _____    ______ ____
ROOT
ATOM     11  C   UNL     1      -7.282 -10.467  17.973  0.00  0.00    -0.023 C 
ATOM     12  C   UNL     1      -6.712 -11.934  18.087  0.00  0.00    +0.007 C 
ATOM     13  C   UNL     1      -5.157 -12.106  17.893  0.00  0.00    +0.031 C 
ATOM     14  C   UNL     1      -8.860 -10.589  17.879  0.00  0.00    +0.032 C 
ATOM     15  C   UNL     1      -6.741  -9.831  16.664  0.00  0.00    +0.011 C 
ATOM     16  C   UNL     1      -7.291 -12.655  19.324  0.00  0.00    +0.007 C 
ATOM     17  C   UNL     1      -4.725 -11.360  16.595  0.00  0.00    +0.186 C 
ATOM     18  C   UNL     1      -9.486 -11.383  19.049  0.00  0.00    +0.119 C 
ATOM     19  C   UNL     1      -5.226  -9.922  16.516  0.00  0.00    +0.046 C 
ATOM     20  C   UNL     1      -8.816 -12.739  19.254  0.00  0.00    +0.032 C 
ATOM     21  C   UNL     1      -6.877  -9.551  19.153  0.00  0.00    +0.012 C 
ATOM     24  C   UNL     1      -4.833 -13.615  17.693  0.00  0.00    +0.017 C 
ENDROOT
BRANCH  18   2
ATOM      2  O   UNL     1      -9.431 -10.632  20.259  0.00  0.00    -0.391 OA
ATOM     40  H   UNL     1      -9.619 -11.240  20.994  0.00  0.00    +0.210 HD
ENDBRANCH  18   2
BRANCH  17   1
ATOM      1  O   UNL     1      -3.305 -11.316  16.456  0.00  0.00    -0.446 OA
BRANCH   1  26
ATOM      5  O   UNL     1      -1.623 -11.389  14.908  0.00  0.00    -0.226 OA
ATOM     10  N   UNL     1      -3.877 -11.572  14.305  0.00  0.00    -0.251 N 
ATOM     26  C   UNL     1      -2.817 -11.424  15.179  0.00  0.00    +0.405 C 
ATOM     42  H   UNL     1      -4.805 -11.578  14.722  0.00  0.00    +0.158 HD
BRANCH  10  31
ATOM     31  C   UNL     1      -3.834 -11.717  12.899  0.00  0.00    +0.044 A 
ATOM     32  C   UNL     1      -3.673 -10.595  12.087  0.00  0.00    +0.073 A 
ATOM     33  C   UNL     1      -3.951 -12.983  12.325  0.00  0.00    +0.073 A 
ATOM     34  C   UNL     1      -3.909 -13.126  10.939  0.00  0.00    +0.167 A 
ATOM     35  C   UNL     1      -3.630 -10.738  10.700  0.00  0.00    +0.167 A 
ATOM     36  C   UNL     1      -3.748 -12.004  10.126  0.00  0.00    +0.204 A 
BRANCH  34   6
ATOM      6  O   UNL     1      -4.026 -14.368  10.390  0.00  0.00    -0.491 OA
ATOM     37  C   UNL     1      -3.338 -15.431  11.044  0.00  0.00    +0.277 C 
ENDBRANCH  34   6
BRANCH  35   7
ATOM      7  O   UNL     1      -3.473  -9.634   9.917  0.00  0.00    -0.491 OA
ATOM     38  C   UNL     1      -4.595  -8.763   9.795  0.00  0.00    +0.277 C 
ENDBRANCH  35   7
BRANCH  36   8
ATOM      8  O   UNL     1      -3.707 -12.144   8.770  0.00  0.00    -0.488 OA
ATOM     39  C   UNL     1      -4.951 -12.083   8.077  0.00  0.00    +0.277 C 
ENDBRANCH  36   8
ENDBRANCH  10  31
ENDBRANCH   1  26
ENDBRANCH  17   1
BRANCH  13  22
ATOM     22  C   UNL     1      -4.317 -11.657  19.107  0.00  0.00    +0.166 C 
BRANCH  22   3
ATOM      3  O   UNL     1      -3.330 -12.636  19.339  0.00  0.00    -0.394 OA
ATOM     41  H   UNL     1      -2.591 -12.453  18.733  0.00  0.00    +0.209 HD
ENDBRANCH  22   3
ENDBRANCH  13  22
BRANCH  14  23
ATOM     23  C   UNL     1      -9.602  -9.256  17.696  0.00  0.00    +0.102 C 
BRANCH  23  25
ATOM      4  O   UNL     1     -10.576 -10.362  15.824  0.00  0.00    -0.276 OA
ATOM      9  N   UNL     1     -10.972  -8.096  16.036  0.00  0.00    -0.301 N 
ATOM     25  C   UNL     1     -10.426  -9.302  16.434  0.00  0.00    +0.216 C 
ATOM     27  C   UNL     1     -11.787  -7.971  14.836  0.00  0.00    +0.108 C 
ATOM     28  C   UNL     1     -10.837  -6.810  16.713  0.00  0.00    +0.108 C 
ATOM     29  C   UNL     1     -12.432  -6.598  14.955  0.00  0.00    +0.020 C 
ATOM     30  C   UNL     1     -11.384  -5.797  15.717  0.00  0.00    +0.020 C 
ENDBRANCH  23  25
ENDBRANCH  14  23
TORSDOF 11
ENDMDL
MODEL 9
REMARK VINA RESULT:      -6.4      2.676     10.374
REMARK  Name = 44716941
REMARK  16 active torsions:
REMARK  status: ('A' for Active; 'I' for Inactive)
REMARK    1  A    between atoms: O_1  and  C_17
REMARK    2  A    between atoms: O_1  and  C_26
REMARK    3  A    between atoms: O_2  and  C_18
REMARK    4  A    between atoms: O_3  and  C_22
REMARK    5  A    between atoms: O_6  and  C_34
REMARK    6  A    between atoms: O_6  and  C_37
REMARK    7  A    between atoms: O_7  and  C_35
REMARK    8  A    between atoms: O_7  and  C_38
REMARK    9  A    between atoms: O_8  and  C_36
REMARK   10  A    between atoms: O_8  and  C_39
REMARK   11  A    between atoms: N_10  and  C_31
REMARK   12  A    between atoms: C_11  and  C_21
REMARK   13  A    between atoms: C_13  and  C_22
REMARK   14  A    between atoms: C_13  and  C_24
REMARK   15  A    between atoms: C_14  and  C_23
REMARK   16  A    between atoms: C_23  and  C_25
REMARK                            x       y       z     vdW  Elec       q    Type
REMARK                         _______ _______ _______ _____ _____    ______ ____
ROOT
ATOM     11  C   UNL     1      14.524   9.728  18.835  0.00  0.00    -0.023 C 
ATOM     12  C   UNL     1      14.852   8.224  19.182  0.00  0.00    +0.007 C 
ATOM     13  C   UNL     1      15.566   7.955  20.562  0.00  0.00    +0.031 C 
ATOM     14  C   UNL     1      14.120   9.773  17.303  0.00  0.00    +0.032 C 
ATOM     15  C   UNL     1      15.810  10.572  19.049  0.00  0.00    +0.011 C 
ATOM     16  C   UNL     1      13.634   7.316  18.898  0.00  0.00    +0.007 C 
ATOM     17  C   UNL     1      16.787   8.913  20.693  0.00  0.00    +0.186 C 
ATOM     18  C   UNL     1      12.963   8.813  16.944  0.00  0.00    +0.119 C 
ATOM     19  C   UNL     1      16.455  10.375  20.416  0.00  0.00    +0.046 C 
ATOM     20  C   UNL     1      13.219   7.388  17.428  0.00  0.00    +0.032 C 
ATOM     21  C   UNL     1      13.403  10.336  19.711  0.00  0.00    +0.012 C 
ATOM     24  C   UNL     1      16.113   6.498  20.576  0.00  0.00    +0.017 C 
ENDROOT
BRANCH  18   2
ATOM      2  O   UNL     1      11.728   9.286  17.473  0.00  0.00    -0.391 OA
ATOM     40  H   UNL     1      11.848   9.424  18.429  0.00  0.00    +0.210 HD
ENDBRANCH  18   2
BRANCH  17   1
ATOM      1  O   UNL     1      17.370   8.855  21.994  0.00  0.00    -0.446 OA
BRANCH   1  26
ATOM      5  O   UNL     1      19.409   9.786  22.445  0.00  0.00    -0.226 OA
ATOM     10  N   UNL     1      19.194   7.620  21.584  0.00  0.00    -0.251 N 
ATOM     26  C   UNL     1      18.740   8.841  22.045  0.00  0.00    +0.405 C 
ATOM     42  H   UNL     1      18.480   6.956  21.294  0.00  0.00    +0.158 HD
BRANCH  10  31
ATOM     31  C   UNL     1      20.531   7.176  21.465  0.00  0.00    +0.044 A 
ATOM     32  C   UNL     1      20.979   6.099  22.229  0.00  0.00    +0.073 A 
ATOM     33  C   UNL     1      21.403   7.817  20.585  0.00  0.00    +0.073 A 
ATOM     34  C   UNL     1      22.722   7.379  20.468  0.00  0.00    +0.167 A 
ATOM     35  C   UNL     1      22.298   5.661  22.112  0.00  0.00    +0.167 A 
ATOM     36  C   UNL     1      23.170   6.301  21.232  0.00  0.00    +0.204 A 
BRANCH  34   6
ATOM      6  O   UNL     1      23.564   8.014  19.605  0.00  0.00    -0.491 OA
ATOM     37  C   UNL     1      23.926   9.355  19.923  0.00  0.00    +0.277 C 
ENDBRANCH  34   6
BRANCH  35   7
ATOM      7  O   UNL     1      22.723   4.607  22.864  0.00  0.00    -0.491 OA
ATOM     38  C   UNL     1      22.202   3.322  22.530  0.00  0.00    +0.277 C 
ENDBRANCH  35   7
BRANCH  36   8
ATOM      8  O   UNL     1      24.459   5.874  21.119  0.00  0.00    -0.488 OA
ATOM     39  C   UNL     1      24.722   4.863  20.148  0.00  0.00    +0.277 C 
ENDBRANCH  36   8
ENDBRANCH  10  31
ENDBRANCH   1  26
ENDBRANCH  17   1
BRANCH  13  22
ATOM     22  C   UNL     1      14.632   8.061  21.785  0.00  0.00    +0.166 C 
BRANCH  22   3
ATOM      3  O   UNL     1      14.952   7.010  22.669  0.00  0.00    -0.394 OA
ATOM     41  H   UNL     1      14.277   6.320  22.555  0.00  0.00    +0.209 HD
ENDBRANCH  22   3
ENDBRANCH  13  22
BRANCH  14  23
ATOM     23  C   UNL     1      13.824  11.177  16.753  0.00  0.00    +0.102 C 
BRANCH  23  25
ATOM      4  O   UNL     1      13.099  10.860  14.506  0.00  0.00    -0.276 OA
ATOM      9  N   UNL     1      15.271  11.582  14.823  0.00  0.00    -0.301 N 
ATOM     25  C   UNL     1      14.018  11.190  15.258  0.00  0.00    +0.216 C 
ATOM     27  C   UNL     1      15.620  11.641  13.411  0.00  0.00    +0.108 C 
ATOM     28  C   UNL     1      16.397  11.987  15.658  0.00  0.00    +0.108 C 
ATOM     29  C   UNL     1      16.930  12.412  13.374  0.00  0.00    +0.020 C 
ATOM     30  C   UNL     1      17.580  12.038  14.700  0.00  0.00    +0.020 C 
ENDBRANCH  23  25
ENDBRANCH  14  23
TORSDOF 11
ENDMDL
MODEL 10
REMARK VINA RESULT:      -6.4      3.136      5.432
REMARK  Name = 44716941
REMARK  16 active torsions:
REMARK  status: ('A' for Active; 'I' for Inactive)
REMARK    1  A    between atoms: O_1  and  C_17
REMARK    2  A    between atoms: O_1  and  C_26
REMARK    3  A    between atoms: O_2  and  C_18
REMARK    4  A    between atoms: O_3  and  C_22
REMARK    5  A    between atoms: O_6  and  C_34
REMARK    6  A    between atoms: O_6  and  C_37
REMARK    7  A    between atoms: O_7  and  C_35
REMARK    8  A    between atoms: O_7  and  C_38
REMARK    9  A    between atoms: O_8  and  C_36
REMARK   10  A    between atoms: O_8  and  C_39
REMARK   11  A    between atoms: N_10  and  C_31
REMARK   12  A    between atoms: C_11  and  C_21
REMARK   13  A    between atoms: C_13  and  C_22
REMARK   14  A    between atoms: C_13  and  C_24
REMARK   15  A    between atoms: C_14  and  C_23
REMARK   16  A    between atoms: C_23  and  C_25
REMARK                            x       y       z     vdW  Elec       q    Type
REMARK                         _______ _______ _______ _____ _____    ______ ____
ROOT
ATOM     11  C   UNL     1      21.620   6.408  23.820  0.00  0.00    -0.023 C 
ATOM     12  C   UNL     1      21.553   5.182  22.829  0.00  0.00    +0.007 C 
ATOM     13  C   UNL     1      21.019   5.475  21.375  0.00  0.00    +0.031 C 
ATOM     14  C   UNL     1      21.868   5.819  25.271  0.00  0.00    +0.032 C 
ATOM     15  C   UNL     1      20.248   7.136  23.793  0.00  0.00    +0.011 C 
ATOM     16  C   UNL     1      22.861   4.360  22.882  0.00  0.00    +0.007 C 
ATOM     17  C   UNL     1      19.686   6.276  21.480  0.00  0.00    +0.186 C 
ATOM     18  C   UNL     1      23.117   4.912  25.360  0.00  0.00    +0.119 C 
ATOM     19  C   UNL     1      19.770   7.495  22.391  0.00  0.00    +0.046 C 
ATOM     20  C   UNL     1      23.121   3.823  24.290  0.00  0.00    +0.032 C 
ATOM     21  C   UNL     1      22.715   7.440  23.458  0.00  0.00    +0.012 C 
ATOM     24  C   UNL     1      20.699   4.126  20.669  0.00  0.00    +0.017 C 
ENDROOT
BRANCH  18   2
ATOM      2  O   UNL     1      24.312   5.682  25.268  0.00  0.00    -0.391 OA
ATOM     40  H   UNL     1      24.154   6.529  25.721  0.00  0.00    +0.210 HD
ENDBRANCH  18   2
BRANCH  17   1
ATOM      1  O   UNL     1      19.243   6.736  20.204  0.00  0.00    -0.446 OA
BRANCH   1  26
ATOM      5  O   UNL     1      17.766   5.223  19.331  0.00  0.00    -0.226 OA
ATOM     10  N   UNL     1      17.092   7.345  20.055  0.00  0.00    -0.251 N 
ATOM     26  C   UNL     1      17.993   6.326  19.812  0.00  0.00    +0.405 C 
ATOM     42  H   UNL     1      17.473   8.194  20.464  0.00  0.00    +0.158 HD
BRANCH  10  31
ATOM     31  C   UNL     1      15.700   7.353  19.805  0.00  0.00    +0.044 A 
ATOM     32  C   UNL     1      15.227   7.458  18.498  0.00  0.00    +0.073 A 
ATOM     33  C   UNL     1      14.800   7.257  20.867  0.00  0.00    +0.073 A 
ATOM     34  C   UNL     1      13.428   7.266  20.621  0.00  0.00    +0.167 A 
ATOM     35  C   UNL     1      13.854   7.466  18.251  0.00  0.00    +0.167 A 
ATOM     36  C   UNL     1      12.954   7.370  19.313  0.00  0.00    +0.204 A 
BRANCH  34   6
ATOM      6  O   UNL     1      12.560   7.173  21.667  0.00  0.00    -0.491 OA
ATOM     37  C   UNL     1      11.652   6.074  21.659  0.00  0.00    +0.277 C 
ENDBRANCH  34   6
BRANCH  35   7
ATOM      7  O   UNL     1      13.404   7.569  16.970  0.00  0.00    -0.491 OA
ATOM     38  C   UNL     1      13.420   8.868  16.380  0.00  0.00    +0.277 C 
ENDBRANCH  35   7
BRANCH  36   8
ATOM      8  O   UNL     1      11.613   7.380  19.073  0.00  0.00    -0.488 OA
ATOM     39  C   UNL     1      10.946   8.636  19.179  0.00  0.00    +0.277 C 
ENDBRANCH  36   8
ENDBRANCH  10  31
ENDBRANCH   1  26
ENDBRANCH  17   1
BRANCH  13  22
ATOM     22  C   UNL     1      22.037   6.192  20.463  0.00  0.00    +0.166 C 
BRANCH  22   3
ATOM      3  O   UNL     1      22.439   5.283  19.462  0.00  0.00    -0.394 OA
ATOM     41  H   UNL     1      23.349   5.010  19.668  0.00  0.00    +0.209 HD
ENDBRANCH  22   3
ENDBRANCH  13  22
BRANCH  14  23
ATOM     23  C   UNL     1      21.899   6.864  26.397  0.00  0.00    +0.102 C 
BRANCH  23  25
ATOM      4  O   UNL     1      19.973   5.690  27.164  0.00  0.00    -0.276 OA
ATOM      9  N   UNL     1      20.794   7.373  28.519  0.00  0.00    -0.301 N 
ATOM     25  C   UNL     1      20.799   6.578  27.387  0.00  0.00    +0.216 C 
ATOM     27  C   UNL     1      19.794   7.227  29.566  0.00  0.00    +0.108 C 
ATOM     28  C   UNL     1      21.742   8.434  28.843  0.00  0.00    +0.108 C 
ATOM     29  C   UNL     1      20.341   8.039  30.731  0.00  0.00    +0.020 C 
ATOM     30  C   UNL     1      21.118   9.150  30.034  0.00  0.00    +0.020 C 
ENDBRANCH  23  25
ENDBRANCH  14  23
TORSDOF 11
ENDMDL
