MODEL 1
REMARK VINA RESULT:      -6.7      0.000      0.000
REMARK  Name = 11882868
REMARK  10 active torsions:
REMARK  status: ('A' for Active; 'I' for Inactive)
REMARK    1  A    between atoms: O_3  and  C_15
REMARK    2  A    between atoms: O_4  and  C_20
REMARK    3  A    between atoms: N_8  and  C_26
REMARK    4  A    between atoms: C_10  and  C_18
REMARK    5  A    between atoms: C_12  and  C_20
REMARK    6  A    between atoms: C_12  and  C_21
REMARK    7  A    between atoms: C_13  and  C_23
REMARK    8  A    between atoms: C_23  and  C_24
REMARK    9  A    between atoms: C_26  and  C_28
REMARK   10  A    between atoms: C_27  and  C_29
REMARK                            x       y       z     vdW  Elec       q    Type
REMARK                         _______ _______ _______ _____ _____    ______ ____
ROOT
ATOM      1  S   UNL     1      15.371   8.056   6.214  0.00  0.00    -0.057 S 
ATOM      6  O   UNL     1      12.723   6.498   2.761  0.00  0.00    -0.269 OA
ATOM      7  N   UNL     1      15.297   7.509   3.687  0.00  0.00    -0.229 NA
ATOM      9  N   UNL     1      13.275   7.127   4.942  0.00  0.00    -0.260 N 
ATOM     10  C   UNL     1      18.840   9.004   3.393  0.00  0.00    -0.019 C 
ATOM     11  C   UNL     1      19.230   8.571   4.875  0.00  0.00    +0.011 C 
ATOM     12  C   UNL     1      20.635   9.048   5.412  0.00  0.00    +0.021 C 
ATOM     13  C   UNL     1      17.630   8.078   2.912  0.00  0.00    +0.054 C 
ATOM     14  C   UNL     1      20.046   8.761   2.450  0.00  0.00    +0.010 C 
ATOM     15  C   UNL     1      21.717   8.774   4.329  0.00  0.00    +0.123 C 
ATOM     16  C   UNL     1      18.060   8.826   5.869  0.00  0.00    +0.049 C 
ATOM     17  C   UNL     1      21.356   9.343   2.962  0.00  0.00    +0.032 C 
ATOM     18  C   UNL     1      18.421  10.492   3.291  0.00  0.00    +0.012 C 
ATOM     19  C   UNL     1      16.564   7.983   3.974  0.00  0.00    +0.058 A 
ATOM     21  C   UNL     1      21.011   8.205   6.664  0.00  0.00    +0.016 C 
ATOM     22  C   UNL     1      16.784   8.306   5.297  0.00  0.00    +0.015 A 
ATOM     25  C   UNL     1      14.581   7.511   4.791  0.00  0.00    +0.165 A 
ATOM     27  C   UNL     1      12.405   6.642   3.939  0.00  0.00    +0.256 C 
ATOM     41  H   UNL     1      12.932   7.219   5.892  0.00  0.00    +0.157 HD
ENDROOT
BRANCH  27  29
ATOM      2  S   UNL     1       9.912   7.637   4.533  0.00  0.00    -0.092 S 
ATOM     29  C   UNL     1      11.033   6.351   4.391  0.00  0.00    +0.074 A 
ATOM     32  C   UNL     1      10.476   5.139   4.735  0.00  0.00    +0.021 A 
ATOM     35  C   UNL     1       9.110   5.268   5.122  0.00  0.00    +0.008 A 
ATOM     37  C   UNL     1       8.676   6.574   5.058  0.00  0.00    +0.046 A 
ENDBRANCH  27  29
BRANCH  15   3
ATOM      3  O   UNL     1      22.978   9.309   4.732  0.00  0.00    -0.391 OA
ATOM     38  H   UNL     1      22.823   9.876   5.505  0.00  0.00    +0.210 HD
ENDBRANCH  15   3
BRANCH  12  20
ATOM     20  C   UNL     1      20.678  10.521   5.875  0.00  0.00    +0.165 C 
BRANCH  20   4
ATOM      4  O   UNL     1      21.570  10.604   6.964  0.00  0.00    -0.394 OA
ATOM     39  H   UNL     1      22.082   9.778   6.983  0.00  0.00    +0.209 HD
ENDBRANCH  20   4
ENDBRANCH  12  20
BRANCH  13  23
ATOM     23  C   UNL     1      17.033   8.464   1.552  0.00  0.00    +0.106 C 
BRANCH  23  24
ATOM      5  O   UNL     1      18.063   7.369  -0.345  0.00  0.00    -0.276 OA
ATOM      8  N   UNL     1      16.250   6.368   0.710  0.00  0.00    -0.311 N 
ATOM     24  C   UNL     1      17.199   7.364   0.528  0.00  0.00    +0.214 C 
ATOM     40  H   UNL     1      15.564   6.469   1.452  0.00  0.00    +0.149 HD
BRANCH   8  26
ATOM     26  C   UNL     1      16.168   5.193  -0.126  0.00  0.00    +0.139 C 
BRANCH  26  28
ATOM     28  C   UNL     1      14.933   4.388   0.156  0.00  0.00    -0.030 A 
ATOM     30  C   UNL     1      14.052   4.076  -0.881  0.00  0.00    +0.005 A 
ATOM     31  C   UNL     1      14.664   3.952   1.453  0.00  0.00    +0.005 A 
ATOM     33  C   UNL     1      12.905   3.327  -0.620  0.00  0.00    +0.000 A 
ATOM     34  C   UNL     1      13.516   3.203   1.714  0.00  0.00    +0.000 A 
ATOM     36  C   UNL     1      12.637   2.891   0.678  0.00  0.00    +0.000 A 
ENDBRANCH  26  28
ENDBRANCH   8  26
ENDBRANCH  23  24
ENDBRANCH  13  23
TORSDOF 8
ENDMDL
MODEL 2
REMARK VINA RESULT:      -6.7     14.763     17.204
REMARK  Name = 11882868
REMARK  10 active torsions:
REMARK  status: ('A' for Active; 'I' for Inactive)
REMARK    1  A    between atoms: O_3  and  C_15
REMARK    2  A    between atoms: O_4  and  C_20
REMARK    3  A    between atoms: N_8  and  C_26
REMARK    4  A    between atoms: C_10  and  C_18
REMARK    5  A    between atoms: C_12  and  C_20
REMARK    6  A    between atoms: C_12  and  C_21
REMARK    7  A    between atoms: C_13  and  C_23
REMARK    8  A    between atoms: C_23  and  C_24
REMARK    9  A    between atoms: C_26  and  C_28
REMARK   10  A    between atoms: C_27  and  C_29
REMARK                            x       y       z     vdW  Elec       q    Type
REMARK                         _______ _______ _______ _____ _____    ______ ____
ROOT
ATOM      1  S   UNL     1      20.811  -5.204   1.041  0.00  0.00    -0.057 S 
ATOM      6  O   UNL     1      17.989  -6.496  -2.385  0.00  0.00    -0.269 OA
ATOM      7  N   UNL     1      19.577  -7.203  -0.043  0.00  0.00    -0.229 NA
ATOM      9  N   UNL     1      19.273  -5.046  -1.078  0.00  0.00    -0.260 N 
ATOM     10  C   UNL     1      21.425  -9.515   2.429  0.00  0.00    -0.019 C 
ATOM     11  C   UNL     1      21.483  -8.393   3.557  0.00  0.00    +0.011 C 
ATOM     12  C   UNL     1      22.287  -8.739   4.869  0.00  0.00    +0.021 C 
ATOM     13  C   UNL     1      20.238  -9.145   1.426  0.00  0.00    +0.054 C 
ATOM     14  C   UNL     1      21.106 -10.885   3.080  0.00  0.00    +0.010 C 
ATOM     15  C   UNL     1      21.881 -10.158   5.359  0.00  0.00    +0.123 C 
ATOM     16  C   UNL     1      21.833  -7.000   2.957  0.00  0.00    +0.049 C 
ATOM     17  C   UNL     1      21.989 -11.222   4.273  0.00  0.00    +0.032 C 
ATOM     18  C   UNL     1      22.749  -9.639   1.635  0.00  0.00    +0.012 C 
ATOM     19  C   UNL     1      20.290  -7.689   1.038  0.00  0.00    +0.058 A 
ATOM     21  C   UNL     1      21.889  -7.733   5.987  0.00  0.00    +0.016 C 
ATOM     22  C   UNL     1      20.997  -6.741   1.749  0.00  0.00    +0.015 A 
ATOM     25  C   UNL     1      19.783  -5.907  -0.142  0.00  0.00    +0.165 A 
ATOM     27  C   UNL     1      18.408  -5.364  -2.149  0.00  0.00    +0.256 C 
ATOM     41  H   UNL     1      19.576  -4.087  -0.955  0.00  0.00    +0.157 HD
ENDROOT
BRANCH  27  29
ATOM      2  S   UNL     1      18.736  -4.159  -4.598  0.00  0.00    -0.092 S 
ATOM     29  C   UNL     1      18.060  -4.233  -3.026  0.00  0.00    +0.074 A 
ATOM     32  C   UNL     1      17.228  -3.165  -2.770  0.00  0.00    +0.021 A 
ATOM     35  C   UNL     1      17.146  -2.273  -3.879  0.00  0.00    +0.008 A 
ATOM     37  C   UNL     1      17.917  -2.694  -4.940  0.00  0.00    +0.046 A 
ENDBRANCH  27  29
BRANCH  15   3
ATOM      3  O   UNL     1      22.683 -10.554   6.472  0.00  0.00    -0.391 OA
ATOM     38  H   UNL     1      22.598 -11.517   6.567  0.00  0.00    +0.210 HD
ENDBRANCH  15   3
BRANCH  12  20
ATOM     20  C   UNL     1      23.821  -8.621   4.731  0.00  0.00    +0.165 C 
BRANCH  20   4
ATOM      4  O   UNL     1      24.341  -8.272   5.994  0.00  0.00    -0.394 OA
ATOM     39  H   UNL     1      25.231  -7.906   5.850  0.00  0.00    +0.209 HD
ENDBRANCH  20   4
ENDBRANCH  12  20
BRANCH  13  23
ATOM     23  C   UNL     1      20.139 -10.051   0.192  0.00  0.00    +0.106 C 
BRANCH  23  24
ATOM      5  O   UNL     1      18.655 -11.785  -0.613  0.00  0.00    -0.276 OA
ATOM      8  N   UNL     1      18.111 -10.618   1.322  0.00  0.00    -0.311 N 
ATOM     24  C   UNL     1      18.906 -10.925   0.227  0.00  0.00    +0.214 C 
ATOM     40  H   UNL     1      18.399  -9.872   1.949  0.00  0.00    +0.149 HD
BRANCH   8  26
ATOM     26  C   UNL     1      16.867 -11.293   1.608  0.00  0.00    +0.139 C 
BRANCH  26  28
ATOM     28  C   UNL     1      16.868 -11.921   2.971  0.00  0.00    -0.030 A 
ATOM     30  C   UNL     1      17.945 -12.712   3.374  0.00  0.00    +0.005 A 
ATOM     31  C   UNL     1      15.793 -11.713   3.836  0.00  0.00    +0.005 A 
ATOM     33  C   UNL     1      17.946 -13.295   4.641  0.00  0.00    +0.000 A 
ATOM     34  C   UNL     1      15.795 -12.297   5.104  0.00  0.00    +0.000 A 
ATOM     36  C   UNL     1      16.871 -13.087   5.506  0.00  0.00    +0.000 A 
ENDBRANCH  26  28
ENDBRANCH   8  26
ENDBRANCH  23  24
ENDBRANCH  13  23
TORSDOF 8
ENDMDL
MODEL 3
REMARK VINA RESULT:      -6.6     39.150     42.366
REMARK  Name = 11882868
REMARK  10 active torsions:
REMARK  status: ('A' for Active; 'I' for Inactive)
REMARK    1  A    between atoms: O_3  and  C_15
REMARK    2  A    between atoms: O_4  and  C_20
REMARK    3  A    between atoms: N_8  and  C_26
REMARK    4  A    between atoms: C_10  and  C_18
REMARK    5  A    between atoms: C_12  and  C_20
REMARK    6  A    between atoms: C_12  and  C_21
REMARK    7  A    between atoms: C_13  and  C_23
REMARK    8  A    between atoms: C_23  and  C_24
REMARK    9  A    between atoms: C_26  and  C_28
REMARK   10  A    between atoms: C_27  and  C_29
REMARK                            x       y       z     vdW  Elec       q    Type
REMARK                         _______ _______ _______ _____ _____    ______ ____
ROOT
ATOM      1  S   UNL     1      -6.274   8.097  41.997  0.00  0.00    -0.057 S 
ATOM      6  O   UNL     1      -9.333  10.425  39.429  0.00  0.00    -0.269 OA
ATOM      7  N   UNL     1      -6.679   9.249  39.716  0.00  0.00    -0.229 NA
ATOM      9  N   UNL     1      -8.502   9.287  41.293  0.00  0.00    -0.260 N 
ATOM     10  C   UNL     1      -2.969   8.610  38.882  0.00  0.00    -0.019 C 
ATOM     11  C   UNL     1      -2.922   7.276  39.750  0.00  0.00    +0.011 C 
ATOM     12  C   UNL     1      -1.520   6.568  39.899  0.00  0.00    +0.021 C 
ATOM     13  C   UNL     1      -4.494   8.899  38.504  0.00  0.00    +0.054 C 
ATOM     14  C   UNL     1      -2.172   8.398  37.569  0.00  0.00    +0.010 C 
ATOM     15  C   UNL     1      -0.841   6.479  38.503  0.00  0.00    +0.123 C 
ATOM     16  C   UNL     1      -3.683   7.448  41.098  0.00  0.00    +0.049 C 
ATOM     17  C   UNL     1      -0.780   7.819  37.779  0.00  0.00    +0.032 C 
ATOM     18  C   UNL     1      -2.382   9.834  39.626  0.00  0.00    +0.012 C 
ATOM     19  C   UNL     1      -5.388   8.754  39.709  0.00  0.00    +0.058 A 
ATOM     21  C   UNL     1      -1.739   5.112  40.400  0.00  0.00    +0.016 C 
ATOM     22  C   UNL     1      -5.010   8.083  40.855  0.00  0.00    +0.015 A 
ATOM     25  C   UNL     1      -7.237   8.968  40.874  0.00  0.00    +0.165 A 
ATOM     27  C   UNL     1      -9.490   9.992  40.568  0.00  0.00    +0.256 C 
ATOM     41  H   UNL     1      -8.712   8.967  42.232  0.00  0.00    +0.157 HD
ENDROOT
BRANCH  27  29
ATOM      2  S   UNL     1     -10.694  11.011  42.820  0.00  0.00    -0.092 S 
ATOM     29  C   UNL     1     -10.748  10.229  41.298  0.00  0.00    +0.074 A 
ATOM     32  C   UNL     1     -12.035   9.904  40.928  0.00  0.00    +0.021 A 
ATOM     35  C   UNL     1     -12.990  10.303  41.909  0.00  0.00    +0.008 A 
ATOM     37  C   UNL     1     -12.396  10.916  42.990  0.00  0.00    +0.046 A 
ENDBRANCH  27  29
BRANCH  15   3
ATOM      3  O   UNL     1       0.483   5.960  38.620  0.00  0.00    -0.391 OA
ATOM     38  H   UNL     1       0.709   5.941  39.565  0.00  0.00    +0.210 HD
ENDBRANCH  15   3
BRANCH  12  20
ATOM     20  C   UNL     1      -0.577   7.225  40.931  0.00  0.00    +0.165 C 
BRANCH  20   4
ATOM      4  O   UNL     1       0.158   6.198  41.557  0.00  0.00    -0.394 OA
ATOM     39  H   UNL     1      -0.466   5.680  42.094  0.00  0.00    +0.209 HD
ENDBRANCH  20   4
ENDBRANCH  12  20
BRANCH  13  23
ATOM     23  C   UNL     1      -4.732  10.234  37.787  0.00  0.00    +0.106 C 
BRANCH  23  24
ATOM      5  O   UNL     1      -4.963   9.945  35.395  0.00  0.00    -0.276 OA
ATOM      8  N   UNL     1      -6.865  10.039  36.727  0.00  0.00    -0.311 N 
ATOM     24  C   UNL     1      -5.497  10.056  36.495  0.00  0.00    +0.214 C 
ATOM     40  H   UNL     1      -7.207  10.159  37.676  0.00  0.00    +0.149 HD
BRANCH   8  26
ATOM     26  C   UNL     1      -7.843   9.884  35.675  0.00  0.00    +0.139 C 
BRANCH  26  28
ATOM     28  C   UNL     1      -9.068   9.157  36.148  0.00  0.00    -0.030 A 
ATOM     30  C   UNL     1     -10.325   9.517  35.660  0.00  0.00    +0.005 A 
ATOM     31  C   UNL     1      -8.950   8.121  37.074  0.00  0.00    +0.005 A 
ATOM     33  C   UNL     1     -11.463   8.842  36.099  0.00  0.00    +0.000 A 
ATOM     34  C   UNL     1     -10.090   7.446  37.513  0.00  0.00    +0.000 A 
ATOM     36  C   UNL     1     -11.345   7.805  37.026  0.00  0.00    +0.000 A 
ENDBRANCH  26  28
ENDBRANCH   8  26
ENDBRANCH  23  24
ENDBRANCH  13  23
TORSDOF 8
ENDMDL
MODEL 4
REMARK VINA RESULT:      -6.5     31.431     35.198
REMARK  Name = 11882868
REMARK  10 active torsions:
REMARK  status: ('A' for Active; 'I' for Inactive)
REMARK    1  A    between atoms: O_3  and  C_15
REMARK    2  A    between atoms: O_4  and  C_20
REMARK    3  A    between atoms: N_8  and  C_26
REMARK    4  A    between atoms: C_10  and  C_18
REMARK    5  A    between atoms: C_12  and  C_20
REMARK    6  A    between atoms: C_12  and  C_21
REMARK    7  A    between atoms: C_13  and  C_23
REMARK    8  A    between atoms: C_23  and  C_24
REMARK    9  A    between atoms: C_26  and  C_28
REMARK   10  A    between atoms: C_27  and  C_29
REMARK                            x       y       z     vdW  Elec       q    Type
REMARK                         _______ _______ _______ _____ _____    ______ ____
ROOT
ATOM      1  S   UNL     1     -10.087 -12.839  20.344  0.00  0.00    -0.057 S 
ATOM      6  O   UNL     1     -13.269  -9.537  19.761  0.00  0.00    -0.269 OA
ATOM      7  N   UNL     1     -10.649 -10.639  19.105  0.00  0.00    -0.229 NA
ATOM      9  N   UNL     1     -12.320 -11.492  20.618  0.00  0.00    -0.260 N 
ATOM     10  C   UNL     1      -7.058 -10.664  17.701  0.00  0.00    -0.019 C 
ATOM     11  C   UNL     1      -6.986 -12.255  17.698  0.00  0.00    +0.011 C 
ATOM     12  C   UNL     1      -5.606 -12.908  17.302  0.00  0.00    +0.021 C 
ATOM     13  C   UNL     1      -8.598 -10.240  17.691  0.00  0.00    +0.054 C 
ATOM     14  C   UNL     1      -6.391 -10.116  16.413  0.00  0.00    +0.010 C 
ATOM     15  C   UNL     1      -5.059 -12.213  16.023  0.00  0.00    +0.123 C 
ATOM     16  C   UNL     1      -7.615 -12.855  18.990  0.00  0.00    +0.049 C 
ATOM     17  C   UNL     1      -5.010 -10.694  16.139  0.00  0.00    +0.032 C 
ATOM     18  C   UNL     1      -6.358 -10.033  18.930  0.00  0.00    +0.012 C 
ATOM     19  C   UNL     1      -9.385 -11.030  18.705  0.00  0.00    +0.058 A 
ATOM     21  C   UNL     1      -5.836 -14.406  16.951  0.00  0.00    +0.016 C 
ATOM     22  C   UNL     1      -8.933 -12.210  19.261  0.00  0.00    +0.015 A 
ATOM     25  C   UNL     1     -11.112 -11.513  19.973  0.00  0.00    +0.165 A 
ATOM     27  C   UNL     1     -13.340 -10.523  20.492  0.00  0.00    +0.256 C 
ATOM     41  H   UNL     1     -12.457 -12.275  21.248  0.00  0.00    +0.157 HD
ENDROOT
BRANCH  27  29
ATOM      2  S   UNL     1     -14.516 -12.055  22.449  0.00  0.00    -0.092 S 
ATOM     29  C   UNL     1     -14.517 -10.740  21.352  0.00  0.00    +0.074 A 
ATOM     32  C   UNL     1     -15.684 -10.011  21.418  0.00  0.00    +0.021 A 
ATOM     35  C   UNL     1     -16.591 -10.540  22.383  0.00  0.00    +0.008 A 
ATOM     37  C   UNL     1     -16.082 -11.652  23.016  0.00  0.00    +0.046 A 
ENDBRANCH  27  29
BRANCH  15   3
ATOM      3  O   UNL     1      -3.751 -12.692  15.711  0.00  0.00    -0.391 OA
ATOM     38  H   UNL     1      -3.601 -13.499  16.231  0.00  0.00    +0.210 HD
ENDBRANCH  15   3
BRANCH  12  20
ATOM     20  C   UNL     1      -4.548 -12.903  18.427  0.00  0.00    +0.165 C 
BRANCH  20   4
ATOM      4  O   UNL     1      -4.003 -14.201  18.512  0.00  0.00    -0.394 OA
ATOM     39  H   UNL     1      -4.325 -14.597  19.340  0.00  0.00    +0.209 HD
ENDBRANCH  20   4
ENDBRANCH  12  20
BRANCH  13  23
ATOM     23  C   UNL     1      -8.846  -8.733  17.840  0.00  0.00    +0.106 C 
BRANCH  23  24
ATOM      5  O   UNL     1      -9.363  -8.566  15.482  0.00  0.00    -0.276 OA
ATOM      8  N   UNL     1     -10.349  -7.087  16.978  0.00  0.00    -0.311 N 
ATOM     24  C   UNL     1      -9.528  -8.148  16.624  0.00  0.00    +0.214 C 
ATOM     40  H   UNL     1     -10.401  -6.805  17.953  0.00  0.00    +0.149 HD
BRANCH   8  26
ATOM     26  C   UNL     1     -11.125  -6.335  16.020  0.00  0.00    +0.139 C 
BRANCH  26  28
ATOM     28  C   UNL     1     -12.522  -6.867  15.886  0.00  0.00    -0.030 A 
ATOM     30  C   UNL     1     -12.894  -8.032  16.559  0.00  0.00    +0.005 A 
ATOM     31  C   UNL     1     -13.451  -6.197  15.089  0.00  0.00    +0.005 A 
ATOM     33  C   UNL     1     -14.192  -8.525  16.435  0.00  0.00    +0.000 A 
ATOM     34  C   UNL     1     -14.750  -6.692  14.966  0.00  0.00    +0.000 A 
ATOM     36  C   UNL     1     -15.120  -7.855  15.638  0.00  0.00    +0.000 A 
ENDBRANCH  26  28
ENDBRANCH   8  26
ENDBRANCH  23  24
ENDBRANCH  13  23
TORSDOF 8
ENDMDL
MODEL 5
REMARK VINA RESULT:      -6.5     28.963     32.063
REMARK  Name = 11882868
REMARK  10 active torsions:
REMARK  status: ('A' for Active; 'I' for Inactive)
REMARK    1  A    between atoms: O_3  and  C_15
REMARK    2  A    between atoms: O_4  and  C_20
REMARK    3  A    between atoms: N_8  and  C_26
REMARK    4  A    between atoms: C_10  and  C_18
REMARK    5  A    between atoms: C_12  and  C_20
REMARK    6  A    between atoms: C_12  and  C_21
REMARK    7  A    between atoms: C_13  and  C_23
REMARK    8  A    between atoms: C_23  and  C_24
REMARK    9  A    between atoms: C_26  and  C_28
REMARK   10  A    between atoms: C_27  and  C_29
REMARK                            x       y       z     vdW  Elec       q    Type
REMARK                         _______ _______ _______ _____ _____    ______ ____
ROOT
ATOM      1  S   UNL     1      -5.916 -10.751  12.250  0.00  0.00    -0.057 S 
ATOM      6  O   UNL     1      -8.993  -8.295   9.829  0.00  0.00    -0.269 OA
ATOM      7  N   UNL     1      -8.125  -9.413  12.379  0.00  0.00    -0.229 NA
ATOM      9  N   UNL     1      -7.075  -9.573  10.215  0.00  0.00    -0.260 N 
ATOM     10  C   UNL     1      -8.439 -10.536  16.055  0.00  0.00    -0.019 C 
ATOM     11  C   UNL     1      -6.860 -10.591  16.255  0.00  0.00    +0.011 C 
ATOM     12  C   UNL     1      -6.333 -11.140  17.636  0.00  0.00    +0.021 C 
ATOM     13  C   UNL     1      -8.746  -9.570  14.820  0.00  0.00    +0.054 C 
ATOM     14  C   UNL     1      -9.098  -9.933  17.322  0.00  0.00    +0.010 C 
ATOM     15  C   UNL     1      -7.129 -10.469  18.792  0.00  0.00    +0.123 C 
ATOM     16  C   UNL     1      -6.152 -11.220  15.019  0.00  0.00    +0.049 C 
ATOM     17  C   UNL     1      -8.640 -10.579  18.622  0.00  0.00    +0.032 C 
ATOM     18  C   UNL     1      -9.061 -11.929  15.786  0.00  0.00    +0.012 C 
ATOM     19  C   UNL     1      -7.850  -9.886  13.649  0.00  0.00    +0.058 A 
ATOM     21  C   UNL     1      -4.841 -10.735  17.807  0.00  0.00    +0.016 C 
ATOM     22  C   UNL     1      -6.682 -10.611  13.765  0.00  0.00    +0.015 A 
ATOM     25  C   UNL     1      -7.178  -9.814  11.560  0.00  0.00    +0.165 A 
ATOM     27  C   UNL     1      -7.971  -8.833   9.409  0.00  0.00    +0.256 C 
ATOM     41  H   UNL     1      -6.255  -9.989   9.789  0.00  0.00    +0.157 HD
ENDROOT
BRANCH  27  29
ATOM      2  S   UNL     1      -8.295  -7.543   7.003  0.00  0.00    -0.092 S 
ATOM     29  C   UNL     1      -7.623  -8.781   7.978  0.00  0.00    +0.074 A 
ATOM     32  C   UNL     1      -6.796  -9.615   7.259  0.00  0.00    +0.021 A 
ATOM     35  C   UNL     1      -6.713  -9.234   5.888  0.00  0.00    +0.008 A 
ATOM     37  C   UNL     1      -7.479  -8.123   5.613  0.00  0.00    +0.046 A 
ENDBRANCH  27  29
BRANCH  15   3
ATOM      3  O   UNL     1      -6.765 -11.038  20.049  0.00  0.00    -0.391 OA
ATOM     38  H   UNL     1      -6.296 -11.871  19.871  0.00  0.00    +0.210 HD
ENDBRANCH  15   3
BRANCH  12  20
ATOM     20  C   UNL     1      -6.362 -12.679  17.768  0.00  0.00    +0.165 C 
BRANCH  20   4
ATOM      4  O   UNL     1      -5.261 -13.065  18.559  0.00  0.00    -0.394 OA
ATOM     39  H   UNL     1      -4.588 -13.431  17.960  0.00  0.00    +0.209 HD
ENDBRANCH  20   4
ENDBRANCH  12  20
BRANCH  13  23
ATOM     23  C   UNL     1     -10.221  -9.521  14.400  0.00  0.00    +0.106 C 
BRANCH  23  24
ATOM      5  O   UNL     1     -10.338  -7.321  15.400  0.00  0.00    -0.276 OA
ATOM      8  N   UNL     1     -12.045  -8.032  13.992  0.00  0.00    -0.311 N 
ATOM     24  C   UNL     1     -10.843  -8.170  14.670  0.00  0.00    +0.214 C 
ATOM     40  H   UNL     1     -12.386  -8.805  13.427  0.00  0.00    +0.149 HD
BRANCH   8  26
ATOM     26  C   UNL     1     -12.861  -6.842  14.066  0.00  0.00    +0.139 C 
BRANCH  26  28
ATOM     28  C   UNL     1     -12.563  -5.885  12.949  0.00  0.00    -0.030 A 
ATOM     30  C   UNL     1     -12.356  -6.365  11.655  0.00  0.00    +0.005 A 
ATOM     31  C   UNL     1     -12.494  -4.515  13.204  0.00  0.00    +0.005 A 
ATOM     33  C   UNL     1     -12.080  -5.475  10.617  0.00  0.00    +0.000 A 
ATOM     34  C   UNL     1     -12.218  -3.626  12.165  0.00  0.00    +0.000 A 
ATOM     36  C   UNL     1     -12.011  -4.105  10.872  0.00  0.00    +0.000 A 
ENDBRANCH  26  28
ENDBRANCH   8  26
ENDBRANCH  23  24
ENDBRANCH  13  23
TORSDOF 8
ENDMDL
MODEL 6
REMARK VINA RESULT:      -6.4     34.902     39.518
REMARK  Name = 11882868
REMARK  10 active torsions:
REMARK  status: ('A' for Active; 'I' for Inactive)
REMARK    1  A    between atoms: O_3  and  C_15
REMARK    2  A    between atoms: O_4  and  C_20
REMARK    3  A    between atoms: N_8  and  C_26
REMARK    4  A    between atoms: C_10  and  C_18
REMARK    5  A    between atoms: C_12  and  C_20
REMARK    6  A    between atoms: C_12  and  C_21
REMARK    7  A    between atoms: C_13  and  C_23
REMARK    8  A    between atoms: C_23  and  C_24
REMARK    9  A    between atoms: C_26  and  C_28
REMARK   10  A    between atoms: C_27  and  C_29
REMARK                            x       y       z     vdW  Elec       q    Type
REMARK                         _______ _______ _______ _____ _____    ______ ____
ROOT
ATOM      1  S   UNL     1      -4.070  12.803  33.837  0.00  0.00    -0.057 S 
ATOM      6  O   UNL     1       0.440  12.601  34.829  0.00  0.00    -0.269 OA
ATOM      7  N   UNL     1      -2.313  11.934  35.525  0.00  0.00    -0.229 NA
ATOM      9  N   UNL     1      -1.481  13.163  33.625  0.00  0.00    -0.260 N 
ATOM     10  C   UNL     1      -5.229  10.784  37.771  0.00  0.00    -0.019 C 
ATOM     11  C   UNL     1      -6.182  10.508  36.526  0.00  0.00    +0.011 C 
ATOM     12  C   UNL     1      -7.671  10.094  36.843  0.00  0.00    +0.021 C 
ATOM     13  C   UNL     1      -3.718  10.748  37.253  0.00  0.00    +0.054 C 
ATOM     14  C   UNL     1      -5.412   9.658  38.821  0.00  0.00    +0.010 C 
ATOM     15  C   UNL     1      -7.674   8.994  37.942  0.00  0.00    +0.123 C 
ATOM     16  C   UNL     1      -6.058  11.631  35.454  0.00  0.00    +0.049 C 
ATOM     17  C   UNL     1      -6.866   9.378  39.176  0.00  0.00    +0.032 C 
ATOM     18  C   UNL     1      -5.507  12.147  38.451  0.00  0.00    +0.012 C 
ATOM     19  C   UNL     1      -3.559  11.555  35.989  0.00  0.00    +0.058 A 
ATOM     21  C   UNL     1      -8.307   9.473  35.566  0.00  0.00    +0.016 C 
ATOM     22  C   UNL     1      -4.620  11.924  35.188  0.00  0.00    +0.015 A 
ATOM     25  C   UNL     1      -2.461  12.604  34.402  0.00  0.00    +0.165 A 
ATOM     27  C   UNL     1      -0.088  13.143  33.860  0.00  0.00    +0.256 C 
ATOM     41  H   UNL     1      -1.837  13.636  32.802  0.00  0.00    +0.157 HD
ENDROOT
BRANCH  27  29
ATOM      2  S   UNL     1       1.338  15.419  33.273  0.00  0.00    -0.092 S 
ATOM     29  C   UNL     1       0.723  13.872  32.870  0.00  0.00    +0.074 A 
ATOM     32  C   UNL     1       1.087  13.486  31.598  0.00  0.00    +0.021 A 
ATOM     35  C   UNL     1       1.882  14.474  30.946  0.00  0.00    +0.008 A 
ATOM     37  C   UNL     1       2.094  15.576  31.744  0.00  0.00    +0.046 A 
ENDBRANCH  27  29
BRANCH  15   3
ATOM      3  O   UNL     1      -9.009   8.689  38.344  0.00  0.00    -0.391 OA
ATOM     38  H   UNL     1      -9.082   8.882  39.294  0.00  0.00    +0.210 HD
ENDBRANCH  15   3
BRANCH  12  20
ATOM     20  C   UNL     1      -8.593  11.269  37.236  0.00  0.00    +0.165 C 
BRANCH  20   4
ATOM      4  O   UNL     1      -9.883  10.990  36.739  0.00  0.00    -0.394 OA
ATOM     39  H   UNL     1      -9.774  10.468  35.926  0.00  0.00    +0.209 HD
ENDBRANCH  20   4
ENDBRANCH  12  20
BRANCH  13  23
ATOM     23  C   UNL     1      -2.673  11.142  38.305  0.00  0.00    +0.106 C 
BRANCH  23  24
ATOM      5  O   UNL     1      -0.582  10.248  39.133  0.00  0.00    -0.276 OA
ATOM      8  N   UNL     1      -1.888   8.968  37.698  0.00  0.00    -0.311 N 
ATOM     24  C   UNL     1      -1.589  10.098  38.446  0.00  0.00    +0.214 C 
ATOM     40  H   UNL     1      -2.740   8.951  37.146  0.00  0.00    +0.149 HD
BRANCH   8  26
ATOM     26  C   UNL     1      -1.028   7.809  37.641  0.00  0.00    +0.139 C 
BRANCH  26  28
ATOM     28  C   UNL     1      -1.289   6.859  38.774  0.00  0.00    -0.030 A 
ATOM     30  C   UNL     1      -0.358   5.866  39.081  0.00  0.00    +0.005 A 
ATOM     31  C   UNL     1      -2.462   6.969  39.521  0.00  0.00    +0.005 A 
ATOM     33  C   UNL     1      -0.600   4.984  40.133  0.00  0.00    +0.000 A 
ATOM     34  C   UNL     1      -2.704   6.085  40.573  0.00  0.00    +0.000 A 
ATOM     36  C   UNL     1      -1.773   5.094  40.880  0.00  0.00    +0.000 A 
ENDBRANCH  26  28
ENDBRANCH   8  26
ENDBRANCH  23  24
ENDBRANCH  13  23
TORSDOF 8
ENDMDL
MODEL 7
REMARK VINA RESULT:      -6.4     27.713     33.252
REMARK  Name = 11882868
REMARK  10 active torsions:
REMARK  status: ('A' for Active; 'I' for Inactive)
REMARK    1  A    between atoms: O_3  and  C_15
REMARK    2  A    between atoms: O_4  and  C_20
REMARK    3  A    between atoms: N_8  and  C_26
REMARK    4  A    between atoms: C_10  and  C_18
REMARK    5  A    between atoms: C_12  and  C_20
REMARK    6  A    between atoms: C_12  and  C_21
REMARK    7  A    between atoms: C_13  and  C_23
REMARK    8  A    between atoms: C_23  and  C_24
REMARK    9  A    between atoms: C_26  and  C_28
REMARK   10  A    between atoms: C_27  and  C_29
REMARK                            x       y       z     vdW  Elec       q    Type
REMARK                         _______ _______ _______ _____ _____    ______ ____
ROOT
ATOM      1  S   UNL     1      -9.854  -9.841  13.019  0.00  0.00    -0.057 S 
ATOM      6  O   UNL     1      -5.258  -9.858  13.511  0.00  0.00    -0.269 OA
ATOM      7  N   UNL     1      -7.910  -9.895  14.725  0.00  0.00    -0.229 NA
ATOM      9  N   UNL     1      -7.309  -9.820  12.391  0.00  0.00    -0.260 N 
ATOM     10  C   UNL     1     -10.536  -9.579  17.531  0.00  0.00    -0.019 C 
ATOM     11  C   UNL     1     -11.641 -10.361  16.692  0.00  0.00    +0.011 C 
ATOM     12  C   UNL     1     -13.083 -10.456  17.324  0.00  0.00    +0.021 C 
ATOM     13  C   UNL     1      -9.103  -9.974  16.947  0.00  0.00    +0.054 C 
ATOM     14  C   UNL     1     -10.600 -10.028  19.013  0.00  0.00    +0.010 C 
ATOM     15  C   UNL     1     -12.962 -10.871  18.818  0.00  0.00    +0.123 C 
ATOM     16  C   UNL     1     -11.639  -9.921  15.199  0.00  0.00    +0.049 C 
ATOM     17  C   UNL     1     -12.001  -9.992  19.609  0.00  0.00    +0.032 C 
ATOM     18  C   UNL     1     -10.710  -8.042  17.470  0.00  0.00    +0.012 C 
ATOM     19  C   UNL     1      -9.093  -9.905  15.441  0.00  0.00    +0.058 A 
ATOM     21  C   UNL     1     -13.881 -11.576  16.597  0.00  0.00    +0.016 C 
ATOM     22  C   UNL     1     -10.242  -9.901  14.676  0.00  0.00    +0.015 A 
ATOM     25  C   UNL     1      -8.190  -9.853  13.440  0.00  0.00    +0.165 A 
ATOM     27  C   UNL     1      -5.897  -9.824  12.461  0.00  0.00    +0.256 C 
ATOM     41  H   UNL     1      -7.758  -9.788  11.483  0.00  0.00    +0.157 HD
ENDROOT
BRANCH  27  29
ATOM      2  S   UNL     1      -4.907 -11.171  10.279  0.00  0.00    -0.092 S 
ATOM     29  C   UNL     1      -5.208  -9.735  11.162  0.00  0.00    +0.074 A 
ATOM     32  C   UNL     1      -4.742  -8.617  10.505  0.00  0.00    +0.021 A 
ATOM     35  C   UNL     1      -4.129  -8.944   9.261  0.00  0.00    +0.008 A 
ATOM     37  C   UNL     1      -4.149 -10.299   9.014  0.00  0.00    +0.046 A 
ENDBRANCH  27  29
BRANCH  15   3
ATOM      3  O   UNL     1     -14.240 -10.843  19.453  0.00  0.00    -0.391 OA
ATOM     38  H   UNL     1     -14.535 -11.762  19.562  0.00  0.00    +0.210 HD
ENDBRANCH  15   3
BRANCH  12  20
ATOM     20  C   UNL     1     -13.935  -9.176  17.175  0.00  0.00    +0.165 C 
BRANCH  20   4
ATOM      4  O   UNL     1     -15.281  -9.568  17.027  0.00  0.00    -0.394 OA
ATOM     39  H   UNL     1     -15.813  -9.002  17.611  0.00  0.00    +0.209 HD
ENDBRANCH  20   4
ENDBRANCH  12  20
BRANCH  13  23
ATOM     23  C   UNL     1      -7.929  -9.192  17.551  0.00  0.00    +0.106 C 
BRANCH  23  24
ATOM      5  O   UNL     1      -7.021 -10.561  19.329  0.00  0.00    -0.276 OA
ATOM      8  N   UNL     1      -5.848 -10.347  17.334  0.00  0.00    -0.311 N 
ATOM     24  C   UNL     1      -6.910 -10.105  18.193  0.00  0.00    +0.214 C 
ATOM     40  H   UNL     1      -5.842  -9.905  16.419  0.00  0.00    +0.149 HD
BRANCH   8  26
ATOM     26  C   UNL     1      -4.724 -11.185  17.682  0.00  0.00    +0.139 C 
BRANCH  26  28
ATOM     28  C   UNL     1      -3.818 -11.426  16.511  0.00  0.00    -0.030 A 
ATOM     30  C   UNL     1      -4.112 -12.440  15.598  0.00  0.00    +0.005 A 
ATOM     31  C   UNL     1      -2.681 -10.637  16.334  0.00  0.00    +0.005 A 
ATOM     33  C   UNL     1      -3.270 -12.663  14.509  0.00  0.00    +0.000 A 
ATOM     34  C   UNL     1      -1.839 -10.862  15.244  0.00  0.00    +0.000 A 
ATOM     36  C   UNL     1      -2.133 -11.874  14.332  0.00  0.00    +0.000 A 
ENDBRANCH  26  28
ENDBRANCH   8  26
ENDBRANCH  23  24
ENDBRANCH  13  23
TORSDOF 8
ENDMDL
MODEL 8
REMARK VINA RESULT:      -6.4     31.558     35.640
REMARK  Name = 11882868
REMARK  10 active torsions:
REMARK  status: ('A' for Active; 'I' for Inactive)
REMARK    1  A    between atoms: O_3  and  C_15
REMARK    2  A    between atoms: O_4  and  C_20
REMARK    3  A    between atoms: N_8  and  C_26
REMARK    4  A    between atoms: C_10  and  C_18
REMARK    5  A    between atoms: C_12  and  C_20
REMARK    6  A    between atoms: C_12  and  C_21
REMARK    7  A    between atoms: C_13  and  C_23
REMARK    8  A    between atoms: C_23  and  C_24
REMARK    9  A    between atoms: C_26  and  C_28
REMARK   10  A    between atoms: C_27  and  C_29
REMARK                            x       y       z     vdW  Elec       q    Type
REMARK                         _______ _______ _______ _____ _____    ______ ____
ROOT
ATOM      1  S   UNL     1     -13.101   5.139  22.672  0.00  0.00    -0.057 S 
ATOM      6  O   UNL     1     -17.516   3.938  23.331  0.00  0.00    -0.269 OA
ATOM      7  N   UNL     1     -15.532   5.493  21.863  0.00  0.00    -0.229 NA
ATOM      9  N   UNL     1     -15.207   3.957  23.692  0.00  0.00    -0.260 N 
ATOM     10  C   UNL     1     -14.211   8.251  19.514  0.00  0.00    -0.019 C 
ATOM     11  C   UNL     1     -12.801   7.533  19.335  0.00  0.00    +0.011 C 
ATOM     12  C   UNL     1     -11.705   8.306  18.506  0.00  0.00    +0.021 C 
ATOM     13  C   UNL     1     -15.270   7.149  19.977  0.00  0.00    +0.054 C 
ATOM     14  C   UNL     1     -14.671   8.830  18.151  0.00  0.00    +0.010 C 
ATOM     15  C   UNL     1     -12.344   8.857  17.199  0.00  0.00    +0.123 C 
ATOM     16  C   UNL     1     -12.278   6.961  20.685  0.00  0.00    +0.049 C 
ATOM     17  C   UNL     1     -13.612   9.665  17.446  0.00  0.00    +0.032 C 
ATOM     18  C   UNL     1     -14.174   9.399  20.553  0.00  0.00    +0.012 C 
ATOM     19  C   UNL     1     -14.715   6.296  21.088  0.00  0.00    +0.058 A 
ATOM     21  C   UNL     1     -10.587   7.308  18.089  0.00  0.00    +0.016 C 
ATOM     22  C   UNL     1     -13.368   6.212  21.376  0.00  0.00    +0.015 A 
ATOM     25  C   UNL     1     -14.791   4.845  22.735  0.00  0.00    +0.165 A 
ATOM     27  C   UNL     1     -16.532   3.540  23.952  0.00  0.00    +0.256 C 
ATOM     41  H   UNL     1     -14.452   3.583  24.255  0.00  0.00    +0.157 HD
ENDROOT
BRANCH  27  29
ATOM      2  S   UNL     1     -16.230   3.117  26.652  0.00  0.00    -0.092 S 
ATOM     29  C   UNL     1     -16.682   2.605  25.081  0.00  0.00    +0.074 A 
ATOM     32  C   UNL     1     -17.156   1.312  25.075  0.00  0.00    +0.021 A 
ATOM     35  C   UNL     1     -17.147   0.732  26.377  0.00  0.00    +0.008 A 
ATOM     37  C   UNL     1     -16.667   1.605  27.328  0.00  0.00    +0.046 A 
ENDBRANCH  27  29
BRANCH  15   3
ATOM      3  O   UNL     1     -11.411   9.671  16.488  0.00  0.00    -0.391 OA
ATOM     38  H   UNL     1     -10.652   9.112  16.253  0.00  0.00    +0.210 HD
ENDBRANCH  15   3
BRANCH  12  20
ATOM     20  C   UNL     1     -10.986   9.431  19.285  0.00  0.00    +0.165 C 
BRANCH  20   4
ATOM      4  O   UNL     1      -9.700   9.586  18.729  0.00  0.00    -0.394 OA
ATOM     39  H   UNL     1      -9.230  10.246  19.267  0.00  0.00    +0.209 HD
ENDBRANCH  20   4
ENDBRANCH  12  20
BRANCH  13  23
ATOM     23  C   UNL     1     -16.655   7.706  20.337  0.00  0.00    +0.106 C 
BRANCH  23  24
ATOM      5  O   UNL     1     -18.874   7.662  19.373  0.00  0.00    -0.276 OA
ATOM      8  N   UNL     1     -17.223   6.274  18.509  0.00  0.00    -0.311 N 
ATOM     24  C   UNL     1     -17.722   7.238  19.374  0.00  0.00    +0.214 C 
ATOM     40  H   UNL     1     -16.256   5.975  18.606  0.00  0.00    +0.149 HD
BRANCH   8  26
ATOM     26  C   UNL     1     -18.020   5.644  17.483  0.00  0.00    +0.139 C 
BRANCH  26  28
ATOM     28  C   UNL     1     -17.374   5.740  16.131  0.00  0.00    -0.030 A 
ATOM     30  C   UNL     1     -16.502   6.792  15.847  0.00  0.00    +0.005 A 
ATOM     31  C   UNL     1     -17.645   4.777  15.159  0.00  0.00    +0.005 A 
ATOM     33  C   UNL     1     -15.902   6.880  14.592  0.00  0.00    +0.000 A 
ATOM     34  C   UNL     1     -17.044   4.866  13.903  0.00  0.00    +0.000 A 
ATOM     36  C   UNL     1     -16.173   5.917  13.619  0.00  0.00    +0.000 A 
ENDBRANCH  26  28
ENDBRANCH   8  26
ENDBRANCH  23  24
ENDBRANCH  13  23
TORSDOF 8
ENDMDL
MODEL 9
REMARK VINA RESULT:      -6.3     31.713     36.237
REMARK  Name = 11882868
REMARK  10 active torsions:
REMARK  status: ('A' for Active; 'I' for Inactive)
REMARK    1  A    between atoms: O_3  and  C_15
REMARK    2  A    between atoms: O_4  and  C_20
REMARK    3  A    between atoms: N_8  and  C_26
REMARK    4  A    between atoms: C_10  and  C_18
REMARK    5  A    between atoms: C_12  and  C_20
REMARK    6  A    between atoms: C_12  and  C_21
REMARK    7  A    between atoms: C_13  and  C_23
REMARK    8  A    between atoms: C_23  and  C_24
REMARK    9  A    between atoms: C_26  and  C_28
REMARK   10  A    between atoms: C_27  and  C_29
REMARK                            x       y       z     vdW  Elec       q    Type
REMARK                         _______ _______ _______ _____ _____    ______ ____
ROOT
ATOM      1  S   UNL     1     -15.313  -8.186  16.942  0.00  0.00    -0.057 S 
ATOM      6  O   UNL     1     -11.844  -6.333  14.511  0.00  0.00    -0.269 OA
ATOM      7  N   UNL     1     -12.757  -8.213  16.547  0.00  0.00    -0.229 NA
ATOM      9  N   UNL     1     -14.046  -6.671  15.216  0.00  0.00    -0.260 N 
ATOM     10  C   UNL     1     -12.455 -10.653  19.518  0.00  0.00    -0.019 C 
ATOM     11  C   UNL     1     -13.888 -11.290  19.241  0.00  0.00    +0.011 C 
ATOM     12  C   UNL     1     -14.412 -12.352  20.284  0.00  0.00    +0.021 C 
ATOM     13  C   UNL     1     -11.949  -9.974  18.164  0.00  0.00    +0.054 C 
ATOM     14  C   UNL     1     -11.458 -11.776  19.904  0.00  0.00    +0.010 C 
ATOM     15  C   UNL     1     -13.278 -13.370  20.592  0.00  0.00    +0.123 C 
ATOM     16  C   UNL     1     -14.936 -10.197  18.879  0.00  0.00    +0.049 C 
ATOM     17  C   UNL     1     -11.968 -12.704  20.997  0.00  0.00    +0.032 C 
ATOM     18  C   UNL     1     -12.475  -9.596  20.648  0.00  0.00    +0.012 C 
ATOM     19  C   UNL     1     -13.035  -9.138  17.537  0.00  0.00    +0.058 A 
ATOM     21  C   UNL     1     -15.587 -13.148  19.648  0.00  0.00    +0.016 C 
ATOM     22  C   UNL     1     -14.371  -9.268  17.859  0.00  0.00    +0.015 A 
ATOM     25  C   UNL     1     -13.880  -7.645  16.165  0.00  0.00    +0.165 A 
ATOM     27  C   UNL     1     -13.040  -6.059  14.435  0.00  0.00    +0.256 C 
ATOM     41  H   UNL     1     -15.011  -6.384  15.093  0.00  0.00    +0.157 HD
ENDROOT
BRANCH  27  29
ATOM      2  S   UNL     1     -12.382  -4.192  12.527  0.00  0.00    -0.092 S 
ATOM     29  C   UNL     1     -13.514  -5.003  13.523  0.00  0.00    +0.074 A 
ATOM     32  C   UNL     1     -14.797  -4.539  13.332  0.00  0.00    +0.021 A 
ATOM     35  C   UNL     1     -14.851  -3.503  12.355  0.00  0.00    +0.008 A 
ATOM     37  C   UNL     1     -13.608  -3.215  11.837  0.00  0.00    +0.046 A 
ENDBRANCH  27  29
BRANCH  15   3
ATOM      3  O   UNL     1     -13.676 -14.268  21.628  0.00  0.00    -0.391 OA
ATOM     38  H   UNL     1     -14.389 -14.827  21.274  0.00  0.00    +0.210 HD
ENDBRANCH  15   3
BRANCH  12  20
ATOM     20  C   UNL     1     -14.979 -11.746  21.587  0.00  0.00    +0.165 C 
BRANCH  20   4
ATOM      4  O   UNL     1     -16.360 -12.023  21.626  0.00  0.00    -0.394 OA
ATOM     39  H   UNL     1     -16.547 -12.668  20.923  0.00  0.00    +0.209 HD
ENDBRANCH  20   4
ENDBRANCH  12  20
BRANCH  13  23
ATOM     23  C   UNL     1     -10.640  -9.184  18.297  0.00  0.00    +0.106 C 
BRANCH  23  24
ATOM      5  O   UNL     1      -9.770 -10.536  16.489  0.00  0.00    -0.276 OA
ATOM      8  N   UNL     1      -8.340  -9.118  17.649  0.00  0.00    -0.311 N 
ATOM     24  C   UNL     1      -9.566  -9.703  17.368  0.00  0.00    +0.214 C 
ATOM     40  H   UNL     1      -8.274  -8.452  18.414  0.00  0.00    +0.149 HD
BRANCH   8  26
ATOM     26  C   UNL     1      -7.132  -9.428  16.921  0.00  0.00    +0.139 C 
BRANCH  26  28
ATOM     28  C   UNL     1      -6.194 -10.280  17.725  0.00  0.00    -0.030 A 
ATOM     30  C   UNL     1      -6.551 -10.692  19.010  0.00  0.00    +0.005 A 
ATOM     31  C   UNL     1      -4.964 -10.662  17.188  0.00  0.00    +0.005 A 
ATOM     33  C   UNL     1      -5.679 -11.484  19.756  0.00  0.00    +0.000 A 
ATOM     34  C   UNL     1      -4.093 -11.455  17.935  0.00  0.00    +0.000 A 
ATOM     36  C   UNL     1      -4.450 -11.866  19.219  0.00  0.00    +0.000 A 
ENDBRANCH  26  28
ENDBRANCH   8  26
ENDBRANCH  23  24
ENDBRANCH  13  23
TORSDOF 8
ENDMDL
MODEL 10
REMARK VINA RESULT:      -6.3      2.936      8.874
REMARK  Name = 11882868
REMARK  10 active torsions:
REMARK  status: ('A' for Active; 'I' for Inactive)
REMARK    1  A    between atoms: O_3  and  C_15
REMARK    2  A    between atoms: O_4  and  C_20
REMARK    3  A    between atoms: N_8  and  C_26
REMARK    4  A    between atoms: C_10  and  C_18
REMARK    5  A    between atoms: C_12  and  C_20
REMARK    6  A    between atoms: C_12  and  C_21
REMARK    7  A    between atoms: C_13  and  C_23
REMARK    8  A    between atoms: C_23  and  C_24
REMARK    9  A    between atoms: C_26  and  C_28
REMARK   10  A    between atoms: C_27  and  C_29
REMARK                            x       y       z     vdW  Elec       q    Type
REMARK                         _______ _______ _______ _____ _____    ______ ____
ROOT
ATOM      1  S   UNL     1      12.720   5.533   1.174  0.00  0.00    -0.057 S 
ATOM      6  O   UNL     1      17.110   6.925   0.779  0.00  0.00    -0.269 OA
ATOM      7  N   UNL     1      14.646   6.811   2.336  0.00  0.00    -0.229 NA
ATOM      9  N   UNL     1      15.109   5.891   0.156  0.00  0.00    -0.260 N 
ATOM     10  C   UNL     1      12.156   7.772   5.119  0.00  0.00    -0.019 C 
ATOM     11  C   UNL     1      11.317   6.431   4.941  0.00  0.00    +0.011 C 
ATOM     12  C   UNL     1      10.000   6.292   5.796  0.00  0.00    +0.021 C 
ATOM     13  C   UNL     1      13.618   7.522   4.528  0.00  0.00    +0.054 C 
ATOM     14  C   UNL     1      12.288   8.101   6.628  0.00  0.00    +0.010 C 
ATOM     15  C   UNL     1      10.298   6.702   7.267  0.00  0.00    +0.123 C 
ATOM     16  C   UNL     1      11.128   6.073   3.437  0.00  0.00    +0.049 C 
ATOM     17  C   UNL     1      10.967   8.066   7.385  0.00  0.00    +0.032 C 
ATOM     18  C   UNL     1      11.512   8.984   4.401  0.00  0.00    +0.012 C 
ATOM     19  C   UNL     1      13.551   6.850   3.180  0.00  0.00    +0.058 A 
ATOM     21  C   UNL     1       9.561   4.799   5.813  0.00  0.00    +0.016 C 
ATOM     22  C   UNL     1      12.430   6.190   2.719  0.00  0.00    +0.015 A 
ATOM     25  C   UNL     1      14.320   6.150   1.246  0.00  0.00    +0.165 A 
ATOM     27  C   UNL     1      16.454   6.280  -0.037  0.00  0.00    +0.256 C 
ATOM     41  H   UNL     1      14.639   5.363  -0.570  0.00  0.00    +0.157 HD
ENDROOT
BRANCH  27  29
ATOM      2  S   UNL     1      17.849   7.082  -2.266  0.00  0.00    -0.092 S 
ATOM     29  C   UNL     1      17.034   5.898  -1.336  0.00  0.00    +0.074 A 
ATOM     32  C   UNL     1      17.026   4.668  -1.956  0.00  0.00    +0.021 A 
ATOM     35  C   UNL     1      17.698   4.699  -3.214  0.00  0.00    +0.008 A 
ATOM     37  C   UNL     1      18.193   5.951  -3.505  0.00  0.00    +0.046 A 
ENDBRANCH  27  29
BRANCH  15   3
ATOM      3  O   UNL     1       9.098   6.710   8.039  0.00  0.00    -0.391 OA
ATOM     38  H   UNL     1       9.191   7.397   8.720  0.00  0.00    +0.210 HD
ENDBRANCH  15   3
BRANCH  12  20
ATOM     20  C   UNL     1       8.789   7.074   5.241  0.00  0.00    +0.165 C 
BRANCH  20   4
ATOM      4  O   UNL     1       7.629   6.317   5.505  0.00  0.00    -0.394 OA
ATOM     39  H   UNL     1       7.918   5.437   5.802  0.00  0.00    +0.209 HD
ENDBRANCH  20   4
ENDBRANCH  12  20
BRANCH  13  23
ATOM     23  C   UNL     1      14.513   8.768   4.490  0.00  0.00    +0.106 C 
BRANCH  23  24
ATOM      5  O   UNL     1      15.610   7.930   6.478  0.00  0.00    -0.276 OA
ATOM      8  N   UNL     1      16.590   9.657   5.271  0.00  0.00    -0.311 N 
ATOM     24  C   UNL     1      15.608   8.712   5.531  0.00  0.00    +0.214 C 
ATOM     40  H   UNL     1      16.484  10.272   4.469  0.00  0.00    +0.149 HD
BRANCH   8  26
ATOM     26  C   UNL     1      17.757   9.833   6.103  0.00  0.00    +0.139 C 
BRANCH  26  28
ATOM     28  C   UNL     1      18.864   8.892   5.725  0.00  0.00    -0.030 A 
ATOM     30  C   UNL     1      19.822   8.525   6.671  0.00  0.00    +0.005 A 
ATOM     31  C   UNL     1      18.936   8.384   4.428  0.00  0.00    +0.005 A 
ATOM     33  C   UNL     1      20.850   7.651   6.320  0.00  0.00    +0.000 A 
ATOM     34  C   UNL     1      19.965   7.509   4.078  0.00  0.00    +0.000 A 
ATOM     36  C   UNL     1      20.922   7.143   5.023  0.00  0.00    +0.000 A 
ENDBRANCH  26  28
ENDBRANCH   8  26
ENDBRANCH  23  24
ENDBRANCH  13  23
TORSDOF 8
ENDMDL
