MODEL 1
REMARK VINA RESULT:      -7.7      0.000      0.000
REMARK  Name = 11882563
REMARK  16 active torsions:
REMARK  status: ('A' for Active; 'I' for Inactive)
REMARK    1  A    between atoms: O_1  and  C_12
REMARK    2  A    between atoms: O_2  and  C_15
REMARK    3  A    between atoms: O_3  and  C_17
REMARK    4  A    between atoms: N_7  and  C_13
REMARK    5  A    between atoms: N_8  and  C_21
REMARK    6  A    between atoms: N_9  and  C_20
REMARK    7  A    between atoms: N_9  and  C_29
REMARK    8  A    between atoms: C_12  and  C_18
REMARK    9  A    between atoms: C_19  and  C_20
REMARK   10  A    between atoms: C_20  and  C_22
REMARK   11  A    between atoms: C_21  and  C_23
REMARK   12  A    between atoms: C_21  and  C_25
REMARK   13  A    between atoms: C_22  and  C_24
REMARK   14  A    between atoms: C_23  and  C_26
REMARK   15  A    between atoms: C_24  and  C_27
REMARK   16  A    between atoms: C_24  and  C_28
REMARK                            x       y       z     vdW  Elec       q    Type
REMARK                         _______ _______ _______ _____ _____    ______ ____
ROOT
ATOM     12  C   UNL     1      15.486   6.934  20.478  0.00  0.00    +0.146 C 
ATOM     13  C   UNL     1      17.875   7.009  21.340  0.00  0.00    +0.107 C 
ATOM     14  C   UNL     1      16.543   7.757  21.218  0.00  0.00    +0.069 C 
ATOM     15  C   UNL     1      18.383   6.522  19.976  0.00  0.00    +0.163 C 
ATOM     16  C   UNL     1      15.997   6.472  19.115  0.00  0.00    +0.078 C 
ATOM     17  C   UNL     1      17.322   5.716  19.222  0.00  0.00    +0.148 C 
ENDROOT
BRANCH  12  18
ATOM      4  O   UNL     1      14.080   8.546  19.416  0.00  0.00    -0.273 OA
ATOM      8  N   UNL     1      13.287   7.424  21.294  0.00  0.00    -0.301 N 
ATOM     18  C   UNL     1      14.220   7.724  20.316  0.00  0.00    +0.246 C 
ATOM     41  H   UNL     1      13.466   6.645  21.922  0.00  0.00    +0.150 HD
BRANCH   8  21
ATOM     21  C   UNL     1      11.993   8.062  21.375  0.00  0.00    +0.163 C 
BRANCH  21  25
ATOM      6  O   UNL     1      11.150   5.813  21.010  0.00  0.00    -0.274 OA
ATOM     10  N   UNL     1       9.767   7.358  21.999  0.00  0.00    -0.328 N 
ATOM     25  C   UNL     1      10.949   6.957  21.413  0.00  0.00    +0.231 C 
ATOM     43  H   UNL     1       9.625   8.300  22.351  0.00  0.00    +0.145 HD
ATOM     44  H   UNL     1       8.991   6.712  22.101  0.00  0.00    +0.145 HD
ENDBRANCH  21  25
BRANCH  21  23
ATOM     23  C   UNL     1      11.867   8.964  22.610  0.00  0.00    +0.069 C 
BRANCH  23  26
ATOM     11  N   UNL     1      11.642  12.317  21.121  0.00  0.00    -0.360 N 
ATOM     26  C   UNL     1      11.697  10.416  22.265  0.00  0.00    -0.020 A 
ATOM     30  C   UNL     1      11.303  11.457  23.152  0.00  0.00    +0.003 A 
ATOM     31  C   UNL     1      11.898  10.976  21.024  0.00  0.00    +0.087 A 
ATOM     32  C   UNL     1      11.276  12.639  22.408  0.00  0.00    +0.047 A 
ATOM     33  C   UNL     1      10.965  11.507  24.518  0.00  0.00    +0.010 A 
ATOM     34  C   UNL     1      10.927  13.874  22.966  0.00  0.00    +0.026 A 
ATOM     35  C   UNL     1      10.613  12.736  25.090  0.00  0.00    +0.001 A 
ATOM     36  C   UNL     1      10.596  13.900  24.324  0.00  0.00    +0.002 A 
ATOM     45  H   UNL     1      11.711  12.976  20.357  0.00  0.00    +0.165 HD
ENDBRANCH  23  26
ENDBRANCH  21  23
ENDBRANCH   8  21
ENDBRANCH  12  18
BRANCH  13   7
ATOM      5  O   UNL     1      19.965   6.201  23.160  0.00  0.00    -0.274 OA
ATOM      7  N   UNL     1      18.858   7.862  21.974  0.00  0.00    -0.309 N 
ATOM     19  C   UNL     1      19.829   7.381  22.838  0.00  0.00    +0.230 C 
ATOM     37  H   UNL     1      18.778   8.863  21.822  0.00  0.00    +0.149 HD
BRANCH  19  20
ATOM     20  C   UNL     1      20.717   8.489  23.395  0.00  0.00    +0.140 C 
BRANCH  20   9
ATOM      9  N   UNL     1      19.806   9.573  23.771  0.00  0.00    -0.309 NA
ATOM     29  C   UNL     1      20.302  10.850  23.285  0.00  0.00    +0.101 C 
ATOM     42  H   UNL     1      18.863   9.394  23.431  0.00  0.00    +0.122 HD
ENDBRANCH  20   9
BRANCH  20  22
ATOM     22  C   UNL     1      21.526   8.030  24.619  0.00  0.00    +0.031 C 
BRANCH  22  24
ATOM     24  C   UNL     1      20.824   8.264  25.974  0.00  0.00    -0.015 C 
ATOM     27  C   UNL     1      20.371   6.960  26.632  0.00  0.00    +0.007 C 
ATOM     28  C   UNL     1      21.764   9.019  26.918  0.00  0.00    +0.007 C 
ENDBRANCH  22  24
ENDBRANCH  20  22
ENDBRANCH  19  20
ENDBRANCH  13   7
BRANCH  12   1
ATOM      1  O   UNL     1      15.115   5.795  21.246  0.00  0.00    -0.379 OA
ATOM     38  H   UNL     1      14.974   6.076  22.166  0.00  0.00    +0.211 HD
ENDBRANCH  12   1
BRANCH  15   2
ATOM      2  O   UNL     1      19.513   5.667  20.176  0.00  0.00    -0.387 OA
ATOM     39  H   UNL     1      19.872   5.846  21.062  0.00  0.00    +0.210 HD
ENDBRANCH  15   2
BRANCH  17   3
ATOM      3  O   UNL     1      17.808   5.448  17.907  0.00  0.00    -0.389 OA
ATOM     40  H   UNL     1      17.398   6.093  17.306  0.00  0.00    +0.210 HD
ENDBRANCH  17   3
TORSDOF 13
ENDMDL
MODEL 2
REMARK VINA RESULT:      -7.6      2.850      8.832
REMARK  Name = 11882563
REMARK  16 active torsions:
REMARK  status: ('A' for Active; 'I' for Inactive)
REMARK    1  A    between atoms: O_1  and  C_12
REMARK    2  A    between atoms: O_2  and  C_15
REMARK    3  A    between atoms: O_3  and  C_17
REMARK    4  A    between atoms: N_7  and  C_13
REMARK    5  A    between atoms: N_8  and  C_21
REMARK    6  A    between atoms: N_9  and  C_20
REMARK    7  A    between atoms: N_9  and  C_29
REMARK    8  A    between atoms: C_12  and  C_18
REMARK    9  A    between atoms: C_19  and  C_20
REMARK   10  A    between atoms: C_20  and  C_22
REMARK   11  A    between atoms: C_21  and  C_23
REMARK   12  A    between atoms: C_21  and  C_25
REMARK   13  A    between atoms: C_22  and  C_24
REMARK   14  A    between atoms: C_23  and  C_26
REMARK   15  A    between atoms: C_24  and  C_27
REMARK   16  A    between atoms: C_24  and  C_28
REMARK                            x       y       z     vdW  Elec       q    Type
REMARK                         _______ _______ _______ _____ _____    ______ ____
ROOT
ATOM     12  C   UNL     1      12.852   8.082  19.955  0.00  0.00    +0.146 C 
ATOM     13  C   UNL     1      10.935   8.901  21.407  0.00  0.00    +0.107 C 
ATOM     14  C   UNL     1      12.354   9.178  20.900  0.00  0.00    +0.069 C 
ATOM     15  C   UNL     1      10.815   7.507  22.036  0.00  0.00    +0.163 C 
ATOM     16  C   UNL     1      12.746   6.702  20.600  0.00  0.00    +0.078 C 
ATOM     17  C   UNL     1      11.332   6.409  21.104  0.00  0.00    +0.148 C 
ENDROOT
BRANCH  12  18
ATOM      4  O   UNL     1      14.644   8.181  18.378  0.00  0.00    -0.273 OA
ATOM      8  N   UNL     1      15.057   8.770  20.592  0.00  0.00    -0.301 N 
ATOM     18  C   UNL     1      14.268   8.349  19.535  0.00  0.00    +0.246 C 
ATOM     41  H   UNL     1      14.615   8.983  21.481  0.00  0.00    +0.150 HD
BRANCH   8  21
ATOM     21  C   UNL     1      16.464   9.072  20.457  0.00  0.00    +0.163 C 
BRANCH  21  25
ATOM      6  O   UNL     1      17.557  11.234  20.276  0.00  0.00    -0.274 OA
ATOM     10  N   UNL     1      15.597  11.089  21.466  0.00  0.00    -0.328 N 
ATOM     25  C   UNL     1      16.629  10.561  20.719  0.00  0.00    +0.231 C 
ATOM     43  H   UNL     1      14.824  10.525  21.804  0.00  0.00    +0.145 HD
ATOM     44  H   UNL     1      15.577  12.076  21.701  0.00  0.00    +0.145 HD
ENDBRANCH  21  25
BRANCH  21  23
ATOM     23  C   UNL     1      17.328   8.256  21.426  0.00  0.00    +0.069 C 
BRANCH  23  26
ATOM     11  N   UNL     1      18.468   5.439  19.358  0.00  0.00    -0.360 N 
ATOM     26  C   UNL     1      18.009   7.089  20.770  0.00  0.00    -0.020 A 
ATOM     30  C   UNL     1      19.205   6.451  21.205  0.00  0.00    +0.003 A 
ATOM     31  C   UNL     1      17.580   6.444  19.633  0.00  0.00    +0.087 A 
ATOM     32  C   UNL     1      19.470   5.420  20.301  0.00  0.00    +0.047 A 
ATOM     33  C   UNL     1      20.090   6.653  22.282  0.00  0.00    +0.010 A 
ATOM     34  C   UNL     1      20.581   4.576  20.422  0.00  0.00    +0.026 A 
ATOM     35  C   UNL     1      21.205   5.817  22.416  0.00  0.00    +0.001 A 
ATOM     36  C   UNL     1      21.444   4.795  21.500  0.00  0.00    +0.002 A 
ATOM     45  H   UNL     1      18.398   4.803  18.575  0.00  0.00    +0.165 HD
ENDBRANCH  23  26
ENDBRANCH  21  23
ENDBRANCH   8  21
ENDBRANCH  12  18
BRANCH  13   7
ATOM      5  O   UNL     1      12.688  10.534  23.018  0.00  0.00    -0.274 OA
ATOM      7  N   UNL     1      10.548   9.923  22.356  0.00  0.00    -0.309 N 
ATOM     19  C   UNL     1      11.467  10.660  23.088  0.00  0.00    +0.230 C 
ATOM     37  H   UNL     1       9.556  10.048  22.533  0.00  0.00    +0.149 HD
BRANCH  19  20
ATOM     20  C   UNL     1      10.799  11.647  24.040  0.00  0.00    +0.140 C 
BRANCH  20   9
ATOM      9  N   UNL     1      11.470  11.467  25.330  0.00  0.00    -0.309 NA
ATOM     29  C   UNL     1      12.304  12.617  25.638  0.00  0.00    +0.101 C 
ATOM     42  H   UNL     1      10.795  11.295  26.074  0.00  0.00    +0.122 HD
ENDBRANCH  20   9
BRANCH  20  22
ATOM     22  C   UNL     1      10.944  13.103  23.569  0.00  0.00    +0.031 C 
BRANCH  22  24
ATOM     24  C   UNL     1      10.693  13.316  22.061  0.00  0.00    -0.015 C 
ATOM     27  C   UNL     1       9.648  14.398  21.788  0.00  0.00    +0.007 C 
ATOM     28  C   UNL     1      12.008  13.681  21.366  0.00  0.00    +0.007 C 
ENDBRANCH  22  24
ENDBRANCH  20  22
ENDBRANCH  19  20
ENDBRANCH  13   7
BRANCH  12   1
ATOM      1  O   UNL     1      12.101   8.089  18.746  0.00  0.00    -0.379 OA
ATOM     38  H   UNL     1      11.576   7.272  18.705  0.00  0.00    +0.211 HD
ENDBRANCH  12   1
BRANCH  15   2
ATOM      2  O   UNL     1       9.437   7.232  22.306  0.00  0.00    -0.387 OA
ATOM     39  H   UNL     1       8.915   7.998  22.012  0.00  0.00    +0.210 HD
ENDBRANCH  15   2
BRANCH  17   3
ATOM      3  O   UNL     1      11.344   5.175  21.821  0.00  0.00    -0.389 OA
ATOM     40  H   UNL     1      11.064   5.363  22.733  0.00  0.00    +0.210 HD
ENDBRANCH  17   3
TORSDOF 13
ENDMDL
MODEL 3
REMARK VINA RESULT:      -7.3      3.219      4.204
REMARK  Name = 11882563
REMARK  16 active torsions:
REMARK  status: ('A' for Active; 'I' for Inactive)
REMARK    1  A    between atoms: O_1  and  C_12
REMARK    2  A    between atoms: O_2  and  C_15
REMARK    3  A    between atoms: O_3  and  C_17
REMARK    4  A    between atoms: N_7  and  C_13
REMARK    5  A    between atoms: N_8  and  C_21
REMARK    6  A    between atoms: N_9  and  C_20
REMARK    7  A    between atoms: N_9  and  C_29
REMARK    8  A    between atoms: C_12  and  C_18
REMARK    9  A    between atoms: C_19  and  C_20
REMARK   10  A    between atoms: C_20  and  C_22
REMARK   11  A    between atoms: C_21  and  C_23
REMARK   12  A    between atoms: C_21  and  C_25
REMARK   13  A    between atoms: C_22  and  C_24
REMARK   14  A    between atoms: C_23  and  C_26
REMARK   15  A    between atoms: C_24  and  C_27
REMARK   16  A    between atoms: C_24  and  C_28
REMARK                            x       y       z     vdW  Elec       q    Type
REMARK                         _______ _______ _______ _____ _____    ______ ____
ROOT
ATOM     12  C   UNL     1      15.831   6.996  21.065  0.00  0.00    +0.146 C 
ATOM     13  C   UNL     1      18.271   7.662  21.312  0.00  0.00    +0.107 C 
ATOM     14  C   UNL     1      16.814   8.137  21.335  0.00  0.00    +0.069 C 
ATOM     15  C   UNL     1      18.606   6.915  20.014  0.00  0.00    +0.163 C 
ATOM     16  C   UNL     1      16.165   6.273  19.762  0.00  0.00    +0.078 C 
ATOM     17  C   UNL     1      17.614   5.786  19.727  0.00  0.00    +0.148 C 
ENDROOT
BRANCH  12  18
ATOM      4  O   UNL     1      14.056   8.452  21.723  0.00  0.00    -0.273 OA
ATOM      8  N   UNL     1      13.625   6.789  20.153  0.00  0.00    -0.301 N 
ATOM     18  C   UNL     1      14.422   7.510  21.026  0.00  0.00    +0.246 C 
ATOM     41  H   UNL     1      14.060   6.103  19.543  0.00  0.00    +0.150 HD
BRANCH   8  21
ATOM     21  C   UNL     1      12.222   7.069  19.948  0.00  0.00    +0.163 C 
BRANCH  21  25
ATOM      6  O   UNL     1      11.128   7.180  22.114  0.00  0.00    -0.274 OA
ATOM     10  N   UNL     1      11.174   5.167  21.007  0.00  0.00    -0.328 N 
ATOM     25  C   UNL     1      11.473   6.506  21.146  0.00  0.00    +0.231 C 
ATOM     43  H   UNL     1      11.444   4.629  20.189  0.00  0.00    +0.145 HD
ATOM     44  H   UNL     1      10.664   4.671  21.730  0.00  0.00    +0.145 HD
ENDBRANCH  21  25
BRANCH  21  23
ATOM     23  C   UNL     1      11.947   8.571  19.799  0.00  0.00    +0.069 C 
BRANCH  23  26
ATOM     11  N   UNL     1      12.378   9.517  16.273  0.00  0.00    -0.360 N 
ATOM     26  C   UNL     1      12.344   9.113  18.455  0.00  0.00    -0.020 A 
ATOM     30  C   UNL     1      13.424   9.999  18.183  0.00  0.00    +0.003 A 
ATOM     31  C   UNL     1      11.720   8.835  17.261  0.00  0.00    +0.087 A 
ATOM     32  C   UNL     1      13.423  10.236  16.808  0.00  0.00    +0.047 A 
ATOM     33  C   UNL     1      14.405  10.623  18.979  0.00  0.00    +0.010 A 
ATOM     34  C   UNL     1      14.358  11.071  16.184  0.00  0.00    +0.026 A 
ATOM     35  C   UNL     1      15.346  11.461  18.369  0.00  0.00    +0.001 A 
ATOM     36  C   UNL     1      15.322  11.680  16.993  0.00  0.00    +0.002 A 
ATOM     45  H   UNL     1      12.132   9.496  15.293  0.00  0.00    +0.165 HD
ENDBRANCH  23  26
ENDBRANCH  21  23
ENDBRANCH   8  21
ENDBRANCH  12  18
BRANCH  13   7
ATOM      5  O   UNL     1      20.006   8.172  23.561  0.00  0.00    -0.274 OA
ATOM      7  N   UNL     1      19.156   8.793  21.492  0.00  0.00    -0.309 N 
ATOM     19  C   UNL     1      19.957   8.953  22.613  0.00  0.00    +0.230 C 
ATOM     37  H   UNL     1      19.129   9.527  20.791  0.00  0.00    +0.149 HD
BRANCH  19  20
ATOM     20  C   UNL     1      20.768  10.243  22.572  0.00  0.00    +0.140 C 
BRANCH  20   9
ATOM      9  N   UNL     1      22.101   9.888  23.066  0.00  0.00    -0.309 NA
ATOM     29  C   UNL     1      23.021   9.688  21.958  0.00  0.00    +0.101 C 
ATOM     42  H   UNL     1      22.453  10.593  23.710  0.00  0.00    +0.122 HD
ENDBRANCH  20   9
BRANCH  20  22
ATOM     22  C   UNL     1      20.870  10.825  21.152  0.00  0.00    +0.031 C 
BRANCH  22  24
ATOM     24  C   UNL     1      20.107  12.152  20.948  0.00  0.00    -0.015 C 
ATOM     27  C   UNL     1      19.011  12.039  19.887  0.00  0.00    +0.007 C 
ATOM     28  C   UNL     1      19.495  12.603  22.276  0.00  0.00    +0.007 C 
ENDBRANCH  22  24
ENDBRANCH  20  22
ENDBRANCH  19  20
ENDBRANCH  13   7
BRANCH  12   1
ATOM      1  O   UNL     1      15.852   6.057  22.135  0.00  0.00    -0.379 OA
ATOM     38  H   UNL     1      16.734   5.649  22.170  0.00  0.00    +0.211 HD
ENDBRANCH  12   1
BRANCH  15   2
ATOM      2  O   UNL     1      19.906   6.328  20.135  0.00  0.00    -0.387 OA
ATOM     39  H   UNL     1      20.468   6.944  20.636  0.00  0.00    +0.210 HD
ENDBRANCH  15   2
BRANCH  17   3
ATOM      3  O   UNL     1      17.892   5.257  18.431  0.00  0.00    -0.389 OA
ATOM     40  H   UNL     1      17.417   4.412  18.351  0.00  0.00    +0.210 HD
ENDBRANCH  17   3
TORSDOF 13
ENDMDL
MODEL 4
REMARK VINA RESULT:      -7.1     15.969     19.145
REMARK  Name = 11882563
REMARK  16 active torsions:
REMARK  status: ('A' for Active; 'I' for Inactive)
REMARK    1  A    between atoms: O_1  and  C_12
REMARK    2  A    between atoms: O_2  and  C_15
REMARK    3  A    between atoms: O_3  and  C_17
REMARK    4  A    between atoms: N_7  and  C_13
REMARK    5  A    between atoms: N_8  and  C_21
REMARK    6  A    between atoms: N_9  and  C_20
REMARK    7  A    between atoms: N_9  and  C_29
REMARK    8  A    between atoms: C_12  and  C_18
REMARK    9  A    between atoms: C_19  and  C_20
REMARK   10  A    between atoms: C_20  and  C_22
REMARK   11  A    between atoms: C_21  and  C_23
REMARK   12  A    between atoms: C_21  and  C_25
REMARK   13  A    between atoms: C_22  and  C_24
REMARK   14  A    between atoms: C_23  and  C_26
REMARK   15  A    between atoms: C_24  and  C_27
REMARK   16  A    between atoms: C_24  and  C_28
REMARK                            x       y       z     vdW  Elec       q    Type
REMARK                         _______ _______ _______ _____ _____    ______ ____
ROOT
ATOM     12  C   UNL     1      13.458   8.670   4.981  0.00  0.00    +0.146 C 
ATOM     13  C   UNL     1      14.946   7.352   3.399  0.00  0.00    +0.107 C 
ATOM     14  C   UNL     1      13.573   7.444   4.073  0.00  0.00    +0.069 C 
ATOM     15  C   UNL     1      16.089   7.415   4.421  0.00  0.00    +0.163 C 
ATOM     16  C   UNL     1      14.590   8.710   6.006  0.00  0.00    +0.078 C 
ATOM     17  C   UNL     1      15.967   8.627   5.346  0.00  0.00    +0.148 C 
ENDROOT
BRANCH  12  18
ATOM      4  O   UNL     1      12.037   8.624   6.900  0.00  0.00    -0.273 OA
ATOM      8  N   UNL     1      11.071   8.763   4.787  0.00  0.00    -0.301 N 
ATOM     18  C   UNL     1      12.129   8.689   5.678  0.00  0.00    +0.246 C 
ATOM     41  H   UNL     1      11.268   8.928   3.804  0.00  0.00    +0.150 HD
BRANCH   8  21
ATOM     21  C   UNL     1       9.687   8.775   5.202  0.00  0.00    +0.163 C 
BRANCH  21  25
ATOM      6  O   UNL     1       8.889  10.272   3.463  0.00  0.00    -0.274 OA
ATOM     10  N   UNL     1       8.675  10.921   5.657  0.00  0.00    -0.328 N 
ATOM     25  C   UNL     1       9.067  10.053   4.659  0.00  0.00    +0.231 C 
ATOM     43  H   UNL     1       8.805  10.715   6.642  0.00  0.00    +0.145 HD
ATOM     44  H   UNL     1       8.234  11.807   5.431  0.00  0.00    +0.145 HD
ENDBRANCH  21  25
BRANCH  21  23
ATOM     23  C   UNL     1       8.919   7.547   4.695  0.00  0.00    +0.069 C 
BRANCH  23  26
ATOM     11  N   UNL     1      10.079   4.208   5.702  0.00  0.00    -0.360 N 
ATOM     26  C   UNL     1       9.333   6.272   5.372  0.00  0.00    -0.020 A 
ATOM     30  C   UNL     1       9.291   6.001   6.769  0.00  0.00    +0.003 A 
ATOM     31  C   UNL     1       9.821   5.150   4.743  0.00  0.00    +0.087 A 
ATOM     32  C   UNL     1       9.765   4.700   6.948  0.00  0.00    +0.047 A 
ATOM     33  C   UNL     1       8.895   6.741   7.900  0.00  0.00    +0.010 A 
ATOM     34  C   UNL     1       9.862   4.099   8.208  0.00  0.00    +0.026 A 
ATOM     35  C   UNL     1       8.988   6.154   9.167  0.00  0.00    +0.001 A 
ATOM     36  C   UNL     1       9.464   4.852   9.317  0.00  0.00    +0.002 A 
ATOM     45  H   UNL     1      10.447   3.284   5.521  0.00  0.00    +0.165 HD
ENDBRANCH  23  26
ENDBRANCH  21  23
ENDBRANCH   8  21
ENDBRANCH  12  18
BRANCH  13   7
ATOM      5  O   UNL     1      14.669   7.099   0.536  0.00  0.00    -0.274 OA
ATOM      7  N   UNL     1      15.026   6.135   2.619  0.00  0.00    -0.309 N 
ATOM     19  C   UNL     1      14.880   6.112   1.240  0.00  0.00    +0.230 C 
ATOM     37  H   UNL     1      15.128   5.260   3.123  0.00  0.00    +0.149 HD
BRANCH  19  20
ATOM     20  C   UNL     1      14.974   4.702   0.666  0.00  0.00    +0.140 C 
BRANCH  20   9
ATOM      9  N   UNL     1      16.392   4.493   0.363  0.00  0.00    -0.309 NA
ATOM     29  C   UNL     1      16.578   4.217  -1.052  0.00  0.00    +0.101 C 
ATOM     42  H   UNL     1      16.951   5.293   0.655  0.00  0.00    +0.122 HD
ENDBRANCH  20   9
BRANCH  20  22
ATOM     22  C   UNL     1      14.483   3.634   1.657  0.00  0.00    +0.031 C 
BRANCH  22  24
ATOM     24  C   UNL     1      13.063   3.101   1.372  0.00  0.00    -0.015 C 
ATOM     27  C   UNL     1      11.990   3.828   2.184  0.00  0.00    +0.007 C 
ATOM     28  C   UNL     1      12.755   3.231  -0.123  0.00  0.00    +0.007 C 
ENDBRANCH  22  24
ENDBRANCH  20  22
ENDBRANCH  19  20
ENDBRANCH  13   7
BRANCH  12   1
ATOM      1  O   UNL     1      13.487   9.866   4.209  0.00  0.00    -0.379 OA
ATOM     38  H   UNL     1      13.031   9.699   3.367  0.00  0.00    +0.211 HD
ENDBRANCH  12   1
BRANCH  15   2
ATOM      2  O   UNL     1      17.333   7.526   3.723  0.00  0.00    -0.387 OA
ATOM     39  H   UNL     1      17.315   8.349   3.205  0.00  0.00    +0.210 HD
ENDBRANCH  15   2
BRANCH  17   3
ATOM      3  O   UNL     1      16.961   8.521   6.365  0.00  0.00    -0.389 OA
ATOM     40  H   UNL     1      16.891   9.312   6.926  0.00  0.00    +0.210 HD
ENDBRANCH  17   3
TORSDOF 13
ENDMDL
MODEL 5
REMARK VINA RESULT:      -7.1      2.119      3.417
REMARK  Name = 11882563
REMARK  16 active torsions:
REMARK  status: ('A' for Active; 'I' for Inactive)
REMARK    1  A    between atoms: O_1  and  C_12
REMARK    2  A    between atoms: O_2  and  C_15
REMARK    3  A    between atoms: O_3  and  C_17
REMARK    4  A    between atoms: N_7  and  C_13
REMARK    5  A    between atoms: N_8  and  C_21
REMARK    6  A    between atoms: N_9  and  C_20
REMARK    7  A    between atoms: N_9  and  C_29
REMARK    8  A    between atoms: C_12  and  C_18
REMARK    9  A    between atoms: C_19  and  C_20
REMARK   10  A    between atoms: C_20  and  C_22
REMARK   11  A    between atoms: C_21  and  C_23
REMARK   12  A    between atoms: C_21  and  C_25
REMARK   13  A    between atoms: C_22  and  C_24
REMARK   14  A    between atoms: C_23  and  C_26
REMARK   15  A    between atoms: C_24  and  C_27
REMARK   16  A    between atoms: C_24  and  C_28
REMARK                            x       y       z     vdW  Elec       q    Type
REMARK                         _______ _______ _______ _____ _____    ______ ____
ROOT
ATOM     12  C   UNL     1      15.963   7.469  20.582  0.00  0.00    +0.146 C 
ATOM     13  C   UNL     1      18.392   6.969  21.132  0.00  0.00    +0.107 C 
ATOM     14  C   UNL     1      17.296   8.039  21.071  0.00  0.00    +0.069 C 
ATOM     15  C   UNL     1      18.543   6.229  19.796  0.00  0.00    +0.163 C 
ATOM     16  C   UNL     1      16.122   6.753  19.243  0.00  0.00    +0.078 C 
ATOM     17  C   UNL     1      17.208   5.676  19.291  0.00  0.00    +0.148 C 
ENDROOT
BRANCH  12  18
ATOM      4  O   UNL     1      14.707   9.333  21.391  0.00  0.00    -0.273 OA
ATOM      8  N   UNL     1      14.292   8.543  19.241  0.00  0.00    -0.301 N 
ATOM     18  C   UNL     1      14.934   8.557  20.468  0.00  0.00    +0.246 C 
ATOM     41  H   UNL     1      14.640   7.929  18.511  0.00  0.00    +0.150 HD
BRANCH   8  21
ATOM     21  C   UNL     1      13.245   9.474  18.887  0.00  0.00    +0.163 C 
BRANCH  21  25
ATOM      6  O   UNL     1      14.574  10.242  17.004  0.00  0.00    -0.274 OA
ATOM     10  N   UNL     1      12.352   9.770  16.661  0.00  0.00    -0.328 N 
ATOM     25  C   UNL     1      13.483   9.887  17.442  0.00  0.00    +0.231 C 
ATOM     43  H   UNL     1      11.463   9.451  17.032  0.00  0.00    +0.145 HD
ATOM     44  H   UNL     1      12.377  10.002  15.673  0.00  0.00    +0.145 HD
ENDBRANCH  21  25
BRANCH  21  23
ATOM     23  C   UNL     1      11.847   8.863  19.048  0.00  0.00    +0.069 C 
BRANCH  23  26
ATOM     11  N   UNL     1      10.407   8.362  22.393  0.00  0.00    -0.360 N 
ATOM     26  C   UNL     1      11.333   8.932  20.457  0.00  0.00    -0.020 A 
ATOM     30  C   UNL     1      11.373  10.063  21.321  0.00  0.00    +0.003 A 
ATOM     31  C   UNL     1      10.733   7.902  21.145  0.00  0.00    +0.087 A 
ATOM     32  C   UNL     1      10.786   9.678  22.528  0.00  0.00    +0.047 A 
ATOM     33  C   UNL     1      11.853  11.381  21.190  0.00  0.00    +0.010 A 
ATOM     34  C   UNL     1      10.656  10.549  23.616  0.00  0.00    +0.026 A 
ATOM     35  C   UNL     1      11.730  12.263  22.269  0.00  0.00    +0.001 A 
ATOM     36  C   UNL     1      11.140  11.851  23.463  0.00  0.00    +0.002 A 
ATOM     45  H   UNL     1       9.955   7.813  23.111  0.00  0.00    +0.165 HD
ENDBRANCH  23  26
ENDBRANCH  21  23
ENDBRANCH   8  21
ENDBRANCH  12  18
BRANCH  13   7
ATOM      5  O   UNL     1      20.362   5.888  22.944  0.00  0.00    -0.274 OA
ATOM      7  N   UNL     1      19.646   7.577  21.521  0.00  0.00    -0.309 N 
ATOM     19  C   UNL     1      20.534   6.979  22.403  0.00  0.00    +0.230 C 
ATOM     37  H   UNL     1      19.841   8.513  21.178  0.00  0.00    +0.149 HD
BRANCH  19  20
ATOM     20  C   UNL     1      21.762   7.841  22.671  0.00  0.00    +0.140 C 
BRANCH  20   9
ATOM      9  N   UNL     1      22.154   7.551  24.053  0.00  0.00    -0.309 NA
ATOM     29  C   UNL     1      21.751   8.633  24.937  0.00  0.00    +0.101 C 
ATOM     42  H   UNL     1      21.767   6.662  24.365  0.00  0.00    +0.122 HD
ENDBRANCH  20   9
BRANCH  20  22
ATOM     22  C   UNL     1      22.923   7.519  21.716  0.00  0.00    +0.031 C 
BRANCH  22  24
ATOM     24  C   UNL     1      22.926   8.346  20.411  0.00  0.00    -0.015 C 
ATOM     27  C   UNL     1      22.442   9.781  20.627  0.00  0.00    +0.007 C 
ATOM     28  C   UNL     1      24.335   8.360  19.814  0.00  0.00    +0.007 C 
ENDBRANCH  22  24
ENDBRANCH  20  22
ENDBRANCH  19  20
ENDBRANCH  13   7
BRANCH  12   1
ATOM      1  O   UNL     1      15.431   6.558  21.537  0.00  0.00    -0.379 OA
ATOM     38  H   UNL     1      16.164   6.038  21.908  0.00  0.00    +0.211 HD
ENDBRANCH  12   1
BRANCH  15   2
ATOM      2  O   UNL     1      19.430   5.121  19.973  0.00  0.00    -0.387 OA
ATOM     39  H   UNL     1      19.302   4.774  20.872  0.00  0.00    +0.210 HD
ENDBRANCH  15   2
BRANCH  17   3
ATOM      3  O   UNL     1      17.401   5.156  17.976  0.00  0.00    -0.389 OA
ATOM     40  H   UNL     1      18.331   5.309  17.735  0.00  0.00    +0.210 HD
ENDBRANCH  17   3
TORSDOF 13
ENDMDL
MODEL 6
REMARK VINA RESULT:      -7.0      2.680      3.843
REMARK  Name = 11882563
REMARK  16 active torsions:
REMARK  status: ('A' for Active; 'I' for Inactive)
REMARK    1  A    between atoms: O_1  and  C_12
REMARK    2  A    between atoms: O_2  and  C_15
REMARK    3  A    between atoms: O_3  and  C_17
REMARK    4  A    between atoms: N_7  and  C_13
REMARK    5  A    between atoms: N_8  and  C_21
REMARK    6  A    between atoms: N_9  and  C_20
REMARK    7  A    between atoms: N_9  and  C_29
REMARK    8  A    between atoms: C_12  and  C_18
REMARK    9  A    between atoms: C_19  and  C_20
REMARK   10  A    between atoms: C_20  and  C_22
REMARK   11  A    between atoms: C_21  and  C_23
REMARK   12  A    between atoms: C_21  and  C_25
REMARK   13  A    between atoms: C_22  and  C_24
REMARK   14  A    between atoms: C_23  and  C_26
REMARK   15  A    between atoms: C_24  and  C_27
REMARK   16  A    between atoms: C_24  and  C_28
REMARK                            x       y       z     vdW  Elec       q    Type
REMARK                         _______ _______ _______ _____ _____    ______ ____
ROOT
ATOM     12  C   UNL     1      15.589   6.978  20.581  0.00  0.00    +0.146 C 
ATOM     13  C   UNL     1      18.035   6.947  21.265  0.00  0.00    +0.107 C 
ATOM     14  C   UNL     1      16.734   7.756  21.231  0.00  0.00    +0.069 C 
ATOM     15  C   UNL     1      18.418   6.424  19.874  0.00  0.00    +0.163 C 
ATOM     16  C   UNL     1      15.976   6.480  19.190  0.00  0.00    +0.078 C 
ATOM     17  C   UNL     1      17.269   5.663  19.209  0.00  0.00    +0.148 C 
ENDROOT
BRANCH  12  18
ATOM      4  O   UNL     1      14.268   8.905  21.081  0.00  0.00    -0.273 OA
ATOM      8  N   UNL     1      13.360   7.234  19.738  0.00  0.00    -0.301 N 
ATOM     18  C   UNL     1      14.352   7.826  20.501  0.00  0.00    +0.246 C 
ATOM     41  H   UNL     1      13.580   6.394  19.212  0.00  0.00    +0.150 HD
BRANCH   8  21
ATOM     21  C   UNL     1      12.064   7.836  19.523  0.00  0.00    +0.163 C 
BRANCH  21  25
ATOM      6  O   UNL     1      10.899   6.500  21.184  0.00  0.00    -0.274 OA
ATOM     10  N   UNL     1      10.989   8.777  21.472  0.00  0.00    -0.328 N 
ATOM     25  C   UNL     1      11.249   7.609  20.787  0.00  0.00    +0.231 C 
ATOM     43  H   UNL     1      11.307   9.684  21.145  0.00  0.00    +0.145 HD
ATOM     44  H   UNL     1      10.465   8.765  22.341  0.00  0.00    +0.145 HD
ENDBRANCH  21  25
BRANCH  21  23
ATOM     23  C   UNL     1      12.165   9.335  19.211  0.00  0.00    +0.069 C 
BRANCH  23  26
ATOM     11  N   UNL     1      12.574   9.627  15.570  0.00  0.00    -0.360 N 
ATOM     26  C   UNL     1      12.560   9.616  17.789  0.00  0.00    -0.020 A 
ATOM     30  C   UNL     1      13.667  10.399  17.355  0.00  0.00    +0.003 A 
ATOM     31  C   UNL     1      11.907   9.156  16.668  0.00  0.00    +0.087 A 
ATOM     32  C   UNL     1      13.652  10.389  15.959  0.00  0.00    +0.047 A 
ATOM     33  C   UNL     1      14.682  11.115  18.018  0.00  0.00    +0.010 A 
ATOM     34  C   UNL     1      14.606  11.065  15.189  0.00  0.00    +0.026 A 
ATOM     35  C   UNL     1      15.643  11.796  17.262  0.00  0.00    +0.001 A 
ATOM     36  C   UNL     1      15.604  11.769  15.869  0.00  0.00    +0.002 A 
ATOM     45  H   UNL     1      12.312   9.444  14.611  0.00  0.00    +0.165 HD
ENDBRANCH  23  26
ENDBRANCH  21  23
ENDBRANCH   8  21
ENDBRANCH  12  18
BRANCH  13   7
ATOM      5  O   UNL     1      20.165   6.072  23.007  0.00  0.00    -0.274 OA
ATOM      7  N   UNL     1      19.100   7.757  21.816  0.00  0.00    -0.309 N 
ATOM     19  C   UNL     1      20.085   7.246  22.648  0.00  0.00    +0.230 C 
ATOM     37  H   UNL     1      19.075   8.755  21.630  0.00  0.00    +0.149 HD
BRANCH  19  20
ATOM     20  C   UNL     1      21.067   8.314  23.116  0.00  0.00    +0.140 C 
BRANCH  20   9
ATOM      9  N   UNL     1      20.326   9.577  23.074  0.00  0.00    -0.309 NA
ATOM     29  C   UNL     1      21.234  10.696  22.875  0.00  0.00    +0.101 C 
ATOM     42  H   UNL     1      19.609   9.557  22.352  0.00  0.00    +0.122 HD
ENDBRANCH  20   9
BRANCH  20  22
ATOM     22  C   UNL     1      21.581   8.051  24.541  0.00  0.00    +0.031 C 
BRANCH  22  24
ATOM     24  C   UNL     1      20.535   8.288  25.652  0.00  0.00    -0.015 C 
ATOM     27  C   UNL     1      20.263   7.029  26.477  0.00  0.00    +0.007 C 
ATOM     28  C   UNL     1      21.008   9.416  26.573  0.00  0.00    +0.007 C 
ENDBRANCH  22  24
ENDBRANCH  20  22
ENDBRANCH  19  20
ENDBRANCH  13   7
BRANCH  12   1
ATOM      1  O   UNL     1      15.221   5.865  21.387  0.00  0.00    -0.379 OA
ATOM     38  H   UNL     1      15.796   5.115  21.157  0.00  0.00    +0.211 HD
ENDBRANCH  12   1
BRANCH  15   2
ATOM      2  O   UNL     1      19.519   5.518  20.002  0.00  0.00    -0.387 OA
ATOM     39  H   UNL     1      19.633   5.316  20.946  0.00  0.00    +0.210 HD
ENDBRANCH  15   2
BRANCH  17   3
ATOM      3  O   UNL     1      17.643   5.361  17.866  0.00  0.00    -0.389 OA
ATOM     40  H   UNL     1      18.020   6.169  17.477  0.00  0.00    +0.210 HD
ENDBRANCH  17   3
TORSDOF 13
ENDMDL
MODEL 7
REMARK VINA RESULT:      -6.9     26.348     30.768
REMARK  Name = 11882563
REMARK  16 active torsions:
REMARK  status: ('A' for Active; 'I' for Inactive)
REMARK    1  A    between atoms: O_1  and  C_12
REMARK    2  A    between atoms: O_2  and  C_15
REMARK    3  A    between atoms: O_3  and  C_17
REMARK    4  A    between atoms: N_7  and  C_13
REMARK    5  A    between atoms: N_8  and  C_21
REMARK    6  A    between atoms: N_9  and  C_20
REMARK    7  A    between atoms: N_9  and  C_29
REMARK    8  A    between atoms: C_12  and  C_18
REMARK    9  A    between atoms: C_19  and  C_20
REMARK   10  A    between atoms: C_20  and  C_22
REMARK   11  A    between atoms: C_21  and  C_23
REMARK   12  A    between atoms: C_21  and  C_25
REMARK   13  A    between atoms: C_22  and  C_24
REMARK   14  A    between atoms: C_23  and  C_26
REMARK   15  A    between atoms: C_24  and  C_27
REMARK   16  A    between atoms: C_24  and  C_28
REMARK                            x       y       z     vdW  Elec       q    Type
REMARK                         _______ _______ _______ _____ _____    ______ ____
ROOT
ATOM     12  C   UNL     1      -5.321 -11.424  16.440  0.00  0.00    +0.146 C 
ATOM     13  C   UNL     1      -7.324 -11.123  17.973  0.00  0.00    +0.107 C 
ATOM     14  C   UNL     1      -6.593 -10.622  16.724  0.00  0.00    +0.069 C 
ATOM     15  C   UNL     1      -6.398 -11.175  19.195  0.00  0.00    +0.163 C 
ATOM     16  C   UNL     1      -4.399 -11.451  17.657  0.00  0.00    +0.078 C 
ATOM     17  C   UNL     1      -5.113 -11.957  18.911  0.00  0.00    +0.148 C 
ENDROOT
BRANCH  12  18
ATOM      4  O   UNL     1      -5.181 -10.247  14.366  0.00  0.00    -0.273 OA
ATOM      8  N   UNL     1      -3.239 -11.140  15.288  0.00  0.00    -0.301 N 
ATOM     18  C   UNL     1      -4.595 -10.861  15.253  0.00  0.00    +0.246 C 
ATOM     41  H   UNL     1      -2.844 -11.556  16.126  0.00  0.00    +0.150 HD
BRANCH   8  21
ATOM     21  C   UNL     1      -2.321 -10.727  14.251  0.00  0.00    +0.163 C 
BRANCH  21  25
ATOM      6  O   UNL     1      -0.721  -8.926  14.562  0.00  0.00    -0.274 OA
ATOM     10  N   UNL     1      -0.710 -10.674  16.052  0.00  0.00    -0.328 N 
ATOM     25  C   UNL     1      -1.168 -10.008  14.934  0.00  0.00    +0.231 C 
ATOM     43  H   UNL     1      -1.106 -11.556  16.363  0.00  0.00    +0.145 HD
ATOM     44  H   UNL     1       0.049 -10.296  16.609  0.00  0.00    +0.145 HD
ENDBRANCH  21  25
BRANCH  21  23
ATOM     23  C   UNL     1      -1.802 -11.915  13.430  0.00  0.00    +0.069 C 
BRANCH  23  26
ATOM     11  N   UNL     1      -3.826 -13.264  10.674  0.00  0.00    -0.360 N 
ATOM     26  C   UNL     1      -2.633 -12.195  12.210  0.00  0.00    -0.020 A 
ATOM     30  C   UNL     1      -3.052 -11.248  11.233  0.00  0.00    +0.003 A 
ATOM     31  C   UNL     1      -3.124 -13.425  11.838  0.00  0.00    +0.087 A 
ATOM     32  C   UNL     1      -3.799 -11.945  10.282  0.00  0.00    +0.047 A 
ATOM     33  C   UNL     1      -2.867  -9.861  11.069  0.00  0.00    +0.010 A 
ATOM     34  C   UNL     1      -4.373 -11.321   9.168  0.00  0.00    +0.026 A 
ATOM     35  C   UNL     1      -3.436  -9.223   9.960  0.00  0.00    +0.001 A 
ATOM     36  C   UNL     1      -4.177  -9.944   9.025  0.00  0.00    +0.002 A 
ATOM     45  H   UNL     1      -4.297 -14.006  10.175  0.00  0.00    +0.165 HD
ENDBRANCH  23  26
ENDBRANCH  21  23
ENDBRANCH   8  21
ENDBRANCH  12  18
BRANCH  13   7
ATOM      5  O   UNL     1     -10.075 -11.660  17.282  0.00  0.00    -0.274 OA
ATOM      7  N   UNL     1      -8.471 -10.281  18.239  0.00  0.00    -0.309 N 
ATOM     19  C   UNL     1      -9.762 -10.625  17.868  0.00  0.00    +0.230 C 
ATOM     37  H   UNL     1      -8.299  -9.372  18.657  0.00  0.00    +0.149 HD
BRANCH  19  20
ATOM     20  C   UNL     1     -10.781  -9.551  18.234  0.00  0.00    +0.140 C 
BRANCH  20   9
ATOM      9  N   UNL     1     -10.841  -9.546  19.698  0.00  0.00    -0.309 NA
ATOM     29  C   UNL     1     -11.869 -10.460  20.170  0.00  0.00    +0.101 C 
ATOM     42  H   UNL     1      -9.935  -9.775  20.103  0.00  0.00    +0.122 HD
ENDBRANCH  20   9
BRANCH  20  22
ATOM     22  C   UNL     1     -10.375  -8.160  17.718  0.00  0.00    +0.031 C 
BRANCH  22  24
ATOM     24  C   UNL     1     -11.042  -7.751  16.387  0.00  0.00    -0.015 C 
ATOM     27  C   UNL     1     -11.282  -6.244  16.292  0.00  0.00    +0.007 C 
ATOM     28  C   UNL     1     -10.173  -8.211  15.213  0.00  0.00    +0.007 C 
ENDBRANCH  22  24
ENDBRANCH  20  22
ENDBRANCH  19  20
ENDBRANCH  13   7
BRANCH  12   1
ATOM      1  O   UNL     1      -5.646 -12.760  16.074  0.00  0.00    -0.379 OA
ATOM     38  H   UNL     1      -5.564 -13.324  16.861  0.00  0.00    +0.211 HD
ENDBRANCH  12   1
BRANCH  15   2
ATOM      2  O   UNL     1      -7.076 -11.833  20.269  0.00  0.00    -0.387 OA
ATOM     39  H   UNL     1      -7.854 -12.285  19.901  0.00  0.00    +0.210 HD
ENDBRANCH  15   2
BRANCH  17   3
ATOM      3  O   UNL     1      -4.239 -11.815  20.030  0.00  0.00    -0.389 OA
ATOM     40  H   UNL     1      -4.640 -11.168  20.634  0.00  0.00    +0.210 HD
ENDBRANCH  17   3
TORSDOF 13
ENDMDL
MODEL 8
REMARK VINA RESULT:      -6.7     28.268     31.796
REMARK  Name = 11882563
REMARK  16 active torsions:
REMARK  status: ('A' for Active; 'I' for Inactive)
REMARK    1  A    between atoms: O_1  and  C_12
REMARK    2  A    between atoms: O_2  and  C_15
REMARK    3  A    between atoms: O_3  and  C_17
REMARK    4  A    between atoms: N_7  and  C_13
REMARK    5  A    between atoms: N_8  and  C_21
REMARK    6  A    between atoms: N_9  and  C_20
REMARK    7  A    between atoms: N_9  and  C_29
REMARK    8  A    between atoms: C_12  and  C_18
REMARK    9  A    between atoms: C_19  and  C_20
REMARK   10  A    between atoms: C_20  and  C_22
REMARK   11  A    between atoms: C_21  and  C_23
REMARK   12  A    between atoms: C_21  and  C_25
REMARK   13  A    between atoms: C_22  and  C_24
REMARK   14  A    between atoms: C_23  and  C_26
REMARK   15  A    between atoms: C_24  and  C_27
REMARK   16  A    between atoms: C_24  and  C_28
REMARK                            x       y       z     vdW  Elec       q    Type
REMARK                         _______ _______ _______ _____ _____    ______ ____
ROOT
ATOM     12  C   UNL     1     -17.100   3.553  24.460  0.00  0.00    +0.146 C 
ATOM     13  C   UNL     1     -16.440   2.862  26.814  0.00  0.00    +0.107 C 
ATOM     14  C   UNL     1     -16.132   3.776  25.623  0.00  0.00    +0.069 C 
ATOM     15  C   UNL     1     -16.503   1.386  26.398  0.00  0.00    +0.163 C 
ATOM     16  C   UNL     1     -17.138   2.084  24.043  0.00  0.00    +0.078 C 
ATOM     17  C   UNL     1     -17.454   1.159  25.220  0.00  0.00    +0.148 C 
ENDROOT
BRANCH  12  18
ATOM      4  O   UNL     1     -16.409   3.930  22.204  0.00  0.00    -0.273 OA
ATOM      8  N   UNL     1     -16.762   5.762  23.595  0.00  0.00    -0.301 N 
ATOM     18  C   UNL     1     -16.725   4.413  23.288  0.00  0.00    +0.246 C 
ATOM     41  H   UNL     1     -17.148   6.052  24.489  0.00  0.00    +0.150 HD
BRANCH   8  21
ATOM     21  C   UNL     1     -16.423   6.799  22.647  0.00  0.00    +0.163 C 
BRANCH  21  25
ATOM      6  O   UNL     1     -18.384   7.847  21.668  0.00  0.00    -0.274 OA
ATOM     10  N   UNL     1     -17.708   8.516  23.759  0.00  0.00    -0.328 N 
ATOM     25  C   UNL     1     -17.594   7.769  22.606  0.00  0.00    +0.231 C 
ATOM     43  H   UNL     1     -17.063   8.422  24.537  0.00  0.00    +0.145 HD
ATOM     44  H   UNL     1     -18.457   9.193  23.868  0.00  0.00    +0.145 HD
ENDBRANCH  21  25
BRANCH  21  23
ATOM     23  C   UNL     1     -15.131   7.532  23.027  0.00  0.00    +0.069 C 
BRANCH  23  26
ATOM     11  N   UNL     1     -12.412   5.869  21.195  0.00  0.00    -0.360 N 
ATOM     26  C   UNL     1     -13.951   7.118  22.194  0.00  0.00    -0.020 A 
ATOM     30  C   UNL     1     -13.095   7.978  21.450  0.00  0.00    +0.003 A 
ATOM     31  C   UNL     1     -13.506   5.828  22.017  0.00  0.00    +0.087 A 
ATOM     32  C   UNL     1     -12.139   7.169  20.833  0.00  0.00    +0.047 A 
ATOM     33  C   UNL     1     -13.042   9.370  21.242  0.00  0.00    +0.010 A 
ATOM     34  C   UNL     1     -11.128   7.685  20.014  0.00  0.00    +0.026 A 
ATOM     35  C   UNL     1     -12.037   9.901  20.425  0.00  0.00    +0.001 A 
ATOM     36  C   UNL     1     -11.095   9.069  19.821  0.00  0.00    +0.002 A 
ATOM     45  H   UNL     1     -11.883   5.062  20.896  0.00  0.00    +0.165 HD
ENDBRANCH  23  26
ENDBRANCH  21  23
ENDBRANCH   8  21
ENDBRANCH  12  18
BRANCH  13   7
ATOM      5  O   UNL     1     -16.840   2.658  29.665  0.00  0.00    -0.274 OA
ATOM      7  N   UNL     1     -15.449   3.057  27.849  0.00  0.00    -0.309 N 
ATOM     19  C   UNL     1     -15.736   2.938  29.201  0.00  0.00    +0.230 C 
ATOM     37  H   UNL     1     -14.524   3.361  27.562  0.00  0.00    +0.149 HD
BRANCH  19  20
ATOM     20  C   UNL     1     -14.526   3.226  30.083  0.00  0.00    +0.140 C 
BRANCH  20   9
ATOM      9  N   UNL     1     -15.068   3.750  31.339  0.00  0.00    -0.309 NA
ATOM     29  C   UNL     1     -15.199   5.197  31.276  0.00  0.00    +0.101 C 
ATOM     42  H   UNL     1     -15.960   3.313  31.564  0.00  0.00    +0.122 HD
ENDBRANCH  20   9
BRANCH  20  22
ATOM     22  C   UNL     1     -13.687   1.967  30.355  0.00  0.00    +0.031 C 
BRANCH  22  24
ATOM     24  C   UNL     1     -14.462   0.639  30.214  0.00  0.00    -0.015 C 
ATOM     27  C   UNL     1     -13.630  -0.456  29.545  0.00  0.00    +0.007 C 
ATOM     28  C   UNL     1     -14.926   0.164  31.594  0.00  0.00    +0.007 C 
ENDBRANCH  22  24
ENDBRANCH  20  22
ENDBRANCH  19  20
ENDBRANCH  13   7
BRANCH  12   1
ATOM      1  O   UNL     1     -18.413   3.969  24.817  0.00  0.00    -0.379 OA
ATOM     38  H   UNL     1     -18.713   4.629  24.169  0.00  0.00    +0.211 HD
ENDBRANCH  12   1
BRANCH  15   2
ATOM      2  O   UNL     1     -16.988   0.611  27.499  0.00  0.00    -0.387 OA
ATOM     39  H   UNL     1     -17.135   1.212  28.249  0.00  0.00    +0.210 HD
ENDBRANCH  15   2
BRANCH  17   3
ATOM      3  O   UNL     1     -17.327  -0.196  24.790  0.00  0.00    -0.389 OA
ATOM     40  H   UNL     1     -16.768  -0.657  25.438  0.00  0.00    +0.210 HD
ENDBRANCH  17   3
TORSDOF 13
ENDMDL
MODEL 9
REMARK VINA RESULT:      -6.7     15.779     19.114
REMARK  Name = 11882563
REMARK  16 active torsions:
REMARK  status: ('A' for Active; 'I' for Inactive)
REMARK    1  A    between atoms: O_1  and  C_12
REMARK    2  A    between atoms: O_2  and  C_15
REMARK    3  A    between atoms: O_3  and  C_17
REMARK    4  A    between atoms: N_7  and  C_13
REMARK    5  A    between atoms: N_8  and  C_21
REMARK    6  A    between atoms: N_9  and  C_20
REMARK    7  A    between atoms: N_9  and  C_29
REMARK    8  A    between atoms: C_12  and  C_18
REMARK    9  A    between atoms: C_19  and  C_20
REMARK   10  A    between atoms: C_20  and  C_22
REMARK   11  A    between atoms: C_21  and  C_23
REMARK   12  A    between atoms: C_21  and  C_25
REMARK   13  A    between atoms: C_22  and  C_24
REMARK   14  A    between atoms: C_23  and  C_26
REMARK   15  A    between atoms: C_24  and  C_27
REMARK   16  A    between atoms: C_24  and  C_28
REMARK                            x       y       z     vdW  Elec       q    Type
REMARK                         _______ _______ _______ _____ _____    ______ ____
ROOT
ATOM     12  C   UNL     1      14.490   7.408   3.558  0.00  0.00    +0.146 C 
ATOM     13  C   UNL     1      13.459   8.121   5.767  0.00  0.00    +0.107 C 
ATOM     14  C   UNL     1      13.225   7.434   4.418  0.00  0.00    +0.069 C 
ATOM     15  C   UNL     1      14.063   9.521   5.597  0.00  0.00    +0.163 C 
ATOM     16  C   UNL     1      15.070   8.809   3.380  0.00  0.00    +0.078 C 
ATOM     17  C   UNL     1      15.317   9.505   4.720  0.00  0.00    +0.148 C 
ENDROOT
BRANCH  12  18
ATOM      4  O   UNL     1      14.602   7.301   1.174  0.00  0.00    -0.273 OA
ATOM      8  N   UNL     1      13.451   5.636   2.323  0.00  0.00    -0.301 N 
ATOM     18  C   UNL     1      14.206   6.792   2.218  0.00  0.00    +0.246 C 
ATOM     41  H   UNL     1      13.277   5.245   3.244  0.00  0.00    +0.150 HD
BRANCH   8  21
ATOM     21  C   UNL     1      13.024   4.864   1.178  0.00  0.00    +0.163 C 
BRANCH  21  25
ATOM      6  O   UNL     1      13.201   2.476   0.768  0.00  0.00    -0.274 OA
ATOM     10  N   UNL     1      14.805   3.491   2.063  0.00  0.00    -0.328 N 
ATOM     25  C   UNL     1      13.649   3.484   1.311  0.00  0.00    +0.231 C 
ATOM     43  H   UNL     1      15.177   4.336   2.484  0.00  0.00    +0.145 HD
ATOM     44  H   UNL     1      15.330   2.636   2.218  0.00  0.00    +0.145 HD
ENDBRANCH  21  25
BRANCH  21  23
ATOM     23  C   UNL     1      11.497   4.757   1.088  0.00  0.00    +0.069 C 
BRANCH  23  26
ATOM     11  N   UNL     1      10.082   5.167   4.455  0.00  0.00    -0.360 N 
ATOM     26  C   UNL     1      10.801   5.163   2.356  0.00  0.00    -0.020 A 
ATOM     30  C   UNL     1       9.986   6.315   2.544  0.00  0.00    +0.003 A 
ATOM     31  C   UNL     1      10.841   4.478   3.548  0.00  0.00    +0.087 A 
ATOM     32  C   UNL     1       9.548   6.293   3.870  0.00  0.00    +0.047 A 
ATOM     33  C   UNL     1       9.579   7.375   1.712  0.00  0.00    +0.010 A 
ATOM     34  C   UNL     1       8.719   7.285   4.408  0.00  0.00    +0.026 A 
ATOM     35  C   UNL     1       8.750   8.375   2.236  0.00  0.00    +0.001 A 
ATOM     36  C   UNL     1       8.328   8.328   3.563  0.00  0.00    +0.002 A 
ATOM     45  H   UNL     1       9.936   4.891   5.417  0.00  0.00    +0.165 HD
ENDBRANCH  23  26
ENDBRANCH  21  23
ENDBRANCH   8  21
ENDBRANCH  12  18
BRANCH  13   7
ATOM      5  O   UNL     1      12.400   6.141   7.581  0.00  0.00    -0.274 OA
ATOM      7  N   UNL     1      12.215   8.189   6.503  0.00  0.00    -0.309 N 
ATOM     19  C   UNL     1      11.787   7.183   7.356  0.00  0.00    +0.230 C 
ATOM     37  H   UNL     1      11.607   8.983   6.326  0.00  0.00    +0.149 HD
BRANCH  19  20
ATOM     20  C   UNL     1      10.429   7.485   7.981  0.00  0.00    +0.140 C 
BRANCH  20   9
ATOM      9  N   UNL     1       9.917   8.657   7.266  0.00  0.00    -0.309 NA
ATOM     29  C   UNL     1       9.427   9.655   8.202  0.00  0.00    +0.101 C 
ATOM     42  H   UNL     1      10.627   9.051   6.651  0.00  0.00    +0.122 HD
ENDBRANCH  20   9
BRANCH  20  22
ATOM     22  C   UNL     1       9.446   6.311   7.840  0.00  0.00    +0.031 C 
BRANCH  22  24
ATOM     24  C   UNL     1       9.781   5.087   8.721  0.00  0.00    -0.015 C 
ATOM     27  C   UNL     1       8.855   4.967   9.932  0.00  0.00    +0.007 C 
ATOM     28  C   UNL     1       9.700   3.810   7.881  0.00  0.00    +0.007 C 
ENDBRANCH  22  24
ENDBRANCH  20  22
ENDBRANCH  19  20
ENDBRANCH  13   7
BRANCH  12   1
ATOM      1  O   UNL     1      15.477   6.568   4.148  0.00  0.00    -0.379 OA
ATOM     38  H   UNL     1      16.354   6.886   3.875  0.00  0.00    +0.211 HD
ENDBRANCH  12   1
BRANCH  15   2
ATOM      2  O   UNL     1      14.441  10.026   6.882  0.00  0.00    -0.387 OA
ATOM     39  H   UNL     1      15.412  10.056   6.919  0.00  0.00    +0.210 HD
ENDBRANCH  15   2
BRANCH  17   3
ATOM      3  O   UNL     1      15.715  10.853   4.474  0.00  0.00    -0.389 OA
ATOM     40  H   UNL     1      16.613  10.830   4.101  0.00  0.00    +0.210 HD
ENDBRANCH  17   3
TORSDOF 13
ENDMDL
MODEL 10
REMARK VINA RESULT:      -6.6     27.864     31.630
REMARK  Name = 11882563
REMARK  16 active torsions:
REMARK  status: ('A' for Active; 'I' for Inactive)
REMARK    1  A    between atoms: O_1  and  C_12
REMARK    2  A    between atoms: O_2  and  C_15
REMARK    3  A    between atoms: O_3  and  C_17
REMARK    4  A    between atoms: N_7  and  C_13
REMARK    5  A    between atoms: N_8  and  C_21
REMARK    6  A    between atoms: N_9  and  C_20
REMARK    7  A    between atoms: N_9  and  C_29
REMARK    8  A    between atoms: C_12  and  C_18
REMARK    9  A    between atoms: C_19  and  C_20
REMARK   10  A    between atoms: C_20  and  C_22
REMARK   11  A    between atoms: C_21  and  C_23
REMARK   12  A    between atoms: C_21  and  C_25
REMARK   13  A    between atoms: C_22  and  C_24
REMARK   14  A    between atoms: C_23  and  C_26
REMARK   15  A    between atoms: C_24  and  C_27
REMARK   16  A    between atoms: C_24  and  C_28
REMARK                            x       y       z     vdW  Elec       q    Type
REMARK                         _______ _______ _______ _____ _____    ______ ____
ROOT
ATOM     12  C   UNL     1     -14.418   6.716  33.330  0.00  0.00    +0.146 C 
ATOM     13  C   UNL     1     -14.607   4.317  32.515  0.00  0.00    +0.107 C 
ATOM     14  C   UNL     1     -14.299   5.769  32.134  0.00  0.00    +0.069 C 
ATOM     15  C   UNL     1     -15.967   4.186  33.213  0.00  0.00    +0.163 C 
ATOM     16  C   UNL     1     -15.783   6.590  34.003  0.00  0.00    +0.078 C 
ATOM     17  C   UNL     1     -16.101   5.147  34.397  0.00  0.00    +0.148 C 
ENDROOT
BRANCH  12  18
ATOM      4  O   UNL     1     -15.103   8.930  32.752  0.00  0.00    -0.273 OA
ATOM      8  N   UNL     1     -12.837   8.402  32.698  0.00  0.00    -0.301 N 
ATOM     18  C   UNL     1     -14.180   8.136  32.905  0.00  0.00    +0.246 C 
ATOM     41  H   UNL     1     -12.150   7.703  32.966  0.00  0.00    +0.150 HD
BRANCH   8  21
ATOM     21  C   UNL     1     -12.344   9.689  32.264  0.00  0.00    +0.163 C 
BRANCH  21  25
ATOM      6  O   UNL     1     -11.770  10.816  34.339  0.00  0.00    -0.274 OA
ATOM     10  N   UNL     1     -10.088   9.838  33.118  0.00  0.00    -0.328 N 
ATOM     25  C   UNL     1     -11.400  10.195  33.345  0.00  0.00    +0.231 C 
ATOM     43  H   UNL     1      -9.801   9.303  32.304  0.00  0.00    +0.145 HD
ATOM     44  H   UNL     1      -9.357  10.101  33.771  0.00  0.00    +0.145 HD
ENDBRANCH  21  25
BRANCH  21  23
ATOM     23  C   UNL     1     -11.620   9.608  30.914  0.00  0.00    +0.069 C 
BRANCH  23  26
ATOM     11  N   UNL     1     -14.064  11.133  28.631  0.00  0.00    -0.360 N 
ATOM     26  C   UNL     1     -12.413  10.201  29.784  0.00  0.00    -0.020 A 
ATOM     30  C   UNL     1     -11.977  10.367  28.439  0.00  0.00    +0.003 A 
ATOM     31  C   UNL     1     -13.699  10.681  29.870  0.00  0.00    +0.087 A 
ATOM     32  C   UNL     1     -13.032  10.954  27.737  0.00  0.00    +0.047 A 
ATOM     33  C   UNL     1     -10.784  10.073  27.750  0.00  0.00    +0.010 A 
ATOM     34  C   UNL     1     -12.953  11.264  26.374  0.00  0.00    +0.026 A 
ATOM     35  C   UNL     1     -10.690  10.378  26.387  0.00  0.00    +0.001 A 
ATOM     36  C   UNL     1     -11.759  10.963  25.711  0.00  0.00    +0.002 A 
ATOM     45  H   UNL     1     -14.961  11.541  28.404  0.00  0.00    +0.165 HD
ENDBRANCH  23  26
ENDBRANCH  21  23
ENDBRANCH   8  21
ENDBRANCH  12  18
BRANCH  13   7
ATOM      5  O   UNL     1     -13.594   1.620  32.333  0.00  0.00    -0.274 OA
ATOM      7  N   UNL     1     -14.558   3.482  31.334  0.00  0.00    -0.309 N 
ATOM     19  C   UNL     1     -14.051   2.191  31.343  0.00  0.00    +0.230 C 
ATOM     37  H   UNL     1     -14.849   3.895  30.454  0.00  0.00    +0.149 HD
BRANCH  19  20
ATOM     20  C   UNL     1     -14.083   1.540  29.965  0.00  0.00    +0.140 C 
BRANCH  20   9
ATOM      9  N   UNL     1     -13.140   0.421  30.034  0.00  0.00    -0.309 NA
ATOM     29  C   UNL     1     -13.775  -0.811  29.593  0.00  0.00    +0.101 C 
ATOM     42  H   UNL     1     -12.301   0.614  29.490  0.00  0.00    +0.122 HD
ENDBRANCH  20   9
BRANCH  20  22
ATOM     22  C   UNL     1     -15.484   1.027  29.593  0.00  0.00    +0.031 C 
BRANCH  22  24
ATOM     24  C   UNL     1     -16.222   1.884  28.542  0.00  0.00    -0.015 C 
ATOM     27  C   UNL     1     -16.703   1.059  27.347  0.00  0.00    +0.007 C 
ATOM     28  C   UNL     1     -17.414   2.589  29.196  0.00  0.00    +0.007 C 
ENDBRANCH  22  24
ENDBRANCH  20  22
ENDBRANCH  19  20
ENDBRANCH  13   7
BRANCH  12   1
ATOM      1  O   UNL     1     -13.401   6.441  34.286  0.00  0.00    -0.379 OA
ATOM     38  H   UNL     1     -13.315   5.477  34.376  0.00  0.00    +0.211 HD
ENDBRANCH  12   1
BRANCH  15   2
ATOM      2  O   UNL     1     -16.107   2.855  33.718  0.00  0.00    -0.387 OA
ATOM     39  H   UNL     1     -16.649   2.350  33.089  0.00  0.00    +0.210 HD
ENDBRANCH  15   2
BRANCH  17   3
ATOM      3  O   UNL     1     -17.442   5.085  34.881  0.00  0.00    -0.389 OA
ATOM     40  H   UNL     1     -17.805   5.986  34.854  0.00  0.00    +0.210 HD
ENDBRANCH  17   3
TORSDOF 13
ENDMDL
