REMARK  Name = 51138117
REMARK  9 active torsions:
REMARK  status: ('A' for Active; 'I' for Inactive)
REMARK    1  A    between atoms: N_3  and  C_8
REMARK    2  A    between atoms: N_4  and  C_25
REMARK    3  A    between atoms: C_5  and  C_8
REMARK    4  A    between atoms: C_9  and  C_15
REMARK    5  A    between atoms: C_10  and  C_16
REMARK    6  A    between atoms: C_15  and  C_18
REMARK    7  A    between atoms: C_18  and  C_23
REMARK    8  A    between atoms: C_18  and  C_24
REMARK    9  A    between atoms: C_25  and  C_26
REMARK                            x       y       z     vdW  Elec       q    Type
REMARK                         _______ _______ _______ _____ _____    ______ ____
ROOT
ATOM      2  N   UNL     1      -1.009  -0.251  -0.521  0.00  0.00    -0.299 NA
ATOM      4  N   UNL     1       3.772   1.203   0.211  0.00  0.00    -0.343 N 
ATOM      9  C   UNL     1      -0.364  -1.353   0.206  0.00  0.00    +0.085 C 
ATOM     10  C   UNL     1      -0.931   1.043   0.142  0.00  0.00    +0.145 C 
ATOM     11  C   UNL     1       0.224   1.883  -0.400  0.00  0.00    +0.065 C 
ATOM     12  C   UNL     1       1.152  -1.236   0.392  0.00  0.00    -0.021 A 
ATOM     13  C   UNL     1       1.908  -0.039   0.232  0.00  0.00    +0.008 A 
ATOM     14  C   UNL     1       1.573   1.319  -0.104  0.00  0.00    -0.020 A 
ATOM     17  C   UNL     1       3.291  -0.064   0.446  0.00  0.00    +0.050 A 
ATOM     19  C   UNL     1       2.748   2.042  -0.114  0.00  0.00    +0.090 A 
ATOM     20  C   UNL     1       1.871  -2.376   0.833  0.00  0.00    +0.006 A 
ATOM     21  C   UNL     1       3.989  -1.208   0.834  0.00  0.00    +0.026 A 
ATOM     22  C   UNL     1       3.249  -2.367   1.038  0.00  0.00    +0.002 A 
ATOM     28  H   UNL     1      -0.663  -0.196  -1.479  0.00  0.00    +0.123 HD
ENDROOT
BRANCH  10  16
ATOM      1  O   UNL     1      -2.354   2.444  -1.165  0.00  0.00    -0.274 OA
ATOM      3  N   UNL     1      -3.204   1.463   0.767  0.00  0.00    -0.314 N 
ATOM     16  C   UNL     1      -2.226   1.726  -0.177  0.00  0.00    +0.230 C 
ATOM     29  H   UNL     1      -2.999   0.830   1.535  0.00  0.00    +0.149 HD
BRANCH   3   8
ATOM      8  C   UNL     1      -4.536   2.020   0.703  0.00  0.00    +0.107 C 
BRANCH   8   5
ATOM      5  C   UNL     1      -5.454   1.130  -0.064  0.00  0.00    +0.006 C 
ATOM      6  C   UNL     1      -6.216   0.061   0.664  0.00  0.00    +0.005 C 
ATOM      7  C   UNL     1      -6.936   1.264   0.130  0.00  0.00    +0.005 C 
ENDBRANCH   8   5
ENDBRANCH   3   8
ENDBRANCH  10  16
BRANCH   9  15
ATOM     15  C   UNL     1      -0.768  -2.620  -0.570  0.00  0.00    +0.026 C 
BRANCH  15  18
ATOM     18  C   UNL     1      -2.209  -3.057  -0.292  0.00  0.00    -0.015 C 
ATOM     23  C   UNL     1      -3.234  -1.988  -0.674  0.00  0.00    +0.007 C 
ATOM     24  C   UNL     1      -2.501  -4.350  -1.059  0.00  0.00    +0.007 C 
ENDBRANCH  15  18
ENDBRANCH   9  15
BRANCH   4  25
ATOM     25  C   UNL     1       5.157   1.610   0.310  0.00  0.00    +0.148 C 
BRANCH  25  26
ATOM     26  C   UNL     1       5.954   1.230  -0.903  0.00  0.00    -0.013 C 
ATOM     27  C   UNL     1       7.053   0.468  -0.866  0.00  0.00    +0.005 C 
ENDBRANCH  25  26
ENDBRANCH   4  25
TORSDOF 7
