REMARK  Name = 40587853
REMARK  7 active torsions:
REMARK  status: ('A' for Active; 'I' for Inactive)
REMARK    1  A    between atoms: O_3  and  C_30
REMARK    2  A    between atoms: O_3  and  C_31
REMARK    3  A    between atoms: N_4  and  C_10
REMARK    4  A    between atoms: N_4  and  C_14
REMARK    5  A    between atoms: N_5  and  C_11
REMARK    6  A    between atoms: C_14  and  C_16
REMARK    7  A    between atoms: C_19  and  C_25
REMARK                            x       y       z     vdW  Elec       q    Type
REMARK                         _______ _______ _______ _____ _____    ______ ____
ROOT
ATOM      1  O   UNL     1      -0.719   0.452   2.186  0.00  0.00    -0.370 OA
ATOM      2  O   UNL     1      -2.054   3.167   1.426  0.00  0.00    -0.370 OA
ATOM      8  C   UNL     1      -2.152   1.838   0.889  0.00  0.00    +0.168 C 
ATOM      9  C   UNL     1      -0.772   1.216   0.970  0.00  0.00    +0.171 C 
ATOM     10  C   UNL     1      -3.001   0.969   1.789  0.00  0.00    +0.111 C 
ATOM     11  C   UNL     1       0.163   2.400   1.054  0.00  0.00    +0.130 C 
ATOM     12  C   UNL     1      -1.999   0.506   2.833  0.00  0.00    +0.181 C 
ATOM     13  C   UNL     1      -0.685   3.444   1.757  0.00  0.00    +0.185 C 
ENDROOT
BRANCH  11   5
ATOM      5  N   UNL     1       0.511   2.850  -0.276  0.00  0.00    -0.306 N 
ATOM      6  N   UNL     1       2.239   1.307  -0.451  0.00  0.00    -0.214 NA
ATOM      7  N   UNL     1       1.743   2.838  -2.244  0.00  0.00    -0.223 NA
ATOM     15  C   UNL     1       1.543   2.309  -1.022  0.00  0.00    +0.216 A 
ATOM     19  C   UNL     1       3.234   0.801  -1.208  0.00  0.00    +0.076 A 
ATOM     20  C   UNL     1       2.753   2.285  -2.946  0.00  0.00    +0.116 A 
ATOM     23  C   UNL     1       3.540   1.254  -2.474  0.00  0.00    +0.048 A 
ATOM     33  H   UNL     1      -0.050   3.567  -0.722  0.00  0.00    +0.149 HD
BRANCH  19  25
ATOM     25  C   UNL     1       3.982  -0.273  -0.598  0.00  0.00    +0.001 A 
ATOM     26  C   UNL     1       5.354  -0.137  -0.388  0.00  0.00    +0.013 A 
ATOM     27  C   UNL     1       3.332  -1.448  -0.221  0.00  0.00    +0.013 A 
ATOM     28  C   UNL     1       6.076  -1.175   0.199  0.00  0.00    +0.046 A 
ATOM     29  C   UNL     1       4.054  -2.487   0.366  0.00  0.00    +0.046 A 
ATOM     30  C   UNL     1       5.426  -2.350   0.576  0.00  0.00    +0.120 A 
BRANCH  30   3
ATOM      3  O   UNL     1       6.132  -3.364   1.147  0.00  0.00    -0.495 OA
ATOM     31  C   UNL     1       5.405  -4.538   1.509  0.00  0.00    +0.277 C 
ENDBRANCH  30   3
ENDBRANCH  19  25
ENDBRANCH  11   5
BRANCH  10   4
ATOM      4  N   UNL     1      -3.554  -0.149   1.064  0.00  0.00    -0.305 NA
ATOM     32  H   UNL     1      -3.741  -0.918   1.708  0.00  0.00    +0.123 HD
BRANCH   4  14
ATOM     14  C   UNL     1      -4.803   0.224   0.417  0.00  0.00    +0.116 C 
BRANCH  14  16
ATOM     16  C   UNL     1      -5.402  -0.925  -0.349  0.00  0.00    -0.034 A 
ATOM     17  C   UNL     1      -5.069  -1.120  -1.690  0.00  0.00    +0.005 A 
ATOM     18  C   UNL     1      -6.292  -1.795   0.282  0.00  0.00    +0.005 A 
ATOM     21  C   UNL     1      -5.625  -2.184  -2.399  0.00  0.00    +0.000 A 
ATOM     22  C   UNL     1      -6.847  -2.860  -0.428  0.00  0.00    +0.000 A 
ATOM     24  C   UNL     1      -6.514  -3.054  -1.768  0.00  0.00    +0.000 A 
ENDBRANCH  14  16
ENDBRANCH   4  14
ENDBRANCH  10   4
TORSDOF 6
