MODEL 1
REMARK VINA RESULT:      -6.7      0.000      0.000
REMARK  Name = 26742362
REMARK  10 active torsions:
REMARK  status: ('A' for Active; 'I' for Inactive)
REMARK    1  A    between atoms: O_2  and  C_25
REMARK    2  A    between atoms: O_2  and  C_36
REMARK    3  A    between atoms: O_3  and  C_34
REMARK    4  A    between atoms: N_6  and  C_16
REMARK    5  A    between atoms: C_10  and  C_17
REMARK    6  A    between atoms: C_11  and  C_16
REMARK    7  A    between atoms: C_19  and  C_22
REMARK    8  A    between atoms: C_20  and  C_24
REMARK    9  A    between atoms: C_21  and  C_23
REMARK   10  A    between atoms: C_27  and  C_34
REMARK                            x       y       z     vdW  Elec       q    Type
REMARK                         _______ _______ _______ _____ _____    ______ ____
ROOT
ATOM      5  N   UNL     1       9.972   7.015   7.676  0.00  0.00    -0.297 NA
ATOM      9  C   UNL     1       9.707   5.205   5.822  0.00  0.00    +0.002 C 
ATOM     10  C   UNL     1      11.086   5.910   5.701  0.00  0.00    +0.055 C 
ATOM     11  C   UNL     1       8.671   7.189   6.977  0.00  0.00    +0.074 C 
ATOM     12  C   UNL     1       8.586   6.263   5.746  0.00  0.00    +0.024 C 
ATOM     13  C   UNL     1       9.648   4.582   7.234  0.00  0.00    +0.019 C 
ATOM     14  C   UNL     1      11.088   7.101   6.702  0.00  0.00    +0.094 C 
ATOM     15  C   UNL     1       9.986   5.660   8.278  0.00  0.00    +0.085 C 
ENDROOT
BRANCH  10  17
ATOM      7  N   UNL     1      12.057   7.568   4.188  0.00  0.00    -0.237 NA
ATOM      8  N   UNL     1      12.439   7.109   1.853  0.00  0.00    -0.232 NA
ATOM     17  C   UNL     1      11.565   6.318   4.316  0.00  0.00    +0.050 A 
ATOM     18  C   UNL     1      11.480   5.418   3.273  0.00  0.00    +0.052 A 
ATOM     19  C   UNL     1      11.936   5.872   2.052  0.00  0.00    +0.078 A 
ATOM     20  C   UNL     1      12.470   7.893   2.948  0.00  0.00    +0.127 A 
ATOM     24  C   UNL     1      13.017   9.267   2.767  0.00  0.00    +0.088 C 
BRANCH  19  22
ATOM     22  C   UNL     1      11.900   5.029   0.882  0.00  0.00    +0.042 A 
ATOM     25  C   UNL     1      10.876   5.153  -0.057  0.00  0.00    +0.129 A 
ATOM     26  C   UNL     1      12.905   4.081   0.697  0.00  0.00    +0.013 A 
ATOM     29  C   UNL     1      10.859   4.329  -1.183  0.00  0.00    +0.046 A 
ATOM     30  C   UNL     1      12.889   3.256  -0.428  0.00  0.00    +0.001 A 
ATOM     33  C   UNL     1      11.865   3.379  -1.368  0.00  0.00    +0.004 A 
BRANCH  25   2
ATOM      2  O   UNL     1       9.880   6.072   0.097  0.00  0.00    -0.494 OA
ATOM     36  C   UNL     1       9.722   7.035  -0.940  0.00  0.00    +0.277 C 
ENDBRANCH  25   2
ENDBRANCH  19  22
ENDBRANCH  10  17
BRANCH  11  16
ATOM     16  C   UNL     1       8.396   8.649   6.612  0.00  0.00    +0.123 C 
BRANCH  16   6
ATOM      1  O   UNL     1       8.103  10.983   4.964  0.00  0.00    -0.270 OA
ATOM      6  N   UNL     1       7.674   8.741   5.381  0.00  0.00    -0.310 N 
ATOM     21  C   UNL     1       7.582   9.918   4.641  0.00  0.00    +0.245 C 
ATOM     37  H   UNL     1       7.215   7.903   5.035  0.00  0.00    +0.149 HD
BRANCH  21  23
ATOM     23  C   UNL     1       6.773   9.855   3.398  0.00  0.00    +0.051 A 
ATOM     27  C   UNL     1       7.323   9.409   2.196  0.00  0.00    +0.071 A 
ATOM     28  C   UNL     1       5.437  10.255   3.447  0.00  0.00    +0.014 A 
ATOM     31  C   UNL     1       6.539   9.362   1.044  0.00  0.00    +0.016 A 
ATOM     32  C   UNL     1       4.653  10.208   2.295  0.00  0.00    +0.001 A 
ATOM     35  C   UNL     1       5.203   9.761   1.093  0.00  0.00    +0.001 A 
BRANCH  27  34
ATOM      4  O   UNL     1       9.656   9.696   1.749  0.00  0.00    -0.245 OA
ATOM     34  C   UNL     1       8.715   8.985   2.113  0.00  0.00    +0.338 C 
BRANCH  34   3
ATOM      3  O   UNL     1       8.885   7.689   2.486  0.00  0.00    -0.477 OA
ATOM     38  H   UNL     1       9.470   7.204   1.866  0.00  0.00    +0.295 HD
ENDBRANCH  34   3
ENDBRANCH  27  34
ENDBRANCH  21  23
ENDBRANCH  16   6
ENDBRANCH  11  16
TORSDOF 8
ENDMDL
MODEL 2
REMARK VINA RESULT:      -6.6      1.324      2.341
REMARK  Name = 26742362
REMARK  10 active torsions:
REMARK  status: ('A' for Active; 'I' for Inactive)
REMARK    1  A    between atoms: O_2  and  C_25
REMARK    2  A    between atoms: O_2  and  C_36
REMARK    3  A    between atoms: O_3  and  C_34
REMARK    4  A    between atoms: N_6  and  C_16
REMARK    5  A    between atoms: C_10  and  C_17
REMARK    6  A    between atoms: C_11  and  C_16
REMARK    7  A    between atoms: C_19  and  C_22
REMARK    8  A    between atoms: C_20  and  C_24
REMARK    9  A    between atoms: C_21  and  C_23
REMARK   10  A    between atoms: C_27  and  C_34
REMARK                            x       y       z     vdW  Elec       q    Type
REMARK                         _______ _______ _______ _____ _____    ______ ____
ROOT
ATOM      5  N   UNL     1       9.831   6.979   7.673  0.00  0.00    -0.297 NA
ATOM      9  C   UNL     1       9.823   5.075   5.896  0.00  0.00    +0.002 C 
ATOM     10  C   UNL     1      11.120   5.921   5.781  0.00  0.00    +0.055 C 
ATOM     11  C   UNL     1       8.541   6.980   6.933  0.00  0.00    +0.074 C 
ATOM     12  C   UNL     1       8.596   5.999   5.742  0.00  0.00    +0.024 C 
ATOM     13  C   UNL     1       9.787   4.509   7.333  0.00  0.00    +0.019 C 
ATOM     14  C   UNL     1      10.961   7.146   6.726  0.00  0.00    +0.094 C 
ATOM     15  C   UNL     1       9.973   5.660   8.336  0.00  0.00    +0.085 C 
ENDROOT
BRANCH  10  17
ATOM      7  N   UNL     1      12.121   7.557   4.263  0.00  0.00    -0.237 NA
ATOM      8  N   UNL     1      12.464   7.097   1.922  0.00  0.00    -0.232 NA
ATOM     17  C   UNL     1      11.595   6.321   4.391  0.00  0.00    +0.050 A 
ATOM     18  C   UNL     1      11.472   5.428   3.346  0.00  0.00    +0.052 A 
ATOM     19  C   UNL     1      11.928   5.874   2.122  0.00  0.00    +0.078 A 
ATOM     20  C   UNL     1      12.529   7.875   3.020  0.00  0.00    +0.127 A 
ATOM     24  C   UNL     1      13.114   9.234   2.837  0.00  0.00    +0.088 C 
BRANCH  19  22
ATOM     22  C   UNL     1      11.855   5.037   0.949  0.00  0.00    +0.042 A 
ATOM     25  C   UNL     1      12.720   3.955   0.787  0.00  0.00    +0.129 A 
ATOM     26  C   UNL     1      10.905   5.323  -0.031  0.00  0.00    +0.013 A 
ATOM     29  C   UNL     1      12.634   3.157  -0.354  0.00  0.00    +0.046 A 
ATOM     30  C   UNL     1      10.818   4.526  -1.172  0.00  0.00    +0.001 A 
ATOM     33  C   UNL     1      11.683   3.443  -1.334  0.00  0.00    +0.004 A 
BRANCH  25   2
ATOM      2  O   UNL     1      13.659   3.652   1.729  0.00  0.00    -0.494 OA
ATOM     36  C   UNL     1      15.023   3.857   1.371  0.00  0.00    +0.277 C 
ENDBRANCH  25   2
ENDBRANCH  19  22
ENDBRANCH  10  17
BRANCH  11  16
ATOM     16  C   UNL     1       8.121   8.384   6.495  0.00  0.00    +0.123 C 
BRANCH  16   6
ATOM      1  O   UNL     1       9.658   9.935   4.630  0.00  0.00    -0.270 OA
ATOM      6  N   UNL     1       7.938   8.444   5.078  0.00  0.00    -0.310 N 
ATOM     21  C   UNL     1       8.732   9.226   4.242  0.00  0.00    +0.245 C 
ATOM     37  H   UNL     1       7.195   7.882   4.670  0.00  0.00    +0.149 HD
BRANCH  21  23
ATOM     23  C   UNL     1       8.396   9.199   2.796  0.00  0.00    +0.051 A 
ATOM     27  C   UNL     1       7.278   9.869   2.299  0.00  0.00    +0.071 A 
ATOM     28  C   UNL     1       9.223   8.485   1.929  0.00  0.00    +0.014 A 
ATOM     31  C   UNL     1       6.987   9.825   0.935  0.00  0.00    +0.016 A 
ATOM     32  C   UNL     1       8.933   8.440   0.566  0.00  0.00    +0.001 A 
ATOM     35  C   UNL     1       7.815   9.110   0.068  0.00  0.00    +0.001 A 
BRANCH  27  34
ATOM      4  O   UNL     1       6.490  11.830   3.419  0.00  0.00    -0.245 OA
ATOM     34  C   UNL     1       6.395  10.623   3.178  0.00  0.00    +0.338 C 
BRANCH  34   3
ATOM      3  O   UNL     1       5.424   9.847   3.728  0.00  0.00    -0.477 OA
ATOM     38  H   UNL     1       4.994  10.286   4.492  0.00  0.00    +0.295 HD
ENDBRANCH  34   3
ENDBRANCH  27  34
ENDBRANCH  21  23
ENDBRANCH  16   6
ENDBRANCH  11  16
TORSDOF 8
ENDMDL
MODEL 3
REMARK VINA RESULT:      -6.6     24.837     27.391
REMARK  Name = 26742362
REMARK  10 active torsions:
REMARK  status: ('A' for Active; 'I' for Inactive)
REMARK    1  A    between atoms: O_2  and  C_25
REMARK    2  A    between atoms: O_2  and  C_36
REMARK    3  A    between atoms: O_3  and  C_34
REMARK    4  A    between atoms: N_6  and  C_16
REMARK    5  A    between atoms: C_10  and  C_17
REMARK    6  A    between atoms: C_11  and  C_16
REMARK    7  A    between atoms: C_19  and  C_22
REMARK    8  A    between atoms: C_20  and  C_24
REMARK    9  A    between atoms: C_21  and  C_23
REMARK   10  A    between atoms: C_27  and  C_34
REMARK                            x       y       z     vdW  Elec       q    Type
REMARK                         _______ _______ _______ _____ _____    ______ ____
ROOT
ATOM      5  N   UNL     1      -5.825 -10.308  17.553  0.00  0.00    -0.297 NA
ATOM      9  C   UNL     1      -4.785 -12.678  17.264  0.00  0.00    +0.002 C 
ATOM     10  C   UNL     1      -3.982 -11.629  16.448  0.00  0.00    +0.055 C 
ATOM     11  C   UNL     1      -6.884 -11.288  17.194  0.00  0.00    +0.074 C 
ATOM     12  C   UNL     1      -6.262 -12.649  16.817  0.00  0.00    +0.024 C 
ATOM     13  C   UNL     1      -4.748 -12.220  18.738  0.00  0.00    +0.019 C 
ATOM     14  C   UNL     1      -4.773 -10.291  16.506  0.00  0.00    +0.094 C 
ATOM     15  C   UNL     1      -5.206 -10.754  18.825  0.00  0.00    +0.085 C 
ENDROOT
BRANCH  10  17
ATOM      7  N   UNL     1      -2.908 -13.159  14.871  0.00  0.00    -0.237 NA
ATOM      8  N   UNL     1      -2.777 -12.690  12.511  0.00  0.00    -0.232 NA
ATOM     17  C   UNL     1      -3.560 -11.989  15.031  0.00  0.00    +0.050 A 
ATOM     18  C   UNL     1      -3.854 -11.127  13.993  0.00  0.00    +0.052 A 
ATOM     19  C   UNL     1      -3.434 -11.533  12.743  0.00  0.00    +0.078 A 
ATOM     20  C   UNL     1      -2.551 -13.443  13.604  0.00  0.00    +0.127 A 
ATOM     24  C   UNL     1      -1.826 -14.727  13.388  0.00  0.00    +0.088 C 
BRANCH  19  22
ATOM     22  C   UNL     1      -3.678 -10.722  11.575  0.00  0.00    +0.042 A 
ATOM     25  C   UNL     1      -2.704  -9.846  11.096  0.00  0.00    +0.129 A 
ATOM     26  C   UNL     1      -4.907 -10.821  10.924  0.00  0.00    +0.013 A 
ATOM     29  C   UNL     1      -2.959  -9.070   9.965  0.00  0.00    +0.046 A 
ATOM     30  C   UNL     1      -5.163 -10.046   9.793  0.00  0.00    +0.001 A 
ATOM     33  C   UNL     1      -4.189  -9.169   9.314  0.00  0.00    +0.004 A 
BRANCH  25   2
ATOM      2  O   UNL     1      -1.493  -9.728  11.713  0.00  0.00    -0.494 OA
ATOM     36  C   UNL     1      -0.530  -8.883  11.089  0.00  0.00    +0.277 C 
ENDBRANCH  25   2
ENDBRANCH  19  22
ENDBRANCH  10  17
BRANCH  11  16
ATOM     16  C   UNL     1      -7.816 -10.764  16.099  0.00  0.00    +0.123 C 
BRANCH  16   6
ATOM      1  O   UNL     1      -8.961  -8.463  17.378  0.00  0.00    -0.270 OA
ATOM      6  N   UNL     1      -9.154 -10.635  16.586  0.00  0.00    -0.310 N 
ATOM     21  C   UNL     1      -9.630  -9.476  17.197  0.00  0.00    +0.245 C 
ATOM     37  H   UNL     1      -9.781 -11.427  16.472  0.00  0.00    +0.149 HD
BRANCH  21  23
ATOM     23  C   UNL     1     -11.037  -9.510  17.672  0.00  0.00    +0.051 A 
ATOM     27  C   UNL     1     -11.375 -10.094  18.893  0.00  0.00    +0.071 A 
ATOM     28  C   UNL     1     -12.029  -8.945  16.871  0.00  0.00    +0.014 A 
ATOM     31  C   UNL     1     -12.706 -10.112  19.313  0.00  0.00    +0.016 A 
ATOM     32  C   UNL     1     -13.359  -8.963  17.290  0.00  0.00    +0.001 A 
ATOM     35  C   UNL     1     -13.698  -9.546  18.512  0.00  0.00    +0.001 A 
BRANCH  27  34
ATOM      4  O   UNL     1      -9.802 -11.773  19.549  0.00  0.00    -0.245 OA
ATOM     34  C   UNL     1     -10.363 -10.692  19.753  0.00  0.00    +0.338 C 
BRANCH  34   3
ATOM      3  O   UNL     1     -10.082  -9.922  20.838  0.00  0.00    -0.477 OA
ATOM     38  H   UNL     1      -9.405  -9.241  20.638  0.00  0.00    +0.295 HD
ENDBRANCH  34   3
ENDBRANCH  27  34
ENDBRANCH  21  23
ENDBRANCH  16   6
ENDBRANCH  11  16
TORSDOF 8
ENDMDL
MODEL 4
REMARK VINA RESULT:      -6.5      2.507      4.661
REMARK  Name = 26742362
REMARK  10 active torsions:
REMARK  status: ('A' for Active; 'I' for Inactive)
REMARK    1  A    between atoms: O_2  and  C_25
REMARK    2  A    between atoms: O_2  and  C_36
REMARK    3  A    between atoms: O_3  and  C_34
REMARK    4  A    between atoms: N_6  and  C_16
REMARK    5  A    between atoms: C_10  and  C_17
REMARK    6  A    between atoms: C_11  and  C_16
REMARK    7  A    between atoms: C_19  and  C_22
REMARK    8  A    between atoms: C_20  and  C_24
REMARK    9  A    between atoms: C_21  and  C_23
REMARK   10  A    between atoms: C_27  and  C_34
REMARK                            x       y       z     vdW  Elec       q    Type
REMARK                         _______ _______ _______ _____ _____    ______ ____
ROOT
ATOM      5  N   UNL     1      10.615   5.618   7.643  0.00  0.00    -0.297 NA
ATOM      9  C   UNL     1       9.268   7.596   6.616  0.00  0.00    +0.002 C 
ATOM     10  C   UNL     1       9.216   6.358   5.679  0.00  0.00    +0.055 C 
ATOM     11  C   UNL     1      11.439   6.855   7.656  0.00  0.00    +0.074 C 
ATOM     12  C   UNL     1      10.741   7.983   6.868  0.00  0.00    +0.024 C 
ATOM     13  C   UNL     1       8.677   7.153   7.972  0.00  0.00    +0.019 C 
ATOM     14  C   UNL     1      10.199   5.299   6.255  0.00  0.00    +0.094 C 
ATOM     15  C   UNL     1       9.394   5.877   8.445  0.00  0.00    +0.085 C 
ENDROOT
BRANCH  10  17
ATOM      7  N   UNL     1       8.716   7.586   3.623  0.00  0.00    -0.237 NA
ATOM      8  N   UNL     1       9.727   7.020   1.510  0.00  0.00    -0.232 NA
ATOM     17  C   UNL     1       9.414   6.578   4.186  0.00  0.00    +0.050 A 
ATOM     18  C   UNL     1      10.277   5.759   3.486  0.00  0.00    +0.052 A 
ATOM     19  C   UNL     1      10.395   6.029   2.138  0.00  0.00    +0.078 A 
ATOM     20  C   UNL     1       8.917   7.749   2.302  0.00  0.00    +0.127 A 
ATOM     24  C   UNL     1       8.160   8.852   1.644  0.00  0.00    +0.088 C 
BRANCH  19  22
ATOM     22  C   UNL     1      11.264   5.245   1.293  0.00  0.00    +0.042 A 
ATOM     25  C   UNL     1      10.803   4.718   0.087  0.00  0.00    +0.129 A 
ATOM     26  C   UNL     1      12.578   5.015   1.698  0.00  0.00    +0.013 A 
ATOM     29  C   UNL     1      11.658   3.962  -0.716  0.00  0.00    +0.046 A 
ATOM     30  C   UNL     1      13.434   4.260   0.896  0.00  0.00    +0.001 A 
ATOM     33  C   UNL     1      12.974   3.733  -0.311  0.00  0.00    +0.004 A 
BRANCH  25   2
ATOM      2  O   UNL     1       9.523   4.926  -0.334  0.00  0.00    -0.494 OA
ATOM     36  C   UNL     1       9.347   5.368  -1.678  0.00  0.00    +0.277 C 
ENDBRANCH  25   2
ENDBRANCH  19  22
ENDBRANCH  10  17
BRANCH  11  16
ATOM     16  C   UNL     1      12.866   6.611   7.159  0.00  0.00    +0.123 C 
BRANCH  16   6
ATOM      1  O   UNL     1      13.982   9.000   6.023  0.00  0.00    -0.270 OA
ATOM      6  N   UNL     1      12.982   6.922   5.768  0.00  0.00    -0.310 N 
ATOM     21  C   UNL     1      13.540   8.110   5.301  0.00  0.00    +0.245 C 
ATOM     37  H   UNL     1      12.645   6.237   5.097  0.00  0.00    +0.149 HD
BRANCH  21  23
ATOM     23  C   UNL     1      13.564   8.294   3.827  0.00  0.00    +0.051 A 
ATOM     27  C   UNL     1      14.644   7.858   3.060  0.00  0.00    +0.071 A 
ATOM     28  C   UNL     1      12.478   8.918   3.213  0.00  0.00    +0.014 A 
ATOM     31  C   UNL     1      14.638   8.046   1.678  0.00  0.00    +0.016 A 
ATOM     32  C   UNL     1      12.473   9.106   1.831  0.00  0.00    +0.001 A 
ATOM     35  C   UNL     1      13.552   8.669   1.062  0.00  0.00    +0.001 A 
BRANCH  27  34
ATOM      4  O   UNL     1      16.817   7.773   4.056  0.00  0.00    -0.245 OA
ATOM     34  C   UNL     1      15.792   7.203   3.672  0.00  0.00    +0.338 C 
BRANCH  34   3
ATOM      3  O   UNL     1      15.622   5.858   3.786  0.00  0.00    -0.477 OA
ATOM     38  H   UNL     1      14.697   5.590   3.605  0.00  0.00    +0.295 HD
ENDBRANCH  34   3
ENDBRANCH  27  34
ENDBRANCH  21  23
ENDBRANCH  16   6
ENDBRANCH  11  16
TORSDOF 8
ENDMDL
MODEL 5
REMARK VINA RESULT:      -6.4     24.978     28.212
REMARK  Name = 26742362
REMARK  10 active torsions:
REMARK  status: ('A' for Active; 'I' for Inactive)
REMARK    1  A    between atoms: O_2  and  C_25
REMARK    2  A    between atoms: O_2  and  C_36
REMARK    3  A    between atoms: O_3  and  C_34
REMARK    4  A    between atoms: N_6  and  C_16
REMARK    5  A    between atoms: C_10  and  C_17
REMARK    6  A    between atoms: C_11  and  C_16
REMARK    7  A    between atoms: C_19  and  C_22
REMARK    8  A    between atoms: C_20  and  C_24
REMARK    9  A    between atoms: C_21  and  C_23
REMARK   10  A    between atoms: C_27  and  C_34
REMARK                            x       y       z     vdW  Elec       q    Type
REMARK                         _______ _______ _______ _____ _____    ______ ____
ROOT
ATOM      5  N   UNL     1      -6.040 -12.407  17.222  0.00  0.00    -0.297 NA
ATOM      9  C   UNL     1      -6.435 -10.412  18.847  0.00  0.00    +0.002 C 
ATOM     10  C   UNL     1      -7.690 -11.325  18.792  0.00  0.00    +0.055 C 
ATOM     11  C   UNL     1      -5.677 -11.129  16.555  0.00  0.00    +0.074 C 
ATOM     12  C   UNL     1      -6.097  -9.924  17.422  0.00  0.00    +0.024 C 
ATOM     13  C   UNL     1      -5.260 -11.297  19.314  0.00  0.00    +0.019 C 
ATOM     14  C   UNL     1      -7.456 -12.367  17.661  0.00  0.00    +0.094 C 
ATOM     15  C   UNL     1      -5.185 -12.550  18.425  0.00  0.00    +0.085 C 
ENDROOT
BRANCH  10  17
ATOM      7  N   UNL     1      -9.960 -10.995  19.640  0.00  0.00    -0.237 NA
ATOM      8  N   UNL     1     -11.528  -9.510  18.570  0.00  0.00    -0.232 NA
ATOM     17  C   UNL     1      -9.057 -10.663  18.695  0.00  0.00    +0.050 A 
ATOM     18  C   UNL     1      -9.311  -9.776  17.669  0.00  0.00    +0.052 A 
ATOM     19  C   UNL     1     -10.576  -9.224  17.657  0.00  0.00    +0.078 A 
ATOM     20  C   UNL     1     -11.157 -10.390  19.520  0.00  0.00    +0.127 A 
ATOM     24  C   UNL     1     -12.183 -10.732  20.546  0.00  0.00    +0.088 C 
BRANCH  19  22
ATOM     22  C   UNL     1     -10.970  -8.282  16.636  0.00  0.00    +0.042 A 
ATOM     25  C   UNL     1     -11.490  -8.722  15.419  0.00  0.00    +0.129 A 
ATOM     26  C   UNL     1     -10.822  -6.917  16.878  0.00  0.00    +0.013 A 
ATOM     29  C   UNL     1     -11.864  -7.797  14.445  0.00  0.00    +0.046 A 
ATOM     30  C   UNL     1     -11.196  -5.991  15.905  0.00  0.00    +0.001 A 
ATOM     33  C   UNL     1     -11.716  -6.431  14.688  0.00  0.00    +0.004 A 
BRANCH  25   2
ATOM      2  O   UNL     1     -11.645 -10.051  15.154  0.00  0.00    -0.494 OA
ATOM     36  C   UNL     1     -11.367 -10.483  13.825  0.00  0.00    +0.277 C 
ENDBRANCH  25   2
ENDBRANCH  19  22
ENDBRANCH  10  17
BRANCH  11  16
ATOM     16  C   UNL     1      -6.239 -11.032  15.135  0.00  0.00    +0.123 C 
BRANCH  16   6
ATOM      1  O   UNL     1      -4.970 -12.421  12.965  0.00  0.00    -0.270 OA
ATOM      6  N   UNL     1      -5.263 -10.501  14.235  0.00  0.00    -0.310 N 
ATOM     21  C   UNL     1      -4.696 -11.248  13.204  0.00  0.00    +0.245 C 
ATOM     37  H   UNL     1      -4.980  -9.532  14.356  0.00  0.00    +0.149 HD
BRANCH  21  23
ATOM     23  C   UNL     1      -3.676 -10.558  12.372  0.00  0.00    +0.051 A 
ATOM     27  C   UNL     1      -2.363 -10.404  12.816  0.00  0.00    +0.071 A 
ATOM     28  C   UNL     1      -4.055 -10.059  11.126  0.00  0.00    +0.014 A 
ATOM     31  C   UNL     1      -1.427  -9.751  12.013  0.00  0.00    +0.016 A 
ATOM     32  C   UNL     1      -3.120  -9.405  10.323  0.00  0.00    +0.001 A 
ATOM     35  C   UNL     1      -1.806  -9.252  10.766  0.00  0.00    +0.001 A 
BRANCH  27  34
ATOM      4  O   UNL     1      -1.472 -12.039  14.318  0.00  0.00    -0.245 OA
ATOM     34  C   UNL     1      -1.937 -10.914  14.112  0.00  0.00    +0.338 C 
BRANCH  34   3
ATOM      3  O   UNL     1      -2.106 -10.005  15.108  0.00  0.00    -0.477 OA
ATOM     38  H   UNL     1      -2.797 -10.283  15.745  0.00  0.00    +0.295 HD
ENDBRANCH  34   3
ENDBRANCH  27  34
ENDBRANCH  21  23
ENDBRANCH  16   6
ENDBRANCH  11  16
TORSDOF 8
ENDMDL
MODEL 6
REMARK VINA RESULT:      -6.3      2.370      7.012
REMARK  Name = 26742362
REMARK  10 active torsions:
REMARK  status: ('A' for Active; 'I' for Inactive)
REMARK    1  A    between atoms: O_2  and  C_25
REMARK    2  A    between atoms: O_2  and  C_36
REMARK    3  A    between atoms: O_3  and  C_34
REMARK    4  A    between atoms: N_6  and  C_16
REMARK    5  A    between atoms: C_10  and  C_17
REMARK    6  A    between atoms: C_11  and  C_16
REMARK    7  A    between atoms: C_19  and  C_22
REMARK    8  A    between atoms: C_20  and  C_24
REMARK    9  A    between atoms: C_21  and  C_23
REMARK   10  A    between atoms: C_27  and  C_34
REMARK                            x       y       z     vdW  Elec       q    Type
REMARK                         _______ _______ _______ _____ _____    ______ ____
ROOT
ATOM      5  N   UNL     1      12.688   5.794  -0.432  0.00  0.00    -0.297 NA
ATOM      9  C   UNL     1      10.171   5.170  -0.201  0.00  0.00    +0.002 C 
ATOM     10  C   UNL     1      10.330   6.687  -0.496  0.00  0.00    +0.055 C 
ATOM     11  C   UNL     1      12.471   5.014   0.814  0.00  0.00    +0.074 C 
ATOM     12  C   UNL     1      10.963   4.813   1.075  0.00  0.00    +0.024 C 
ATOM     13  C   UNL     1      10.835   4.416  -1.373  0.00  0.00    +0.019 C 
ATOM     14  C   UNL     1      11.848   7.017  -0.419  0.00  0.00    +0.094 C 
ATOM     15  C   UNL     1      12.263   4.951  -1.576  0.00  0.00    +0.085 C 
ENDROOT
BRANCH  10  17
ATOM      7  N   UNL     1       8.644   8.456  -0.397  0.00  0.00    -0.237 NA
ATOM      8  N   UNL     1       7.943   9.448   1.684  0.00  0.00    -0.232 NA
ATOM     17  C   UNL     1       9.485   7.667   0.304  0.00  0.00    +0.050 A 
ATOM     18  C   UNL     1       9.609   7.710   1.678  0.00  0.00    +0.052 A 
ATOM     19  C   UNL     1       8.805   8.629   2.322  0.00  0.00    +0.078 A 
ATOM     20  C   UNL     1       7.914   9.311   0.345  0.00  0.00    +0.127 A 
ATOM     24  C   UNL     1       6.975  10.201  -0.395  0.00  0.00    +0.088 C 
BRANCH  19  22
ATOM     22  C   UNL     1       8.841   8.773   3.758  0.00  0.00    +0.042 A 
ATOM     25  C   UNL     1       9.783   9.599   4.370  0.00  0.00    +0.129 A 
ATOM     26  C   UNL     1       7.918   8.073   4.534  0.00  0.00    +0.013 A 
ATOM     29  C   UNL     1       9.801   9.727   5.759  0.00  0.00    +0.046 A 
ATOM     30  C   UNL     1       7.935   8.199   5.923  0.00  0.00    +0.001 A 
ATOM     33  C   UNL     1       8.878   9.026   6.536  0.00  0.00    +0.004 A 
BRANCH  25   2
ATOM      2  O   UNL     1      10.698  10.296   3.636  0.00  0.00    -0.494 OA
ATOM     36  C   UNL     1      11.285  11.439   4.252  0.00  0.00    +0.277 C 
ENDBRANCH  25   2
ENDBRANCH  19  22
ENDBRANCH  10  17
BRANCH  11  16
ATOM     16  C   UNL     1      13.181   5.631   2.021  0.00  0.00    +0.123 C 
BRANCH  16   6
ATOM      1  O   UNL     1      12.506   7.653   3.945  0.00  0.00    -0.270 OA
ATOM      6  N   UNL     1      12.411   5.453   3.212  0.00  0.00    -0.310 N 
ATOM     21  C   UNL     1      12.128   6.494   4.096  0.00  0.00    +0.245 C 
ATOM     37  H   UNL     1      12.052   4.524   3.414  0.00  0.00    +0.149 HD
BRANCH  21  23
ATOM     23  C   UNL     1      11.338   6.140   5.302  0.00  0.00    +0.051 A 
ATOM     27  C   UNL     1      11.734   6.552   6.575  0.00  0.00    +0.071 A 
ATOM     28  C   UNL     1      10.180   5.379   5.145  0.00  0.00    +0.014 A 
ATOM     31  C   UNL     1      10.972   6.203   7.690  0.00  0.00    +0.016 A 
ATOM     32  C   UNL     1       9.418   5.030   6.260  0.00  0.00    +0.001 A 
ATOM     35  C   UNL     1       9.813   5.442   7.533  0.00  0.00    +0.001 A 
BRANCH  27  34
ATOM      4  O   UNL     1      12.962   8.547   7.062  0.00  0.00    -0.245 OA
ATOM     34  C   UNL     1      12.939   7.347   6.771  0.00  0.00    +0.338 C 
BRANCH  34   3
ATOM      3  O   UNL     1      14.075   6.620   6.600  0.00  0.00    -0.477 OA
ATOM     38  H   UNL     1      14.745   7.106   6.075  0.00  0.00    +0.295 HD
ENDBRANCH  34   3
ENDBRANCH  27  34
ENDBRANCH  21  23
ENDBRANCH  16   6
ENDBRANCH  11  16
TORSDOF 8
ENDMDL
MODEL 7
REMARK VINA RESULT:      -6.3      3.319      6.983
REMARK  Name = 26742362
REMARK  10 active torsions:
REMARK  status: ('A' for Active; 'I' for Inactive)
REMARK    1  A    between atoms: O_2  and  C_25
REMARK    2  A    between atoms: O_2  and  C_36
REMARK    3  A    between atoms: O_3  and  C_34
REMARK    4  A    between atoms: N_6  and  C_16
REMARK    5  A    between atoms: C_10  and  C_17
REMARK    6  A    between atoms: C_11  and  C_16
REMARK    7  A    between atoms: C_19  and  C_22
REMARK    8  A    between atoms: C_20  and  C_24
REMARK    9  A    between atoms: C_21  and  C_23
REMARK   10  A    between atoms: C_27  and  C_34
REMARK                            x       y       z     vdW  Elec       q    Type
REMARK                         _______ _______ _______ _____ _____    ______ ____
ROOT
ATOM      5  N   UNL     1       8.079  11.229   2.686  0.00  0.00    -0.297 NA
ATOM      9  C   UNL     1       7.368  11.968   5.080  0.00  0.00    +0.002 C 
ATOM     10  C   UNL     1       8.916  11.942   4.956  0.00  0.00    +0.055 C 
ATOM     11  C   UNL     1       7.082  10.274   3.238  0.00  0.00    +0.074 C 
ATOM     12  C   UNL     1       6.805  10.575   4.726  0.00  0.00    +0.024 C 
ATOM     13  C   UNL     1       6.853  12.952   4.007  0.00  0.00    +0.019 C 
ATOM     14  C   UNL     1       9.261  11.303   3.580  0.00  0.00    +0.094 C 
ATOM     15  C   UNL     1       7.447  12.570   2.641  0.00  0.00    +0.085 C 
ENDROOT
BRANCH  10  17
ATOM      7  N   UNL     1       9.232  11.503   7.342  0.00  0.00    -0.237 NA
ATOM      8  N   UNL     1      11.113  10.251   8.180  0.00  0.00    -0.232 NA
ATOM     17  C   UNL     1       9.718  11.328   6.095  0.00  0.00    +0.050 A 
ATOM     18  C   UNL     1      10.879  10.636   5.815  0.00  0.00    +0.052 A 
ATOM     19  C   UNL     1      11.542  10.114   6.907  0.00  0.00    +0.078 A 
ATOM     20  C   UNL     1       9.969  10.946   8.322  0.00  0.00    +0.127 A 
ATOM     24  C   UNL     1       9.465  11.120   9.714  0.00  0.00    +0.088 C 
BRANCH  19  22
ATOM     22  C   UNL     1      12.769   9.370   6.749  0.00  0.00    +0.042 A 
ATOM     25  C   UNL     1      13.965  10.020   6.448  0.00  0.00    +0.129 A 
ATOM     26  C   UNL     1      12.747   7.984   6.901  0.00  0.00    +0.013 A 
ATOM     29  C   UNL     1      15.141   9.284   6.300  0.00  0.00    +0.046 A 
ATOM     30  C   UNL     1      13.922   7.247   6.753  0.00  0.00    +0.001 A 
ATOM     33  C   UNL     1      15.119   7.897   6.451  0.00  0.00    +0.004 A 
BRANCH  25   2
ATOM      2  O   UNL     1      14.016  11.375   6.294  0.00  0.00    -0.494 OA
ATOM     36  C   UNL     1      14.684  12.117   7.311  0.00  0.00    +0.277 C 
ENDBRANCH  25   2
ENDBRANCH  19  22
ENDBRANCH  10  17
BRANCH  11  16
ATOM     16  C   UNL     1       7.488   8.815   3.019  0.00  0.00    +0.123 C 
BRANCH  16   6
ATOM      1  O   UNL     1      10.072   7.891   3.866  0.00  0.00    -0.270 OA
ATOM      6  N   UNL     1       7.804   8.180   4.260  0.00  0.00    -0.310 N 
ATOM     21  C   UNL     1       9.091   7.761   4.593  0.00  0.00    +0.245 C 
ATOM     37  H   UNL     1       7.050   8.037   4.927  0.00  0.00    +0.149 HD
BRANCH  21  23
ATOM     23  C   UNL     1       9.248   7.094   5.911  0.00  0.00    +0.051 A 
ATOM     27  C   UNL     1       9.915   5.875   6.030  0.00  0.00    +0.071 A 
ATOM     28  C   UNL     1       8.713   7.710   7.042  0.00  0.00    +0.014 A 
ATOM     31  C   UNL     1      10.046   5.271   7.281  0.00  0.00    +0.016 A 
ATOM     32  C   UNL     1       8.845   7.107   8.292  0.00  0.00    +0.001 A 
ATOM     35  C   UNL     1       9.512   5.888   8.413  0.00  0.00    +0.001 A 
BRANCH  27  34
ATOM      4  O   UNL     1       9.899   4.381   4.162  0.00  0.00    -0.245 OA
ATOM     34  C   UNL     1      10.484   5.206   4.868  0.00  0.00    +0.338 C 
BRANCH  34   3
ATOM      3  O   UNL     1      11.766   5.590   4.625  0.00  0.00    -0.477 OA
ATOM     38  H   UNL     1      12.327   4.836   4.346  0.00  0.00    +0.295 HD
ENDBRANCH  34   3
ENDBRANCH  27  34
ENDBRANCH  21  23
ENDBRANCH  16   6
ENDBRANCH  11  16
TORSDOF 8
ENDMDL
MODEL 8
REMARK VINA RESULT:      -6.2     23.467     26.107
REMARK  Name = 26742362
REMARK  10 active torsions:
REMARK  status: ('A' for Active; 'I' for Inactive)
REMARK    1  A    between atoms: O_2  and  C_25
REMARK    2  A    between atoms: O_2  and  C_36
REMARK    3  A    between atoms: O_3  and  C_34
REMARK    4  A    between atoms: N_6  and  C_16
REMARK    5  A    between atoms: C_10  and  C_17
REMARK    6  A    between atoms: C_11  and  C_16
REMARK    7  A    between atoms: C_19  and  C_22
REMARK    8  A    between atoms: C_20  and  C_24
REMARK    9  A    between atoms: C_21  and  C_23
REMARK   10  A    between atoms: C_27  and  C_34
REMARK                            x       y       z     vdW  Elec       q    Type
REMARK                         _______ _______ _______ _____ _____    ______ ____
ROOT
ATOM      5  N   UNL     1      -3.976 -10.558  13.206  0.00  0.00    -0.297 NA
ATOM      9  C   UNL     1      -3.055 -11.114  10.834  0.00  0.00    +0.002 C 
ATOM     10  C   UNL     1      -3.907  -9.816  10.797  0.00  0.00    +0.055 C 
ATOM     11  C   UNL     1      -4.262 -11.977  12.870  0.00  0.00    +0.074 C 
ATOM     12  C   UNL     1      -3.911 -12.269  11.395  0.00  0.00    +0.024 C 
ATOM     13  C   UNL     1      -1.911 -10.866  11.842  0.00  0.00    +0.019 C 
ATOM     14  C   UNL     1      -4.582  -9.662  12.190  0.00  0.00    +0.094 C 
ATOM     15  C   UNL     1      -2.505 -10.370  13.171  0.00  0.00    +0.085 C 
ENDROOT
BRANCH  10  17
ATOM      7  N   UNL     1      -4.647 -10.332   8.523  0.00  0.00    -0.237 NA
ATOM      8  N   UNL     1      -6.634  -9.359   7.567  0.00  0.00    -0.232 NA
ATOM     17  C   UNL     1      -4.896  -9.638   9.653  0.00  0.00    +0.050 A 
ATOM     18  C   UNL     1      -5.979  -8.797   9.814  0.00  0.00    +0.052 A 
ATOM     19  C   UNL     1      -6.823  -8.695   8.727  0.00  0.00    +0.078 A 
ATOM     20  C   UNL     1      -5.544 -10.148   7.535  0.00  0.00    +0.127 A 
ATOM     24  C   UNL     1      -5.301 -10.896   6.269  0.00  0.00    +0.088 C 
BRANCH  19  22
ATOM     22  C   UNL     1      -7.990  -7.848   8.766  0.00  0.00    +0.042 A 
ATOM     25  C   UNL     1      -9.195  -8.314   9.290  0.00  0.00    +0.129 A 
ATOM     26  C   UNL     1      -7.902  -6.547   8.270  0.00  0.00    +0.013 A 
ATOM     29  C   UNL     1     -10.313  -7.479   9.319  0.00  0.00    +0.046 A 
ATOM     30  C   UNL     1      -9.018  -5.712   8.299  0.00  0.00    +0.001 A 
ATOM     33  C   UNL     1     -10.225  -6.178   8.822  0.00  0.00    +0.004 A 
BRANCH  25   2
ATOM      2  O   UNL     1      -9.312  -9.581   9.782  0.00  0.00    -0.494 OA
ATOM     36  C   UNL     1      -9.494  -9.714  11.189  0.00  0.00    +0.277 C 
ENDBRANCH  25   2
ENDBRANCH  19  22
ENDBRANCH  10  17
BRANCH  11  16
ATOM     16  C   UNL     1      -5.701 -12.377  13.203  0.00  0.00    +0.123 C 
BRANCH  16   6
ATOM      1  O   UNL     1      -5.036 -13.909  15.539  0.00  0.00    -0.270 OA
ATOM      6  N   UNL     1      -6.020 -12.051  14.559  0.00  0.00    -0.310 N 
ATOM     21  C   UNL     1      -5.657 -12.854  15.638  0.00  0.00    +0.245 C 
ATOM     37  H   UNL     1      -6.530 -11.189  14.734  0.00  0.00    +0.149 HD
BRANCH  21  23
ATOM     23  C   UNL     1      -6.088 -12.389  16.982  0.00  0.00    +0.051 A 
ATOM     27  C   UNL     1      -5.500 -11.278  17.586  0.00  0.00    +0.071 A 
ATOM     28  C   UNL     1      -7.099 -13.088  17.640  0.00  0.00    +0.014 A 
ATOM     31  C   UNL     1      -5.924 -10.866  18.849  0.00  0.00    +0.016 A 
ATOM     32  C   UNL     1      -7.523 -12.675  18.903  0.00  0.00    +0.001 A 
ATOM     35  C   UNL     1      -6.936 -11.564  19.508  0.00  0.00    +0.001 A 
BRANCH  27  34
ATOM      4  O   UNL     1      -3.232 -10.745  17.043  0.00  0.00    -0.245 OA
ATOM     34  C   UNL     1      -4.441 -10.528  16.924  0.00  0.00    +0.338 C 
BRANCH  34   3
ATOM      3  O   UNL     1      -4.926  -9.532  16.136  0.00  0.00    -0.477 OA
ATOM     38  H   UNL     1      -4.218  -9.107  15.607  0.00  0.00    +0.295 HD
ENDBRANCH  34   3
ENDBRANCH  27  34
ENDBRANCH  21  23
ENDBRANCH  16   6
ENDBRANCH  11  16
TORSDOF 8
ENDMDL
MODEL 9
REMARK VINA RESULT:      -6.2     23.279     25.866
REMARK  Name = 26742362
REMARK  10 active torsions:
REMARK  status: ('A' for Active; 'I' for Inactive)
REMARK    1  A    between atoms: O_2  and  C_25
REMARK    2  A    between atoms: O_2  and  C_36
REMARK    3  A    between atoms: O_3  and  C_34
REMARK    4  A    between atoms: N_6  and  C_16
REMARK    5  A    between atoms: C_10  and  C_17
REMARK    6  A    between atoms: C_11  and  C_16
REMARK    7  A    between atoms: C_19  and  C_22
REMARK    8  A    between atoms: C_20  and  C_24
REMARK    9  A    between atoms: C_21  and  C_23
REMARK   10  A    between atoms: C_27  and  C_34
REMARK                            x       y       z     vdW  Elec       q    Type
REMARK                         _______ _______ _______ _____ _____    ______ ____
ROOT
ATOM      5  N   UNL     1      -4.617  -9.200  11.137  0.00  0.00    -0.297 NA
ATOM      9  C   UNL     1      -5.599 -10.716   9.261  0.00  0.00    +0.002 C 
ATOM     10  C   UNL     1      -5.588  -9.230   8.809  0.00  0.00    +0.055 C 
ATOM     11  C   UNL     1      -5.667 -10.088  11.700  0.00  0.00    +0.074 C 
ATOM     12  C   UNL     1      -6.403 -10.844  10.572  0.00  0.00    +0.024 C 
ATOM     13  C   UNL     1      -4.137 -11.093   9.586  0.00  0.00    +0.019 C 
ATOM     14  C   UNL     1      -5.183  -8.373  10.043  0.00  0.00    +0.094 C 
ATOM     15  C   UNL     1      -3.553 -10.060  10.564  0.00  0.00    +0.085 C 
ENDROOT
BRANCH  10  17
ATOM      7  N   UNL     1      -7.032  -9.098   6.839  0.00  0.00    -0.237 NA
ATOM      8  N   UNL     1      -9.020  -7.736   6.793  0.00  0.00    -0.232 NA
ATOM     17  C   UNL     1      -6.823  -8.684   8.106  0.00  0.00    +0.050 A 
ATOM     18  C   UNL     1      -7.655  -7.809   8.775  0.00  0.00    +0.052 A 
ATOM     19  C   UNL     1      -8.750  -7.364   8.062  0.00  0.00    +0.078 A 
ATOM     20  C   UNL     1      -8.133  -8.593   6.251  0.00  0.00    +0.127 A 
ATOM     24  C   UNL     1      -8.397  -9.025   4.849  0.00  0.00    +0.088 C 
BRANCH  19  22
ATOM     22  C   UNL     1      -9.697  -6.445   8.646  0.00  0.00    +0.042 A 
ATOM     25  C   UNL     1     -10.822  -6.913   9.324  0.00  0.00    +0.129 A 
ATOM     26  C   UNL     1      -9.476  -5.073   8.525  0.00  0.00    +0.013 A 
ATOM     29  C   UNL     1     -11.727  -6.009   9.882  0.00  0.00    +0.046 A 
ATOM     30  C   UNL     1     -10.379  -4.169   9.083  0.00  0.00    +0.001 A 
ATOM     33  C   UNL     1     -11.505  -4.636   9.761  0.00  0.00    +0.004 A 
BRANCH  25   2
ATOM      2  O   UNL     1     -11.065  -8.249   9.457  0.00  0.00    -0.494 OA
ATOM     36  C   UNL     1     -10.965  -8.796  10.769  0.00  0.00    +0.277 C 
ENDBRANCH  25   2
ENDBRANCH  19  22
ENDBRANCH  10  17
BRANCH  11  16
ATOM     16  C   UNL     1      -6.640  -9.337  12.611  0.00  0.00    +0.123 C 
BRANCH  16   6
ATOM      1  O   UNL     1      -7.255 -11.600  14.268  0.00  0.00    -0.270 OA
ATOM      6  N   UNL     1      -6.288  -9.510  13.986  0.00  0.00    -0.310 N 
ATOM     21  C   UNL     1      -6.628 -10.645  14.719  0.00  0.00    +0.245 C 
ATOM     37  H   UNL     1      -5.761  -8.768  14.440  0.00  0.00    +0.149 HD
BRANCH  21  23
ATOM     23  C   UNL     1      -6.211 -10.660  16.145  0.00  0.00    +0.051 A 
ATOM     27  C   UNL     1      -4.918 -11.027  16.518  0.00  0.00    +0.071 A 
ATOM     28  C   UNL     1      -7.142 -10.299  17.119  0.00  0.00    +0.014 A 
ATOM     31  C   UNL     1      -4.557 -11.033  17.865  0.00  0.00    +0.016 A 
ATOM     32  C   UNL     1      -6.780 -10.304  18.466  0.00  0.00    +0.001 A 
ATOM     35  C   UNL     1      -5.487 -10.671  18.840  0.00  0.00    +0.001 A 
BRANCH  27  34
ATOM      4  O   UNL     1      -3.637 -12.569  15.213  0.00  0.00    -0.245 OA
ATOM     34  C   UNL     1      -3.924 -11.410  15.525  0.00  0.00    +0.338 C 
BRANCH  34   3
ATOM      3  O   UNL     1      -3.320 -10.334  14.954  0.00  0.00    -0.477 OA
ATOM     38  H   UNL     1      -3.747 -10.082  14.107  0.00  0.00    +0.295 HD
ENDBRANCH  34   3
ENDBRANCH  27  34
ENDBRANCH  21  23
ENDBRANCH  16   6
ENDBRANCH  11  16
TORSDOF 8
ENDMDL
MODEL 10
REMARK VINA RESULT:      -6.2      2.766      5.647
REMARK  Name = 26742362
REMARK  10 active torsions:
REMARK  status: ('A' for Active; 'I' for Inactive)
REMARK    1  A    between atoms: O_2  and  C_25
REMARK    2  A    between atoms: O_2  and  C_36
REMARK    3  A    between atoms: O_3  and  C_34
REMARK    4  A    between atoms: N_6  and  C_16
REMARK    5  A    between atoms: C_10  and  C_17
REMARK    6  A    between atoms: C_11  and  C_16
REMARK    7  A    between atoms: C_19  and  C_22
REMARK    8  A    between atoms: C_20  and  C_24
REMARK    9  A    between atoms: C_21  and  C_23
REMARK   10  A    between atoms: C_27  and  C_34
REMARK                            x       y       z     vdW  Elec       q    Type
REMARK                         _______ _______ _______ _____ _____    ______ ____
ROOT
ATOM      5  N   UNL     1       7.929  10.089   4.663  0.00  0.00    -0.297 NA
ATOM      9  C   UNL     1       9.209   9.286   2.543  0.00  0.00    +0.002 C 
ATOM     10  C   UNL     1       8.506   8.089   3.239  0.00  0.00    +0.055 C 
ATOM     11  C   UNL     1       9.322  10.609   4.684  0.00  0.00    +0.074 C 
ATOM     12  C   UNL     1      10.155   9.978   3.548  0.00  0.00    +0.024 C 
ATOM     13  C   UNL     1       8.105  10.304   2.185  0.00  0.00    +0.019 C 
ATOM     14  C   UNL     1       7.940   8.607   4.592  0.00  0.00    +0.094 C 
ATOM     15  C   UNL     1       7.269  10.607   3.441  0.00  0.00    +0.085 C 
ENDROOT
BRANCH  10  17
ATOM      7  N   UNL     1       9.201   6.176   4.596  0.00  0.00    -0.237 NA
ATOM      8  N   UNL     1      10.665   4.461   3.745  0.00  0.00    -0.232 NA
ATOM     17  C   UNL     1       9.286   6.792   3.399  0.00  0.00    +0.050 A 
ATOM     18  C   UNL     1      10.030   6.311   2.340  0.00  0.00    +0.052 A 
ATOM     19  C   UNL     1      10.705   5.129   2.573  0.00  0.00    +0.078 A 
ATOM     20  C   UNL     1       9.905   5.033   4.699  0.00  0.00    +0.127 A 
ATOM     24  C   UNL     1       9.838   4.325   6.009  0.00  0.00    +0.088 C 
BRANCH  19  22
ATOM     22  C   UNL     1      11.519   4.522   1.548  0.00  0.00    +0.042 A 
ATOM     25  C   UNL     1      11.011   4.300   0.269  0.00  0.00    +0.129 A 
ATOM     26  C   UNL     1      12.830   4.153   1.852  0.00  0.00    +0.013 A 
ATOM     29  C   UNL     1      11.814   3.711  -0.709  0.00  0.00    +0.046 A 
ATOM     30  C   UNL     1      13.633   3.564   0.875  0.00  0.00    +0.001 A 
ATOM     33  C   UNL     1      13.125   3.342  -0.405  0.00  0.00    +0.004 A 
BRANCH  25   2
ATOM      2  O   UNL     1       9.733   4.649  -0.057  0.00  0.00    -0.494 OA
ATOM     36  C   UNL     1       9.553   5.397  -1.257  0.00  0.00    +0.277 C 
ENDBRANCH  25   2
ENDBRANCH  19  22
ENDBRANCH  10  17
BRANCH  11  16
ATOM     16  C   UNL     1       9.991  10.430   6.048  0.00  0.00    +0.123 C 
BRANCH  16   6
ATOM      1  O   UNL     1      11.951  10.180   8.132  0.00  0.00    -0.270 OA
ATOM      6  N   UNL     1      11.346   9.996   5.899  0.00  0.00    -0.310 N 
ATOM     21  C   UNL     1      12.234   9.903   6.969  0.00  0.00    +0.245 C 
ATOM     37  H   UNL     1      11.665   9.740   4.969  0.00  0.00    +0.149 HD
BRANCH  21  23
ATOM     23  C   UNL     1      13.615   9.461   6.645  0.00  0.00    +0.051 A 
ATOM     27  C   UNL     1      13.914   8.115   6.434  0.00  0.00    +0.071 A 
ATOM     28  C   UNL     1      14.622  10.422   6.554  0.00  0.00    +0.014 A 
ATOM     31  C   UNL     1      15.220   7.730   6.132  0.00  0.00    +0.016 A 
ATOM     32  C   UNL     1      15.928  10.036   6.252  0.00  0.00    +0.001 A 
ATOM     35  C   UNL     1      16.227   8.691   6.040  0.00  0.00    +0.001 A 
BRANCH  27  34
ATOM      4  O   UNL     1      12.664   6.382   7.510  0.00  0.00    -0.245 OA
ATOM     34  C   UNL     1      12.884   7.088   6.522  0.00  0.00    +0.338 C 
BRANCH  34   3
ATOM      3  O   UNL     1      12.163   6.977   5.375  0.00  0.00    -0.477 OA
ATOM     38  H   UNL     1      12.631   6.441   4.699  0.00  0.00    +0.295 HD
ENDBRANCH  34   3
ENDBRANCH  27  34
ENDBRANCH  21  23
ENDBRANCH  16   6
ENDBRANCH  11  16
TORSDOF 8
ENDMDL
