MODEL 1
REMARK VINA RESULT:      -7.2      0.000      0.000
REMARK  Name = 51137781
REMARK  6 active torsions:
REMARK  status: ('A' for Active; 'I' for Inactive)
REMARK    1  A    between atoms: N_7  and  C_20
REMARK    2  A    between atoms: N_7  and  C_26
REMARK    3  A    between atoms: N_7  and  C_27
REMARK    4  A    between atoms: C_8  and  C_12
REMARK    5  A    between atoms: C_13  and  C_14
REMARK    6  A    between atoms: C_15  and  C_16
REMARK                            x       y       z     vdW  Elec       q    Type
REMARK                         _______ _______ _______ _____ _____    ______ ____
ROOT
ATOM      1  O   UNL     1      16.882   6.401  21.017  0.00  0.00    -0.420 OA
ATOM      4  N   UNL     1      16.231   6.064  18.904  0.00  0.00    -0.112 NA
ATOM      5  N   UNL     1      17.600   5.882  18.963  0.00  0.00    -0.107 NA
ATOM     12  C   UNL     1      15.856   6.365  20.126  0.00  0.00    +0.222 A 
ATOM     15  C   UNL     1      17.937   6.089  20.215  0.00  0.00    +0.248 A 
ENDROOT
BRANCH  12   8
ATOM      2  O   UNL     1      13.542  11.042  19.344  0.00  0.00    -0.268 OA
ATOM      3  N   UNL     1      13.687   8.803  19.946  0.00  0.00    -0.296 N 
ATOM      8  C   UNL     1      14.468   6.672  20.662  0.00  0.00    +0.095 C 
ATOM      9  C   UNL     1      14.521   7.662  21.836  0.00  0.00    +0.033 C 
ATOM     10  C   UNL     1      13.500   7.373  19.699  0.00  0.00    +0.121 C 
ATOM     11  C   UNL     1      14.447   9.028  21.167  0.00  0.00    +0.109 C 
ATOM     13  C   UNL     1      13.298   9.854  19.132  0.00  0.00    +0.265 C 
BRANCH  13  14
ATOM      6  N   UNL     1      13.115   9.920  16.749  0.00  0.00    -0.250 NA
ATOM     14  C   UNL     1      12.546   9.527  17.910  0.00  0.00    +0.126 A 
ATOM     17  C   UNL     1      11.337   8.857  17.995  0.00  0.00    +0.033 A 
ATOM     23  C   UNL     1      10.666   8.573  16.809  0.00  0.00    +0.004 A 
ATOM     24  C   UNL     1      12.435   9.627  15.618  0.00  0.00    +0.111 A 
ATOM     25  C   UNL     1      11.220   8.962  15.595  0.00  0.00    +0.020 A 
ENDBRANCH  13  14
ENDBRANCH  12   8
BRANCH  15  16
ATOM     16  C   UNL     1      19.218   6.037  20.856  0.00  0.00    +0.039 A 
ATOM     18  C   UNL     1      19.467   6.823  21.981  0.00  0.00    +0.015 A 
ATOM     19  C   UNL     1      20.216   5.201  20.355  0.00  0.00    +0.015 A 
ATOM     20  C   UNL     1      21.711   5.936  22.104  0.00  0.00    +0.029 A 
ATOM     21  C   UNL     1      20.714   6.773  22.605  0.00  0.00    +0.024 A 
ATOM     22  C   UNL     1      21.462   5.150  20.979  0.00  0.00    +0.024 A 
BRANCH  20   7
ATOM      7  N   UNL     1      22.972   5.886  22.734  0.00  0.00    -0.336 N 
ATOM     26  C   UNL     1      23.324   4.767  23.584  0.00  0.00    +0.129 C 
ATOM     27  C   UNL     1      23.929   6.958  22.547  0.00  0.00    +0.129 C 
ENDBRANCH  20   7
ENDBRANCH  15  16
TORSDOF 4
ENDMDL
MODEL 2
REMARK VINA RESULT:      -7.0      2.379      3.172
REMARK  Name = 51137781
REMARK  6 active torsions:
REMARK  status: ('A' for Active; 'I' for Inactive)
REMARK    1  A    between atoms: N_7  and  C_20
REMARK    2  A    between atoms: N_7  and  C_26
REMARK    3  A    between atoms: N_7  and  C_27
REMARK    4  A    between atoms: C_8  and  C_12
REMARK    5  A    between atoms: C_13  and  C_14
REMARK    6  A    between atoms: C_15  and  C_16
REMARK                            x       y       z     vdW  Elec       q    Type
REMARK                         _______ _______ _______ _____ _____    ______ ____
ROOT
ATOM      1  O   UNL     1      18.748   7.290  21.241  0.00  0.00    -0.420 OA
ATOM      4  N   UNL     1      16.986   6.732  19.982  0.00  0.00    -0.112 NA
ATOM      5  N   UNL     1      18.021   5.869  19.674  0.00  0.00    -0.107 NA
ATOM     12  C   UNL     1      17.456   7.543  20.901  0.00  0.00    +0.222 A 
ATOM     15  C   UNL     1      19.029   6.232  20.432  0.00  0.00    +0.248 A 
ENDROOT
BRANCH  12   8
ATOM      2  O   UNL     1      13.156   9.876  18.926  0.00  0.00    -0.268 OA
ATOM      3  N   UNL     1      14.763   9.354  20.520  0.00  0.00    -0.296 N 
ATOM      8  C   UNL     1      16.771   8.695  21.615  0.00  0.00    +0.095 C 
ATOM      9  C   UNL     1      16.994  10.029  20.883  0.00  0.00    +0.033 C 
ATOM     10  C   UNL     1      15.239   8.634  21.702  0.00  0.00    +0.121 C 
ATOM     11  C   UNL     1      15.843  10.099  19.890  0.00  0.00    +0.109 C 
ATOM     13  C   UNL     1      13.493   9.311  19.965  0.00  0.00    +0.265 C 
BRANCH  13  14
ATOM      6  N   UNL     1      11.633   9.217  21.464  0.00  0.00    -0.250 NA
ATOM     14  C   UNL     1      12.471   8.518  20.666  0.00  0.00    +0.126 A 
ATOM     17  C   UNL     1      12.410   7.146  20.489  0.00  0.00    +0.033 A 
ATOM     23  C   UNL     1      11.424   6.444  21.176  0.00  0.00    +0.004 A 
ATOM     24  C   UNL     1      10.689   8.502  22.115  0.00  0.00    +0.111 A 
ATOM     25  C   UNL     1      10.543   7.128  22.006  0.00  0.00    +0.020 A 
ENDBRANCH  13  14
ENDBRANCH  12   8
BRANCH  15  16
ATOM     16  C   UNL     1      20.355   5.696  20.538  0.00  0.00    +0.039 A 
ATOM     18  C   UNL     1      21.458   6.548  20.477  0.00  0.00    +0.015 A 
ATOM     19  C   UNL     1      20.542   4.324  20.703  0.00  0.00    +0.015 A 
ATOM     20  C   UNL     1      22.934   4.654  20.745  0.00  0.00    +0.029 A 
ATOM     21  C   UNL     1      22.748   6.026  20.580  0.00  0.00    +0.024 A 
ATOM     22  C   UNL     1      21.831   3.802  20.807  0.00  0.00    +0.024 A 
BRANCH  20   7
ATOM      7  N   UNL     1      24.239   4.127  20.849  0.00  0.00    -0.336 N 
ATOM     26  C   UNL     1      24.928   4.120  22.123  0.00  0.00    +0.129 C 
ATOM     27  C   UNL     1      24.910   3.594  19.680  0.00  0.00    +0.129 C 
ENDBRANCH  20   7
ENDBRANCH  15  16
TORSDOF 4
ENDMDL
MODEL 3
REMARK VINA RESULT:      -7.0      2.428      9.724
REMARK  Name = 51137781
REMARK  6 active torsions:
REMARK  status: ('A' for Active; 'I' for Inactive)
REMARK    1  A    between atoms: N_7  and  C_20
REMARK    2  A    between atoms: N_7  and  C_26
REMARK    3  A    between atoms: N_7  and  C_27
REMARK    4  A    between atoms: C_8  and  C_12
REMARK    5  A    between atoms: C_13  and  C_14
REMARK    6  A    between atoms: C_15  and  C_16
REMARK                            x       y       z     vdW  Elec       q    Type
REMARK                         _______ _______ _______ _____ _____    ______ ____
ROOT
ATOM      1  O   UNL     1      18.158   7.260  20.899  0.00  0.00    -0.420 OA
ATOM      4  N   UNL     1      19.130   5.560  19.817  0.00  0.00    -0.112 NA
ATOM      5  N   UNL     1      17.763   5.456  19.637  0.00  0.00    -0.107 NA
ATOM     12  C   UNL     1      19.314   6.628  20.559  0.00  0.00    +0.222 A 
ATOM     15  C   UNL     1      17.236   6.467  20.286  0.00  0.00    +0.248 A 
ENDROOT
BRANCH  12   8
ATOM      2  O   UNL     1      22.219   4.246  24.263  0.00  0.00    -0.268 OA
ATOM      3  N   UNL     1      21.728   5.783  22.593  0.00  0.00    -0.296 N 
ATOM      8  C   UNL     1      20.606   7.235  21.076  0.00  0.00    +0.095 C 
ATOM      9  C   UNL     1      20.450   7.765  22.510  0.00  0.00    +0.033 C 
ATOM     10  C   UNL     1      21.802   6.282  21.219  0.00  0.00    +0.121 C 
ATOM     11  C   UNL     1      20.789   6.565  23.383  0.00  0.00    +0.109 C 
ATOM     13  C   UNL     1      22.367   4.673  23.119  0.00  0.00    +0.265 C 
BRANCH  13  14
ATOM      6  N   UNL     1      24.542   4.431  22.156  0.00  0.00    -0.250 NA
ATOM     14  C   UNL     1      23.287   3.936  22.238  0.00  0.00    +0.126 A 
ATOM     17  C   UNL     1      22.850   2.813  21.556  0.00  0.00    +0.033 A 
ATOM     23  C   UNL     1      23.761   2.154  20.735  0.00  0.00    +0.004 A 
ATOM     24  C   UNL     1      25.399   3.765  21.350  0.00  0.00    +0.111 A 
ATOM     25  C   UNL     1      25.061   2.633  20.625  0.00  0.00    +0.020 A 
ENDBRANCH  13  14
ENDBRANCH  12   8
BRANCH  15  16
ATOM     16  C   UNL     1      15.866   6.860  20.446  0.00  0.00    +0.039 A 
ATOM     18  C   UNL     1      15.429   7.386  21.661  0.00  0.00    +0.015 A 
ATOM     19  C   UNL     1      14.971   6.717  19.386  0.00  0.00    +0.015 A 
ATOM     20  C   UNL     1      13.202   7.625  20.757  0.00  0.00    +0.029 A 
ATOM     21  C   UNL     1      14.096   7.769  21.817  0.00  0.00    +0.024 A 
ATOM     22  C   UNL     1      13.639   7.100  19.541  0.00  0.00    +0.024 A 
BRANCH  20   7
ATOM      7  N   UNL     1      11.854   8.011  20.914  0.00  0.00    -0.336 N 
ATOM     26  C   UNL     1      11.133   8.624  19.817  0.00  0.00    +0.129 C 
ATOM     27  C   UNL     1      11.176   7.808  22.179  0.00  0.00    +0.129 C 
ENDBRANCH  20   7
ENDBRANCH  15  16
TORSDOF 4
ENDMDL
MODEL 4
REMARK VINA RESULT:      -7.0      2.761      4.364
REMARK  Name = 51137781
REMARK  6 active torsions:
REMARK  status: ('A' for Active; 'I' for Inactive)
REMARK    1  A    between atoms: N_7  and  C_20
REMARK    2  A    between atoms: N_7  and  C_26
REMARK    3  A    between atoms: N_7  and  C_27
REMARK    4  A    between atoms: C_8  and  C_12
REMARK    5  A    between atoms: C_13  and  C_14
REMARK    6  A    between atoms: C_15  and  C_16
REMARK                            x       y       z     vdW  Elec       q    Type
REMARK                         _______ _______ _______ _____ _____    ______ ____
ROOT
ATOM      1  O   UNL     1      15.372   8.534  19.675  0.00  0.00    -0.420 OA
ATOM      4  N   UNL     1      14.140   6.806  18.968  0.00  0.00    -0.112 NA
ATOM      5  N   UNL     1      15.333   6.308  19.459  0.00  0.00    -0.107 NA
ATOM     12  C   UNL     1      14.207   8.108  19.116  0.00  0.00    +0.222 A 
ATOM     15  C   UNL     1      16.020   7.351  19.860  0.00  0.00    +0.248 A 
ENDROOT
BRANCH  12   8
ATOM      2  O   UNL     1      10.436   9.612  22.485  0.00  0.00    -0.268 OA
ATOM      3  N   UNL     1      11.776   9.717  20.590  0.00  0.00    -0.296 N 
ATOM      8  C   UNL     1      13.189   9.176  18.754  0.00  0.00    +0.095 C 
ATOM      9  C   UNL     1      11.793   8.573  18.527  0.00  0.00    +0.033 C 
ATOM     10  C   UNL     1      12.905  10.242  19.821  0.00  0.00    +0.121 C 
ATOM     11  C   UNL     1      11.159   8.588  19.911  0.00  0.00    +0.109 C 
ATOM     13  C   UNL     1      11.347  10.131  21.841  0.00  0.00    +0.265 C 
BRANCH  13  14
ATOM      6  N   UNL     1      13.176  10.975  23.130  0.00  0.00    -0.250 NA
ATOM     14  C   UNL     1      12.043  11.273  22.456  0.00  0.00    +0.126 A 
ATOM     17  C   UNL     1      11.532  12.554  22.325  0.00  0.00    +0.033 A 
ATOM     23  C   UNL     1      12.229  13.597  22.926  0.00  0.00    +0.004 A 
ATOM     24  C   UNL     1      13.826  12.014  23.701  0.00  0.00    +0.111 A 
ATOM     25  C   UNL     1      13.398  13.330  23.629  0.00  0.00    +0.020 A 
ENDBRANCH  13  14
ENDBRANCH  12   8
BRANCH  15  16
ATOM     16  C   UNL     1      17.324   7.436  20.452  0.00  0.00    +0.039 A 
ATOM     18  C   UNL     1      17.673   8.555  21.209  0.00  0.00    +0.015 A 
ATOM     19  C   UNL     1      18.241   6.401  20.274  0.00  0.00    +0.015 A 
ATOM     20  C   UNL     1      19.858   7.603  21.606  0.00  0.00    +0.029 A 
ATOM     21  C   UNL     1      18.942   8.639  21.785  0.00  0.00    +0.024 A 
ATOM     22  C   UNL     1      19.508   6.484  20.850  0.00  0.00    +0.024 A 
BRANCH  20   7
ATOM      7  N   UNL     1      21.140   7.688  22.188  0.00  0.00    -0.336 N 
ATOM     26  C   UNL     1      21.540   8.877  22.912  0.00  0.00    +0.129 C 
ATOM     27  C   UNL     1      22.078   6.590  22.062  0.00  0.00    +0.129 C 
ENDBRANCH  20   7
ENDBRANCH  15  16
TORSDOF 4
ENDMDL
MODEL 5
REMARK VINA RESULT:      -6.8     28.400     31.073
REMARK  Name = 51137781
REMARK  6 active torsions:
REMARK  status: ('A' for Active; 'I' for Inactive)
REMARK    1  A    between atoms: N_7  and  C_20
REMARK    2  A    between atoms: N_7  and  C_26
REMARK    3  A    between atoms: N_7  and  C_27
REMARK    4  A    between atoms: C_8  and  C_12
REMARK    5  A    between atoms: C_13  and  C_14
REMARK    6  A    between atoms: C_15  and  C_16
REMARK                            x       y       z     vdW  Elec       q    Type
REMARK                         _______ _______ _______ _____ _____    ______ ____
ROOT
ATOM      1  O   UNL     1      -7.459  -9.765  18.033  0.00  0.00    -0.420 OA
ATOM      4  N   UNL     1      -7.543 -11.283  19.674  0.00  0.00    -0.112 NA
ATOM      5  N   UNL     1      -8.833 -10.858  19.419  0.00  0.00    -0.107 NA
ATOM     12  C   UNL     1      -6.775 -10.619  18.841  0.00  0.00    +0.222 A 
ATOM     15  C   UNL     1      -8.737  -9.973  18.455  0.00  0.00    +0.248 A 
ENDROOT
BRANCH  12   8
ATOM      2  O   UNL     1      -4.487 -13.956  15.456  0.00  0.00    -0.268 OA
ATOM      3  N   UNL     1      -4.627 -12.158  16.919  0.00  0.00    -0.296 N 
ATOM      8  C   UNL     1      -5.268 -10.672  18.665  0.00  0.00    +0.095 C 
ATOM      9  C   UNL     1      -4.671 -11.953  19.270  0.00  0.00    +0.033 C 
ATOM     10  C   UNL     1      -4.747 -10.731  17.221  0.00  0.00    +0.121 C 
ATOM     11  C   UNL     1      -4.733 -12.959  18.129  0.00  0.00    +0.109 C 
ATOM     13  C   UNL     1      -4.512 -12.744  15.669  0.00  0.00    +0.265 C 
BRANCH  13  14
ATOM      6  N   UNL     1      -5.604 -11.524  13.928  0.00  0.00    -0.250 NA
ATOM     14  C   UNL     1      -4.426 -11.851  14.503  0.00  0.00    +0.126 A 
ATOM     17  C   UNL     1      -3.194 -11.400  14.060  0.00  0.00    +0.033 A 
ATOM     23  C   UNL     1      -3.169 -10.558  12.952  0.00  0.00    +0.004 A 
ATOM     24  C   UNL     1      -5.541 -10.704  12.855  0.00  0.00    +0.111 A 
ATOM     25  C   UNL     1      -4.360 -10.199  12.333  0.00  0.00    +0.020 A 
ENDBRANCH  13  14
ENDBRANCH  12   8
BRANCH  15  16
ATOM     16  C   UNL     1      -9.750  -9.206  17.789  0.00  0.00    +0.039 A 
ATOM     18  C   UNL     1     -11.088  -9.587  17.887  0.00  0.00    +0.015 A 
ATOM     19  C   UNL     1      -9.397  -8.081  17.045  0.00  0.00    +0.015 A 
ATOM     20  C   UNL     1     -11.721  -7.715  16.495  0.00  0.00    +0.029 A 
ATOM     21  C   UNL     1     -12.074  -8.841  17.239  0.00  0.00    +0.024 A 
ATOM     22  C   UNL     1     -10.382  -7.335  16.399  0.00  0.00    +0.024 A 
BRANCH  20   7
ATOM      7  N   UNL     1     -12.717  -6.962  15.840  0.00  0.00    -0.336 N 
ATOM     26  C   UNL     1     -14.118  -7.283  16.023  0.00  0.00    +0.129 C 
ATOM     27  C   UNL     1     -12.353  -5.864  14.968  0.00  0.00    +0.129 C 
ENDBRANCH  20   7
ENDBRANCH  15  16
TORSDOF 4
ENDMDL
MODEL 6
REMARK VINA RESULT:      -6.8     29.033     33.386
REMARK  Name = 51137781
REMARK  6 active torsions:
REMARK  status: ('A' for Active; 'I' for Inactive)
REMARK    1  A    between atoms: N_7  and  C_20
REMARK    2  A    between atoms: N_7  and  C_26
REMARK    3  A    between atoms: N_7  and  C_27
REMARK    4  A    between atoms: C_8  and  C_12
REMARK    5  A    between atoms: C_13  and  C_14
REMARK    6  A    between atoms: C_15  and  C_16
REMARK                            x       y       z     vdW  Elec       q    Type
REMARK                         _______ _______ _______ _____ _____    ______ ____
ROOT
ATOM      1  O   UNL     1     -15.914   5.108  24.356  0.00  0.00    -0.420 OA
ATOM      4  N   UNL     1     -16.416   2.928  24.328  0.00  0.00    -0.112 NA
ATOM      5  N   UNL     1     -15.701   3.217  23.181  0.00  0.00    -0.107 NA
ATOM     12  C   UNL     1     -16.515   4.061  24.984  0.00  0.00    +0.222 A 
ATOM     15  C   UNL     1     -15.430   4.499  23.239  0.00  0.00    +0.248 A 
ENDROOT
BRANCH  12   8
ATOM      2  O   UNL     1     -18.026   0.200  28.246  0.00  0.00    -0.268 OA
ATOM      3  N   UNL     1     -17.549   2.375  27.585  0.00  0.00    -0.296 N 
ATOM      8  C   UNL     1     -17.193   4.354  26.311  0.00  0.00    +0.095 C 
ATOM      9  C   UNL     1     -18.684   3.980  26.280  0.00  0.00    +0.033 C 
ATOM     10  C   UNL     1     -16.692   3.560  27.527  0.00  0.00    +0.121 C 
ATOM     11  C   UNL     1     -18.704   2.521  26.713  0.00  0.00    +0.109 C 
ATOM     13  C   UNL     1     -17.313   1.202  28.284  0.00  0.00    +0.265 C 
BRANCH  13  14
ATOM      6  N   UNL     1     -15.220   0.176  28.814  0.00  0.00    -0.250 NA
ATOM     14  C   UNL     1     -16.109   1.144  29.128  0.00  0.00    +0.126 A 
ATOM     17  C   UNL     1     -15.942   2.043  30.168  0.00  0.00    +0.033 A 
ATOM     23  C   UNL     1     -14.787   1.943  30.936  0.00  0.00    +0.004 A 
ATOM     24  C   UNL     1     -14.109   0.109  29.582  0.00  0.00    +0.111 A 
ATOM     25  C   UNL     1     -13.848   0.961  30.643  0.00  0.00    +0.020 A 
ENDBRANCH  13  14
ENDBRANCH  12   8
BRANCH  15  16
ATOM     16  C   UNL     1     -14.715   5.343  22.325  0.00  0.00    +0.039 A 
ATOM     18  C   UNL     1     -13.323   5.284  22.267  0.00  0.00    +0.015 A 
ATOM     19  C   UNL     1     -15.412   6.220  21.495  0.00  0.00    +0.015 A 
ATOM     20  C   UNL     1     -13.324   6.982  20.548  0.00  0.00    +0.029 A 
ATOM     21  C   UNL     1     -12.627   6.105  21.378  0.00  0.00    +0.024 A 
ATOM     22  C   UNL     1     -14.717   7.040  20.606  0.00  0.00    +0.024 A 
BRANCH  20   7
ATOM      7  N   UNL     1     -12.620   7.812  19.650  0.00  0.00    -0.336 N 
ATOM     26  C   UNL     1     -13.014   9.195  19.467  0.00  0.00    +0.129 C 
ATOM     27  C   UNL     1     -11.500   7.291  18.893  0.00  0.00    +0.129 C 
ENDBRANCH  20   7
ENDBRANCH  15  16
TORSDOF 4
ENDMDL
MODEL 7
REMARK VINA RESULT:      -6.8      5.677      7.699
REMARK  Name = 51137781
REMARK  6 active torsions:
REMARK  status: ('A' for Active; 'I' for Inactive)
REMARK    1  A    between atoms: N_7  and  C_20
REMARK    2  A    between atoms: N_7  and  C_26
REMARK    3  A    between atoms: N_7  and  C_27
REMARK    4  A    between atoms: C_8  and  C_12
REMARK    5  A    between atoms: C_13  and  C_14
REMARK    6  A    between atoms: C_15  and  C_16
REMARK                            x       y       z     vdW  Elec       q    Type
REMARK                         _______ _______ _______ _____ _____    ______ ____
ROOT
ATOM      1  O   UNL     1      12.755   9.214  18.634  0.00  0.00    -0.420 OA
ATOM      4  N   UNL     1      12.131   7.198  17.892  0.00  0.00    -0.112 NA
ATOM      5  N   UNL     1      12.823   7.832  16.877  0.00  0.00    -0.107 NA
ATOM     12  C   UNL     1      12.117   8.042  18.898  0.00  0.00    +0.222 A 
ATOM     15  C   UNL     1      13.168   9.005  17.354  0.00  0.00    +0.248 A 
ENDROOT
BRANCH  12   8
ATOM      2  O   UNL     1      14.025  10.606  23.096  0.00  0.00    -0.268 OA
ATOM      3  N   UNL     1      12.508   9.344  21.869  0.00  0.00    -0.296 N 
ATOM      8  C   UNL     1      11.500   7.890  20.277  0.00  0.00    +0.095 C 
ATOM      9  C   UNL     1      12.406   7.079  21.217  0.00  0.00    +0.033 C 
ATOM     10  C   UNL     1      11.287   9.183  21.079  0.00  0.00    +0.121 C 
ATOM     11  C   UNL     1      13.307   8.128  21.853  0.00  0.00    +0.109 C 
ATOM     13  C   UNL     1      12.953  10.494  22.502  0.00  0.00    +0.265 C 
BRANCH  13  14
ATOM      6  N   UNL     1      11.335  11.905  23.554  0.00  0.00    -0.250 NA
ATOM     14  C   UNL     1      12.082  11.679  22.451  0.00  0.00    +0.126 A 
ATOM     17  C   UNL     1      12.063  12.482  21.323  0.00  0.00    +0.033 A 
ATOM     23  C   UNL     1      11.221  13.590  21.327  0.00  0.00    +0.004 A 
ATOM     24  C   UNL     1      10.529  12.990  23.521  0.00  0.00    +0.111 A 
ATOM     25  C   UNL     1      10.437  13.855  22.443  0.00  0.00    +0.020 A 
ENDBRANCH  13  14
ENDBRANCH  12   8
BRANCH  15  16
ATOM     16  C   UNL     1      13.899  10.079  16.747  0.00  0.00    +0.039 A 
ATOM     18  C   UNL     1      14.525   9.888  15.515  0.00  0.00    +0.015 A 
ATOM     19  C   UNL     1      13.983  11.315  17.388  0.00  0.00    +0.015 A 
ATOM     20  C   UNL     1      15.320  12.169  15.567  0.00  0.00    +0.029 A 
ATOM     21  C   UNL     1      15.236  10.933  14.925  0.00  0.00    +0.024 A 
ATOM     22  C   UNL     1      14.693  12.360  16.798  0.00  0.00    +0.024 A 
BRANCH  20   7
ATOM      7  N   UNL     1      16.040  13.225  14.970  0.00  0.00    -0.336 N 
ATOM     26  C   UNL     1      17.193  12.948  14.137  0.00  0.00    +0.129 C 
ATOM     27  C   UNL     1      15.642  14.601  15.189  0.00  0.00    +0.129 C 
ENDBRANCH  20   7
ENDBRANCH  15  16
TORSDOF 4
ENDMDL
MODEL 8
REMARK VINA RESULT:      -6.6     28.514     32.740
REMARK  Name = 51137781
REMARK  6 active torsions:
REMARK  status: ('A' for Active; 'I' for Inactive)
REMARK    1  A    between atoms: N_7  and  C_20
REMARK    2  A    between atoms: N_7  and  C_26
REMARK    3  A    between atoms: N_7  and  C_27
REMARK    4  A    between atoms: C_8  and  C_12
REMARK    5  A    between atoms: C_13  and  C_14
REMARK    6  A    between atoms: C_15  and  C_16
REMARK                            x       y       z     vdW  Elec       q    Type
REMARK                         _______ _______ _______ _____ _____    ______ ____
ROOT
ATOM      1  O   UNL     1     -15.397   5.631  22.733  0.00  0.00    -0.420 OA
ATOM      4  N   UNL     1     -14.416   4.258  24.201  0.00  0.00    -0.112 NA
ATOM      5  N   UNL     1     -13.440   4.740  23.349  0.00  0.00    -0.107 NA
ATOM     12  C   UNL     1     -15.541   4.806  23.804  0.00  0.00    +0.222 A 
ATOM     15  C   UNL     1     -14.057   5.536  22.509  0.00  0.00    +0.248 A 
ENDROOT
BRANCH  12   8
ATOM      2  O   UNL     1     -16.811   0.829  27.030  0.00  0.00    -0.268 OA
ATOM      3  N   UNL     1     -17.081   2.854  25.925  0.00  0.00    -0.296 N 
ATOM      8  C   UNL     1     -16.944   4.645  24.363  0.00  0.00    +0.095 C 
ATOM      9  C   UNL     1     -17.677   3.455  23.722  0.00  0.00    +0.033 C 
ATOM     10  C   UNL     1     -17.053   4.316  25.859  0.00  0.00    +0.121 C 
ATOM     11  C   UNL     1     -17.303   2.275  24.608  0.00  0.00    +0.109 C 
ATOM     13  C   UNL     1     -16.850   2.059  27.036  0.00  0.00    +0.265 C 
BRANCH  13  14
ATOM      6  N   UNL     1     -17.729   3.014  29.043  0.00  0.00    -0.250 NA
ATOM     14  C   UNL     1     -16.620   2.736  28.322  0.00  0.00    +0.126 A 
ATOM     17  C   UNL     1     -15.333   3.049  28.725  0.00  0.00    +0.033 A 
ATOM     23  C   UNL     1     -15.172   3.690  29.949  0.00  0.00    +0.004 A 
ATOM     24  C   UNL     1     -17.533   3.637  30.227  0.00  0.00    +0.111 A 
ATOM     25  C   UNL     1     -16.288   3.993  30.720  0.00  0.00    +0.020 A 
ENDBRANCH  13  14
ENDBRANCH  12   8
BRANCH  15  16
ATOM     16  C   UNL     1     -13.549   6.308  21.412  0.00  0.00    +0.039 A 
ATOM     18  C   UNL     1     -14.431   6.966  20.555  0.00  0.00    +0.015 A 
ATOM     19  C   UNL     1     -12.173   6.402  21.203  0.00  0.00    +0.015 A 
ATOM     20  C   UNL     1     -12.561   7.811  19.280  0.00  0.00    +0.029 A 
ATOM     21  C   UNL     1     -13.937   7.718  19.488  0.00  0.00    +0.024 A 
ATOM     22  C   UNL     1     -11.679   7.154  20.138  0.00  0.00    +0.024 A 
BRANCH  20   7
ATOM      7  N   UNL     1     -12.062   8.570  18.201  0.00  0.00    -0.336 N 
ATOM     26  C   UNL     1     -12.726   9.791  17.793  0.00  0.00    +0.129 C 
ATOM     27  C   UNL     1     -10.883   8.133  17.480  0.00  0.00    +0.129 C 
ENDBRANCH  20   7
ENDBRANCH  15  16
TORSDOF 4
ENDMDL
MODEL 9
REMARK VINA RESULT:      -6.6      1.839      2.263
REMARK  Name = 51137781
REMARK  6 active torsions:
REMARK  status: ('A' for Active; 'I' for Inactive)
REMARK    1  A    between atoms: N_7  and  C_20
REMARK    2  A    between atoms: N_7  and  C_26
REMARK    3  A    between atoms: N_7  and  C_27
REMARK    4  A    between atoms: C_8  and  C_12
REMARK    5  A    between atoms: C_13  and  C_14
REMARK    6  A    between atoms: C_15  and  C_16
REMARK                            x       y       z     vdW  Elec       q    Type
REMARK                         _______ _______ _______ _____ _____    ______ ____
ROOT
ATOM      1  O   UNL     1      17.872   6.215  20.090  0.00  0.00    -0.420 OA
ATOM      4  N   UNL     1      17.161   8.142  20.976  0.00  0.00    -0.112 NA
ATOM      5  N   UNL     1      18.518   8.035  21.218  0.00  0.00    -0.107 NA
ATOM     12  C   UNL     1      16.828   7.058  20.314  0.00  0.00    +0.222 A 
ATOM     15  C   UNL     1      18.890   6.895  20.685  0.00  0.00    +0.248 A 
ENDROOT
BRANCH  12   8
ATOM      2  O   UNL     1      12.805  10.446  19.901  0.00  0.00    -0.268 OA
ATOM      3  N   UNL     1      13.978   8.470  19.564  0.00  0.00    -0.296 N 
ATOM      8  C   UNL     1      15.472   6.630  19.781  0.00  0.00    +0.095 C 
ATOM      9  C   UNL     1      14.417   6.573  20.898  0.00  0.00    +0.033 C 
ATOM     10  C   UNL     1      14.807   7.567  18.764  0.00  0.00    +0.121 C 
ATOM     11  C   UNL     1      13.841   7.982  20.928  0.00  0.00    +0.109 C 
ATOM     13  C   UNL     1      13.436   9.683  19.171  0.00  0.00    +0.265 C 
BRANCH  13  14
ATOM      6  N   UNL     1      12.777   9.579  16.875  0.00  0.00    -0.250 NA
ATOM     14  C   UNL     1      13.641  10.099  17.774  0.00  0.00    +0.126 A 
ATOM     17  C   UNL     1      14.667  10.971  17.450  0.00  0.00    +0.033 A 
ATOM     23  C   UNL     1      14.817  11.331  16.115  0.00  0.00    +0.004 A 
ATOM     24  C   UNL     1      12.953   9.951  15.588  0.00  0.00    +0.111 A 
ATOM     25  C   UNL     1      13.948  10.817  15.160  0.00  0.00    +0.020 A 
ENDBRANCH  13  14
ENDBRANCH  12   8
BRANCH  15  16
ATOM     16  C   UNL     1      20.179   6.268  20.631  0.00  0.00    +0.039 A 
ATOM     18  C   UNL     1      21.335   7.046  20.696  0.00  0.00    +0.015 A 
ATOM     19  C   UNL     1      20.276   4.882  20.515  0.00  0.00    +0.015 A 
ATOM     20  C   UNL     1      22.686   5.050  20.528  0.00  0.00    +0.029 A 
ATOM     21  C   UNL     1      22.589   6.437  20.644  0.00  0.00    +0.024 A 
ATOM     22  C   UNL     1      21.529   4.273  20.464  0.00  0.00    +0.024 A 
BRANCH  20   7
ATOM      7  N   UNL     1      23.954   4.434  20.474  0.00  0.00    -0.336 N 
ATOM     26  C   UNL     1      24.104   3.033  20.813  0.00  0.00    +0.129 C 
ATOM     27  C   UNL     1      25.125   5.196  20.089  0.00  0.00    +0.129 C 
ENDBRANCH  20   7
ENDBRANCH  15  16
TORSDOF 4
ENDMDL
MODEL 10
REMARK VINA RESULT:      -6.4     27.420     29.893
REMARK  Name = 51137781
REMARK  6 active torsions:
REMARK  status: ('A' for Active; 'I' for Inactive)
REMARK    1  A    between atoms: N_7  and  C_20
REMARK    2  A    between atoms: N_7  and  C_26
REMARK    3  A    between atoms: N_7  and  C_27
REMARK    4  A    between atoms: C_8  and  C_12
REMARK    5  A    between atoms: C_13  and  C_14
REMARK    6  A    between atoms: C_15  and  C_16
REMARK                            x       y       z     vdW  Elec       q    Type
REMARK                         _______ _______ _______ _____ _____    ______ ____
ROOT
ATOM      1  O   UNL     1      -4.734 -10.313  15.463  0.00  0.00    -0.420 OA
ATOM      4  N   UNL     1      -3.445 -11.141  17.093  0.00  0.00    -0.112 NA
ATOM      5  N   UNL     1      -4.709 -10.931  17.613  0.00  0.00    -0.107 NA
ATOM     12  C   UNL     1      -3.507 -10.767  15.836  0.00  0.00    +0.222 A 
ATOM     15  C   UNL     1      -5.427 -10.446  16.627  0.00  0.00    +0.248 A 
ENDROOT
BRANCH  12   8
ATOM      2  O   UNL     1      -4.285 -12.916  11.081  0.00  0.00    -0.268 OA
ATOM      3  N   UNL     1      -3.207 -11.653  12.705  0.00  0.00    -0.296 N 
ATOM      8  C   UNL     1      -2.423 -10.771  14.773  0.00  0.00    +0.095 C 
ATOM      9  C   UNL     1      -1.845 -12.179  14.559  0.00  0.00    +0.033 C 
ATOM     10  C   UNL     1      -2.856 -10.387  13.350  0.00  0.00    +0.121 C 
ATOM     11  C   UNL     1      -2.745 -12.786  13.492  0.00  0.00    +0.109 C 
ATOM     13  C   UNL     1      -3.951 -11.828  11.549  0.00  0.00    +0.265 C 
BRANCH  13  14
ATOM      6  N   UNL     1      -5.620 -10.166  11.143  0.00  0.00    -0.250 NA
ATOM     14  C   UNL     1      -4.386 -10.621  10.830  0.00  0.00    +0.126 A 
ATOM     17  C   UNL     1      -3.551 -10.023   9.901  0.00  0.00    +0.033 A 
ATOM     23  C   UNL     1      -4.013  -8.884   9.249  0.00  0.00    +0.004 A 
ATOM     24  C   UNL     1      -6.035  -9.058  10.489  0.00  0.00    +0.111 A 
ATOM     25  C   UNL     1      -5.276  -8.386   9.544  0.00  0.00    +0.020 A 
ENDBRANCH  13  14
ENDBRANCH  12   8
BRANCH  15  16
ATOM     16  C   UNL     1      -6.803 -10.045  16.587  0.00  0.00    +0.039 A 
ATOM     18  C   UNL     1      -7.484 -10.013  15.370  0.00  0.00    +0.015 A 
ATOM     19  C   UNL     1      -7.461  -9.688  17.763  0.00  0.00    +0.015 A 
ATOM     20  C   UNL     1      -9.480  -9.265  16.507  0.00  0.00    +0.029 A 
ATOM     21  C   UNL     1      -8.823  -9.622  15.330  0.00  0.00    +0.024 A 
ATOM     22  C   UNL     1      -8.800  -9.298  17.724  0.00  0.00    +0.024 A 
BRANCH  20   7
ATOM      7  N   UNL     1     -10.834  -8.870  16.466  0.00  0.00    -0.336 N 
ATOM     26  C   UNL     1     -11.654  -8.935  17.659  0.00  0.00    +0.129 C 
ATOM     27  C   UNL     1     -11.425  -8.401  15.229  0.00  0.00    +0.129 C 
ENDBRANCH  20   7
ENDBRANCH  15  16
TORSDOF 4
ENDMDL
