MODEL 1
REMARK VINA RESULT:      -7.6      0.000      0.000
REMARK  Name = 11879618
REMARK  7 active torsions:
REMARK  status: ('A' for Active; 'I' for Inactive)
REMARK    1  A    between atoms: S_1  and  N_9
REMARK    2  A    between atoms: S_1  and  C_22
REMARK    3  A    between atoms: O_5  and  C_21
REMARK    4  A    between atoms: O_5  and  C_24
REMARK    5  A    between atoms: N_9  and  C_17
REMARK    6  A    between atoms: N_10  and  C_18
REMARK    7  A    between atoms: N_14  and  C_25
REMARK                            x       y       z     vdW  Elec       q    Type
REMARK                         _______ _______ _______ _____ _____    ______ ____
ROOT
ATOM     10  N   UNL     1     -17.414   2.497  24.400  0.00  0.00    -0.187 N 
ATOM     11  N   UNL     1     -18.080   1.605  23.660  0.00  0.00    -0.041 NA
ATOM     12  N   UNL     1     -16.549   2.653  22.426  0.00  0.00    -0.071 NA
ATOM     13  N   UNL     1     -17.546   1.704  22.450  0.00  0.00    -0.020 NA
ATOM     21  C   UNL     1     -16.486   3.131  23.647  0.00  0.00    +0.342 A 
ENDROOT
BRANCH  10  18
ATOM      3  O   UNL     1     -16.578   3.238  27.874  0.00  0.00    -0.370 OA
ATOM      4  O   UNL     1     -18.165   0.652  26.997  0.00  0.00    -0.370 OA
ATOM     15  C   UNL     1     -16.778   0.961  27.205  0.00  0.00    +0.170 C 
ATOM     16  C   UNL     1     -16.544   2.380  26.720  0.00  0.00    +0.175 C 
ATOM     17  C   UNL     1     -16.473   1.015  28.682  0.00  0.00    +0.133 C 
ATOM     18  C   UNL     1     -17.727   2.681  25.819  0.00  0.00    +0.171 C 
ATOM     19  C   UNL     1     -16.813   2.446  29.047  0.00  0.00    +0.183 C 
ATOM     20  C   UNL     1     -18.815   1.762  26.364  0.00  0.00    +0.190 C 
BRANCH  17   9
ATOM      9  N   UNL     1     -15.027   0.774  28.908  0.00  0.00    -0.182 NA
ATOM     36  H   UNL     1     -14.389   1.474  28.509  0.00  0.00    +0.149 HD
BRANCH   9   1
ATOM      1  S   UNL     1     -14.567  -0.015  30.354  0.00  0.00    +0.065 S 
ATOM      6  O   UNL     1     -13.225  -0.544  30.209  0.00  0.00    -0.153 OA
ATOM      7  O   UNL     1     -15.663  -0.854  30.798  0.00  0.00    -0.153 OA
BRANCH   1  22
ATOM      2  S   UNL     1     -13.646   2.648  31.131  0.00  0.00    -0.077 S 
ATOM     22  C   UNL     1     -14.451   1.239  31.630  0.00  0.00    +0.142 A 
ATOM     23  C   UNL     1     -14.885   1.273  32.912  0.00  0.00    +0.036 A 
ATOM     29  C   UNL     1     -14.547   2.510  33.532  0.00  0.00    +0.010 A 
ATOM     30  C   UNL     1     -13.871   3.350  32.676  0.00  0.00    +0.047 A 
ENDBRANCH   1  22
ENDBRANCH   9   1
ENDBRANCH  17   9
ENDBRANCH  10  18
BRANCH  21   5
ATOM      5  O   UNL     1     -15.664   4.067  24.087  0.00  0.00    -0.423 OA
BRANCH   5  24
ATOM     24  C   UNL     1     -15.659   5.356  23.575  0.00  0.00    +0.134 A 
ATOM     25  C   UNL     1     -14.585   7.061  22.283  0.00  0.00    +0.033 A 
ATOM     26  C   UNL     1     -14.591   5.765  22.798  0.00  0.00    +0.069 A 
ATOM     31  C   UNL     1     -16.720   6.195  23.856  0.00  0.00    +0.046 A 
ATOM     34  C   UNL     1     -15.645   7.924  22.554  0.00  0.00    +0.023 A 
ATOM     35  C   UNL     1     -16.714   7.491  23.340  0.00  0.00    +0.005 A 
BRANCH  25  14
ATOM      8  O   UNL     1     -11.198   8.328  20.139  0.00  0.00    -0.377 OA
ATOM     14  N   UNL     1     -13.512   7.495  21.497  0.00  0.00    -0.325 N 
ATOM     27  C   UNL     1     -12.458   6.529  21.166  0.00  0.00    +0.133 C 
ATOM     28  C   UNL     1     -13.079   8.896  21.561  0.00  0.00    +0.133 C 
ATOM     32  C   UNL     1     -11.690   7.004  19.937  0.00  0.00    +0.178 C 
ATOM     33  C   UNL     1     -12.278   9.244  20.311  0.00  0.00    +0.178 C 
ENDBRANCH  25  14
ENDBRANCH   5  24
ENDBRANCH  21   5
TORSDOF 7
ENDMDL
MODEL 2
REMARK VINA RESULT:      -7.3     27.906     31.471
REMARK  Name = 11879618
REMARK  7 active torsions:
REMARK  status: ('A' for Active; 'I' for Inactive)
REMARK    1  A    between atoms: S_1  and  N_9
REMARK    2  A    between atoms: S_1  and  C_22
REMARK    3  A    between atoms: O_5  and  C_21
REMARK    4  A    between atoms: O_5  and  C_24
REMARK    5  A    between atoms: N_9  and  C_17
REMARK    6  A    between atoms: N_10  and  C_18
REMARK    7  A    between atoms: N_14  and  C_25
REMARK                            x       y       z     vdW  Elec       q    Type
REMARK                         _______ _______ _______ _____ _____    ______ ____
ROOT
ATOM     10  N   UNL     1      12.410  12.579  23.975  0.00  0.00    -0.187 N 
ATOM     11  N   UNL     1      12.337  12.724  25.302  0.00  0.00    -0.041 NA
ATOM     12  N   UNL     1      10.560  11.616  24.540  0.00  0.00    -0.071 NA
ATOM     13  N   UNL     1      11.200  12.133  25.644  0.00  0.00    -0.020 NA
ATOM     21  C   UNL     1      11.329  11.906  23.517  0.00  0.00    +0.342 A 
ENDROOT
BRANCH  10  18
ATOM      3  O   UNL     1      14.970  12.458  21.377  0.00  0.00    -0.370 OA
ATOM      4  O   UNL     1      15.617  13.068  24.408  0.00  0.00    -0.370 OA
ATOM     15  C   UNL     1      15.572  11.877  23.607  0.00  0.00    +0.170 C 
ATOM     16  C   UNL     1      14.419  12.020  22.632  0.00  0.00    +0.175 C 
ATOM     17  C   UNL     1      16.797  11.795  22.728  0.00  0.00    +0.133 C 
ATOM     18  C   UNL     1      13.547  13.113  23.221  0.00  0.00    +0.171 C 
ATOM     19  C   UNL     1      16.392  12.593  21.506  0.00  0.00    +0.183 C 
ATOM     20  C   UNL     1      14.535  13.935  24.040  0.00  0.00    +0.190 C 
BRANCH  17   9
ATOM      9  N   UNL     1      17.048  10.385  22.342  0.00  0.00    -0.182 NA
ATOM     36  H   UNL     1      16.257   9.894  21.906  0.00  0.00    +0.149 HD
BRANCH   9   1
ATOM      1  S   UNL     1      18.634   9.959  21.866  0.00  0.00    +0.065 S 
ATOM      6  O   UNL     1      19.485   9.880  23.037  0.00  0.00    -0.153 OA
ATOM      7  O   UNL     1      19.008  10.760  20.716  0.00  0.00    -0.153 OA
BRANCH   1  22
ATOM      2  S   UNL     1      17.030   7.851  20.631  0.00  0.00    -0.077 S 
ATOM     22  C   UNL     1      18.563   8.291  21.214  0.00  0.00    +0.142 A 
ATOM     23  C   UNL     1      19.499   7.320  21.099  0.00  0.00    +0.036 A 
ATOM     29  C   UNL     1      18.949   6.148  20.505  0.00  0.00    +0.010 A 
ATOM     30  C   UNL     1      17.614   6.300  20.201  0.00  0.00    +0.047 A 
ENDBRANCH   1  22
ENDBRANCH   9   1
ENDBRANCH  17   9
ENDBRANCH  10  18
BRANCH  21   5
ATOM      5  O   UNL     1      11.107  11.601  22.251  0.00  0.00    -0.423 OA
BRANCH   5  24
ATOM     24  C   UNL     1      11.175  10.300  21.773  0.00  0.00    +0.134 A 
ATOM     25  C   UNL     1      11.924   8.747  20.115  0.00  0.00    +0.033 A 
ATOM     26  C   UNL     1      11.856  10.054  20.596  0.00  0.00    +0.069 A 
ATOM     31  C   UNL     1      10.560   9.289  22.487  0.00  0.00    +0.046 A 
ATOM     34  C   UNL     1      11.311   7.711  20.819  0.00  0.00    +0.023 A 
ATOM     35  C   UNL     1      10.630   7.982  22.006  0.00  0.00    +0.005 A 
BRANCH  25  14
ATOM      8  O   UNL     1      13.768   7.757  16.468  0.00  0.00    -0.377 OA
ATOM     14  N   UNL     1      12.606   8.475  18.924  0.00  0.00    -0.325 N 
ATOM     27  C   UNL     1      11.988   8.894  17.659  0.00  0.00    +0.133 C 
ATOM     28  C   UNL     1      13.479   7.299  18.833  0.00  0.00    +0.133 C 
ATOM     32  C   UNL     1      13.052   8.987  16.571  0.00  0.00    +0.178 C 
ATOM     33  C   UNL     1      14.464   7.478  17.682  0.00  0.00    +0.178 C 
ENDBRANCH  25  14
ENDBRANCH   5  24
ENDBRANCH  21   5
TORSDOF 7
ENDMDL
MODEL 3
REMARK VINA RESULT:      -7.1     17.744     19.952
REMARK  Name = 11879618
REMARK  7 active torsions:
REMARK  status: ('A' for Active; 'I' for Inactive)
REMARK    1  A    between atoms: S_1  and  N_9
REMARK    2  A    between atoms: S_1  and  C_22
REMARK    3  A    between atoms: O_5  and  C_21
REMARK    4  A    between atoms: O_5  and  C_24
REMARK    5  A    between atoms: N_9  and  C_17
REMARK    6  A    between atoms: N_10  and  C_18
REMARK    7  A    between atoms: N_14  and  C_25
REMARK                            x       y       z     vdW  Elec       q    Type
REMARK                         _______ _______ _______ _____ _____    ______ ____
ROOT
ATOM     10  N   UNL     1      -8.093 -12.097  18.926  0.00  0.00    -0.187 N 
ATOM     11  N   UNL     1      -7.728 -13.334  18.573  0.00  0.00    -0.041 NA
ATOM     12  N   UNL     1      -9.501 -13.399  19.921  0.00  0.00    -0.071 NA
ATOM     13  N   UNL     1      -8.594 -14.129  19.186  0.00  0.00    -0.020 NA
ATOM     21  C   UNL     1      -9.169 -12.142  19.745  0.00  0.00    +0.342 A 
ENDROOT
BRANCH  10  18
ATOM      3  O   UNL     1      -6.539 -10.047  16.338  0.00  0.00    -0.370 OA
ATOM      4  O   UNL     1      -5.032 -10.939  18.966  0.00  0.00    -0.370 OA
ATOM     15  C   UNL     1      -5.159 -11.483  17.643  0.00  0.00    +0.170 C 
ATOM     16  C   UNL     1      -6.576 -11.219  17.170  0.00  0.00    +0.175 C 
ATOM     17  C   UNL     1      -4.293 -10.711  16.678  0.00  0.00    +0.133 C 
ATOM     18  C   UNL     1      -7.359 -10.927  18.437  0.00  0.00    +0.171 C 
ATOM     19  C   UNL     1      -5.190  -9.565  16.257  0.00  0.00    +0.183 C 
ATOM     20  C   UNL     1      -6.291 -10.393  19.384  0.00  0.00    +0.190 C 
BRANCH  17   9
ATOM      9  N   UNL     1      -3.975 -11.553  15.499  0.00  0.00    -0.182 NA
ATOM     36  H   UNL     1      -4.774 -11.806  14.903  0.00  0.00    +0.149 HD
BRANCH   9   1
ATOM      1  S   UNL     1      -2.443 -11.356  14.767  0.00  0.00    +0.065 S 
ATOM      6  O   UNL     1      -1.832 -12.655  14.569  0.00  0.00    -0.153 OA
ATOM      7  O   UNL     1      -1.735 -10.286  15.445  0.00  0.00    -0.153 OA
BRANCH   1  22
ATOM      2  S   UNL     1      -4.362 -10.559  12.712  0.00  0.00    -0.077 S 
ATOM     22  C   UNL     1      -2.721 -10.702  13.122  0.00  0.00    +0.142 A 
ATOM     23  C   UNL     1      -1.869 -10.301  12.148  0.00  0.00    +0.036 A 
ATOM     29  C   UNL     1      -2.583  -9.852  11.000  0.00  0.00    +0.010 A 
ATOM     30  C   UNL     1      -3.946  -9.938  11.171  0.00  0.00    +0.047 A 
ENDBRANCH   1  22
ENDBRANCH   9   1
ENDBRANCH  17   9
ENDBRANCH  10  18
BRANCH  21   5
ATOM      5  O   UNL     1      -9.770 -11.087  20.265  0.00  0.00    -0.423 OA
BRANCH   5  24
ATOM     24  C   UNL     1     -10.928 -10.545  19.726  0.00  0.00    +0.134 A 
ATOM     25  C   UNL     1     -11.988  -9.102  18.140  0.00  0.00    +0.033 A 
ATOM     26  C   UNL     1     -10.824  -9.646  18.681  0.00  0.00    +0.069 A 
ATOM     31  C   UNL     1     -12.151 -10.919  20.249  0.00  0.00    +0.046 A 
ATOM     34  C   UNL     1     -13.233  -9.465  18.652  0.00  0.00    +0.023 A 
ATOM     35  C   UNL     1     -13.315 -10.375  19.706  0.00  0.00    +0.005 A 
BRANCH  25  14
ATOM      8  O   UNL     1     -11.665  -6.566  14.801  0.00  0.00    -0.377 OA
ATOM     14  N   UNL     1     -11.906  -8.188  17.083  0.00  0.00    -0.325 N 
ATOM     27  C   UNL     1     -12.855  -8.325  15.971  0.00  0.00    +0.133 C 
ATOM     28  C   UNL     1     -10.612  -7.593  16.730  0.00  0.00    +0.133 C 
ATOM     32  C   UNL     1     -12.959  -7.005  15.215  0.00  0.00    +0.178 C 
ATOM     33  C   UNL     1     -10.835  -6.312  15.934  0.00  0.00    +0.178 C 
ENDBRANCH  25  14
ENDBRANCH   5  24
ENDBRANCH  21   5
TORSDOF 7
ENDMDL
MODEL 4
REMARK VINA RESULT:      -7.1     27.935     30.759
REMARK  Name = 11879618
REMARK  7 active torsions:
REMARK  status: ('A' for Active; 'I' for Inactive)
REMARK    1  A    between atoms: S_1  and  N_9
REMARK    2  A    between atoms: S_1  and  C_22
REMARK    3  A    between atoms: O_5  and  C_21
REMARK    4  A    between atoms: O_5  and  C_24
REMARK    5  A    between atoms: N_9  and  C_17
REMARK    6  A    between atoms: N_10  and  C_18
REMARK    7  A    between atoms: N_14  and  C_25
REMARK                            x       y       z     vdW  Elec       q    Type
REMARK                         _______ _______ _______ _____ _____    ______ ____
ROOT
ATOM     10  N   UNL     1      11.602  12.643  23.577  0.00  0.00    -0.187 N 
ATOM     11  N   UNL     1      11.604  12.880  24.893  0.00  0.00    -0.041 NA
ATOM     12  N   UNL     1      11.020  10.769  24.482  0.00  0.00    -0.071 NA
ATOM     13  N   UNL     1      11.247  11.727  25.444  0.00  0.00    -0.020 NA
ATOM     21  C   UNL     1      11.246  11.361  23.332  0.00  0.00    +0.342 A 
ENDROOT
BRANCH  10  18
ATOM      3  O   UNL     1      11.486  14.292  20.324  0.00  0.00    -0.370 OA
ATOM      4  O   UNL     1      14.186  13.569  21.795  0.00  0.00    -0.370 OA
ATOM     15  C   UNL     1      13.350  12.901  20.838  0.00  0.00    +0.170 C 
ATOM     16  C   UNL     1      11.907  13.219  21.184  0.00  0.00    +0.175 C 
ATOM     17  C   UNL     1      13.547  13.502  19.467  0.00  0.00    +0.133 C 
ATOM     18  C   UNL     1      11.951  13.698  22.622  0.00  0.00    +0.171 C 
ATOM     19  C   UNL     1      12.571  14.661  19.461  0.00  0.00    +0.183 C 
ATOM     20  C   UNL     1      13.367  14.247  22.757  0.00  0.00    +0.190 C 
BRANCH  17   9
ATOM      9  N   UNL     1      13.159  12.520  18.425  0.00  0.00    -0.182 NA
ATOM     36  H   UNL     1      12.520  12.868  17.698  0.00  0.00    +0.149 HD
BRANCH   9   1
ATOM      1  S   UNL     1      14.299  11.319  17.998  0.00  0.00    +0.065 S 
ATOM      6  O   UNL     1      15.254  11.154  19.077  0.00  0.00    -0.153 OA
ATOM      7  O   UNL     1      14.736  11.552  16.635  0.00  0.00    -0.153 OA
BRANCH   1  22
ATOM      2  S   UNL     1      14.424   8.423  17.618  0.00  0.00    -0.077 S 
ATOM     22  C   UNL     1      13.417   9.761  17.898  0.00  0.00    +0.142 A 
ATOM     23  C   UNL     1      12.103   9.453  18.005  0.00  0.00    +0.036 A 
ATOM     29  C   UNL     1      11.893   8.053  17.850  0.00  0.00    +0.010 A 
ATOM     30  C   UNL     1      13.071   7.374  17.633  0.00  0.00    +0.047 A 
ENDBRANCH   1  22
ENDBRANCH   9   1
ENDBRANCH  17   9
ENDBRANCH  10  18
BRANCH  21   5
ATOM      5  O   UNL     1      11.151  10.817  22.133  0.00  0.00    -0.423 OA
BRANCH   5  24
ATOM     24  C   UNL     1      11.612   9.538  21.853  0.00  0.00    +0.134 A 
ATOM     25  C   UNL     1      13.426   8.060  21.355  0.00  0.00    +0.033 A 
ATOM     26  C   UNL     1      12.963   9.345  21.636  0.00  0.00    +0.069 A 
ATOM     31  C   UNL     1      10.707   8.496  21.800  0.00  0.00    +0.046 A 
ATOM     34  C   UNL     1      12.531   6.993  21.296  0.00  0.00    +0.023 A 
ATOM     35  C   UNL     1      11.171   7.210  21.520  0.00  0.00    +0.005 A 
BRANCH  25  14
ATOM      8  O   UNL     1      17.526   7.246  20.902  0.00  0.00    -0.377 OA
ATOM     14  N   UNL     1      14.790   7.843  21.129  0.00  0.00    -0.325 N 
ATOM     27  C   UNL     1      15.226   6.487  20.773  0.00  0.00    +0.133 C 
ATOM     28  C   UNL     1      15.787   8.655  21.836  0.00  0.00    +0.133 C 
ATOM     32  C   UNL     1      16.586   6.547  20.086  0.00  0.00    +0.178 C 
ATOM     33  C   UNL     1      17.116   8.599  21.091  0.00  0.00    +0.178 C 
ENDBRANCH  25  14
ENDBRANCH   5  24
ENDBRANCH  21   5
TORSDOF 7
ENDMDL
MODEL 5
REMARK VINA RESULT:      -7.0     16.873     19.156
REMARK  Name = 11879618
REMARK  7 active torsions:
REMARK  status: ('A' for Active; 'I' for Inactive)
REMARK    1  A    between atoms: S_1  and  N_9
REMARK    2  A    between atoms: S_1  and  C_22
REMARK    3  A    between atoms: O_5  and  C_21
REMARK    4  A    between atoms: O_5  and  C_24
REMARK    5  A    between atoms: N_9  and  C_17
REMARK    6  A    between atoms: N_10  and  C_18
REMARK    7  A    between atoms: N_14  and  C_25
REMARK                            x       y       z     vdW  Elec       q    Type
REMARK                         _______ _______ _______ _____ _____    ______ ____
ROOT
ATOM     10  N   UNL     1      -9.716 -10.133  17.806  0.00  0.00    -0.187 N 
ATOM     11  N   UNL     1     -10.768 -10.920  17.561  0.00  0.00    -0.041 NA
ATOM     12  N   UNL     1      -9.382 -11.898  19.007  0.00  0.00    -0.071 NA
ATOM     13  N   UNL     1     -10.559 -12.002  18.299  0.00  0.00    -0.020 NA
ATOM     21  C   UNL     1      -8.877 -10.730  18.684  0.00  0.00    +0.342 A 
ENDROOT
BRANCH  10  18
ATOM      3  O   UNL     1     -10.814  -6.742  17.021  0.00  0.00    -0.370 OA
ATOM      4  O   UNL     1     -10.004  -8.848  14.810  0.00  0.00    -0.370 OA
ATOM     15  C   UNL     1     -11.237  -8.477  15.446  0.00  0.00    +0.170 C 
ATOM     16  C   UNL     1     -10.933  -8.171  16.900  0.00  0.00    +0.175 C 
ATOM     17  C   UNL     1     -11.739  -7.169  14.884  0.00  0.00    +0.133 C 
ATOM     18  C   UNL     1      -9.589  -8.824  17.160  0.00  0.00    +0.171 C 
ATOM     19  C   UNL     1     -11.028  -6.138  15.738  0.00  0.00    +0.183 C 
ATOM     20  C   UNL     1      -8.946  -8.847  15.778  0.00  0.00    +0.190 C 
BRANCH  17   9
ATOM      9  N   UNL     1     -13.204  -7.060  15.089  0.00  0.00    -0.182 NA
ATOM     36  H   UNL     1     -13.503  -6.744  16.021  0.00  0.00    +0.149 HD
BRANCH   9   1
ATOM      1  S   UNL     1     -14.169  -6.644  13.740  0.00  0.00    +0.065 S 
ATOM      6  O   UNL     1     -15.388  -6.007  14.197  0.00  0.00    -0.153 OA
ATOM      7  O   UNL     1     -14.204  -7.769  12.826  0.00  0.00    -0.153 OA
BRANCH   1  22
ATOM      2  S   UNL     1     -12.692  -5.916  11.325  0.00  0.00    -0.077 S 
ATOM     22  C   UNL     1     -13.285  -5.382  12.823  0.00  0.00    +0.142 A 
ATOM     23  C   UNL     1     -13.003  -4.087  13.101  0.00  0.00    +0.036 A 
ATOM     29  C   UNL     1     -12.262  -3.488  12.043  0.00  0.00    +0.010 A 
ATOM     30  C   UNL     1     -12.024  -4.371  11.013  0.00  0.00    +0.047 A 
ENDBRANCH   1  22
ENDBRANCH   9   1
ENDBRANCH  17   9
ENDBRANCH  10  18
BRANCH  21   5
ATOM      5  O   UNL     1      -7.749 -10.209  19.129  0.00  0.00    -0.423 OA
BRANCH   5  24
ATOM     24  C   UNL     1      -6.504 -10.716  18.784  0.00  0.00    +0.134 A 
ATOM     25  C   UNL     1      -4.793 -11.054  17.147  0.00  0.00    +0.033 A 
ATOM     26  C   UNL     1      -6.044 -10.544  17.493  0.00  0.00    +0.069 A 
ATOM     31  C   UNL     1      -5.761 -11.379  19.742  0.00  0.00    +0.046 A 
ATOM     34  C   UNL     1      -4.026 -11.727  18.097  0.00  0.00    +0.023 A 
ATOM     35  C   UNL     1      -4.509 -11.889  19.396  0.00  0.00    +0.005 A 
BRANCH  25  14
ATOM      8  O   UNL     1      -3.268 -10.311  13.299  0.00  0.00    -0.377 OA
ATOM     14  N   UNL     1      -4.309 -10.893  15.844  0.00  0.00    -0.325 N 
ATOM     27  C   UNL     1      -2.865 -10.699  15.659  0.00  0.00    +0.133 C 
ATOM     28  C   UNL     1      -5.159 -10.275  14.819  0.00  0.00    +0.133 C 
ATOM     32  C   UNL     1      -2.476 -11.051  14.227  0.00  0.00    +0.178 C 
ATOM     33  C   UNL     1      -4.647 -10.651  13.432  0.00  0.00    +0.178 C 
ENDBRANCH  25  14
ENDBRANCH   5  24
ENDBRANCH  21   5
TORSDOF 7
ENDMDL
MODEL 6
REMARK VINA RESULT:      -7.0     27.810     30.798
REMARK  Name = 11879618
REMARK  7 active torsions:
REMARK  status: ('A' for Active; 'I' for Inactive)
REMARK    1  A    between atoms: S_1  and  N_9
REMARK    2  A    between atoms: S_1  and  C_22
REMARK    3  A    between atoms: O_5  and  C_21
REMARK    4  A    between atoms: O_5  and  C_24
REMARK    5  A    between atoms: N_9  and  C_17
REMARK    6  A    between atoms: N_10  and  C_18
REMARK    7  A    between atoms: N_14  and  C_25
REMARK                            x       y       z     vdW  Elec       q    Type
REMARK                         _______ _______ _______ _____ _____    ______ ____
ROOT
ATOM     10  N   UNL     1      14.876  12.233  15.734  0.00  0.00    -0.187 N 
ATOM     11  N   UNL     1      14.915  13.299  14.929  0.00  0.00    -0.041 NA
ATOM     12  N   UNL     1      14.330  11.478  13.785  0.00  0.00    -0.071 NA
ATOM     13  N   UNL     1      14.580  12.831  13.734  0.00  0.00    -0.020 NA
ATOM     21  C   UNL     1      14.521  11.130  15.036  0.00  0.00    +0.342 A 
ENDROOT
BRANCH  10  18
ATOM      3  O   UNL     1      14.205  11.787  19.294  0.00  0.00    -0.370 OA
ATOM      4  O   UNL     1      14.984  14.571  18.022  0.00  0.00    -0.370 OA
ATOM     15  C   UNL     1      13.745  13.900  18.297  0.00  0.00    +0.170 C 
ATOM     16  C   UNL     1      13.951  12.421  18.028  0.00  0.00    +0.175 C 
ATOM     17  C   UNL     1      13.431  13.972  19.772  0.00  0.00    +0.133 C 
ATOM     18  C   UNL     1      15.193  12.356  17.160  0.00  0.00    +0.171 C 
ATOM     19  C   UNL     1      14.167  12.773  20.335  0.00  0.00    +0.183 C 
ATOM     20  C   UNL     1      15.948  13.622  17.546  0.00  0.00    +0.190 C 
BRANCH  17   9
ATOM      9  N   UNL     1      11.973  13.807  19.987  0.00  0.00    -0.182 NA
ATOM     36  H   UNL     1      11.537  13.010  19.504  0.00  0.00    +0.149 HD
BRANCH   9   1
ATOM      1  S   UNL     1      11.328  14.298  21.492  0.00  0.00    +0.065 S 
ATOM      6  O   UNL     1       9.970  14.770  21.305  0.00  0.00    -0.153 OA
ATOM      7  O   UNL     1      12.316  15.102  22.184  0.00  0.00    -0.153 OA
BRANCH   1  22
ATOM      2  S   UNL     1      10.959  13.166  24.162  0.00  0.00    -0.077 S 
ATOM     22  C   UNL     1      11.187  12.831  22.513  0.00  0.00    +0.142 A 
ATOM     23  C   UNL     1      11.227  11.511  22.217  0.00  0.00    +0.036 A 
ATOM     29  C   UNL     1      11.066  10.718  23.390  0.00  0.00    +0.010 A 
ATOM     30  C   UNL     1      10.911  11.492  24.518  0.00  0.00    +0.047 A 
ENDBRANCH   1  22
ENDBRANCH   9   1
ENDBRANCH  17   9
ENDBRANCH  10  18
BRANCH  21   5
ATOM      5  O   UNL     1      14.392   9.919  15.547  0.00  0.00    -0.423 OA
BRANCH   5  24
ATOM     24  C   UNL     1      13.209   9.470  16.116  0.00  0.00    +0.134 A 
ATOM     25  C   UNL     1      12.031   8.575  17.996  0.00  0.00    +0.033 A 
ATOM     26  C   UNL     1      13.220   9.027  17.425  0.00  0.00    +0.069 A 
ATOM     31  C   UNL     1      12.054   9.478  15.358  0.00  0.00    +0.046 A 
ATOM     34  C   UNL     1      10.853   8.574  17.250  0.00  0.00    +0.023 A 
ATOM     35  C   UNL     1      10.865   9.027  15.930  0.00  0.00    +0.005 A 
BRANCH  25  14
ATOM      8  O   UNL     1      12.013   7.471  22.053  0.00  0.00    -0.377 OA
ATOM     14  N   UNL     1      12.020   8.120  19.319  0.00  0.00    -0.325 N 
ATOM     27  C   UNL     1      10.860   8.448  20.157  0.00  0.00    +0.133 C 
ATOM     28  C   UNL     1      13.285   7.948  20.044  0.00  0.00    +0.133 C 
ATOM     32  C   UNL     1      10.782   7.479  21.332  0.00  0.00    +0.178 C 
ATOM     33  C   UNL     1      13.077   7.006  21.225  0.00  0.00    +0.178 C 
ENDBRANCH  25  14
ENDBRANCH   5  24
ENDBRANCH  21   5
TORSDOF 7
ENDMDL
MODEL 7
REMARK VINA RESULT:      -7.0      2.745      4.692
REMARK  Name = 11879618
REMARK  7 active torsions:
REMARK  status: ('A' for Active; 'I' for Inactive)
REMARK    1  A    between atoms: S_1  and  N_9
REMARK    2  A    between atoms: S_1  and  C_22
REMARK    3  A    between atoms: O_5  and  C_21
REMARK    4  A    between atoms: O_5  and  C_24
REMARK    5  A    between atoms: N_9  and  C_17
REMARK    6  A    between atoms: N_10  and  C_18
REMARK    7  A    between atoms: N_14  and  C_25
REMARK                            x       y       z     vdW  Elec       q    Type
REMARK                         _______ _______ _______ _____ _____    ______ ____
ROOT
ATOM     10  N   UNL     1     -16.239   6.737  22.853  0.00  0.00    -0.187 N 
ATOM     11  N   UNL     1     -16.594   7.467  23.915  0.00  0.00    -0.041 NA
ATOM     12  N   UNL     1     -15.754   8.773  22.317  0.00  0.00    -0.071 NA
ATOM     13  N   UNL     1     -16.294   8.715  23.582  0.00  0.00    -0.020 NA
ATOM     21  C   UNL     1     -15.729   7.533  21.885  0.00  0.00    +0.342 A 
ENDROOT
BRANCH  10  18
ATOM      3  O   UNL     1     -17.869   3.629  23.856  0.00  0.00    -0.370 OA
ATOM      4  O   UNL     1     -14.748   4.079  24.048  0.00  0.00    -0.370 OA
ATOM     15  C   UNL     1     -15.851   4.269  24.948  0.00  0.00    +0.170 C 
ATOM     16  C   UNL     1     -17.031   4.765  24.133  0.00  0.00    +0.175 C 
ATOM     17  C   UNL     1     -16.309   2.939  25.497  0.00  0.00    +0.133 C 
ATOM     18  C   UNL     1     -16.421   5.283  22.845  0.00  0.00    +0.171 C 
ATOM     19  C   UNL     1     -17.290   2.458  24.448  0.00  0.00    +0.183 C 
ATOM     20  C   UNL     1     -15.136   4.472  22.724  0.00  0.00    +0.190 C 
BRANCH  17   9
ATOM      9  N   UNL     1     -17.015   3.141  26.785  0.00  0.00    -0.182 NA
ATOM     36  H   UNL     1     -17.835   3.762  26.753  0.00  0.00    +0.149 HD
BRANCH   9   1
ATOM      1  S   UNL     1     -17.017   1.849  27.906  0.00  0.00    +0.065 S 
ATOM      6  O   UNL     1     -16.682   0.616  27.221  0.00  0.00    -0.153 OA
ATOM      7  O   UNL     1     -18.201   1.952  28.736  0.00  0.00    -0.153 OA
BRANCH   1  22
ATOM      2  S   UNL     1     -15.139   0.740  29.852  0.00  0.00    -0.077 S 
ATOM     22  C   UNL     1     -15.670   2.140  29.053  0.00  0.00    +0.142 A 
ATOM     23  C   UNL     1     -14.999   3.264  29.399  0.00  0.00    +0.036 A 
ATOM     29  C   UNL     1     -13.995   2.981  30.370  0.00  0.00    +0.010 A 
ATOM     30  C   UNL     1     -13.963   1.645  30.706  0.00  0.00    +0.047 A 
ENDBRANCH   1  22
ENDBRANCH   9   1
ENDBRANCH  17   9
ENDBRANCH  10  18
BRANCH  21   5
ATOM      5  O   UNL     1     -15.290   7.114  20.713  0.00  0.00    -0.423 OA
BRANCH   5  24
ATOM     24  C   UNL     1     -13.967   7.252  20.318  0.00  0.00    +0.134 A 
ATOM     25  C   UNL     1     -12.361   7.943  18.684  0.00  0.00    +0.033 A 
ATOM     26  C   UNL     1     -13.691   7.805  19.081  0.00  0.00    +0.069 A 
ATOM     31  C   UNL     1     -12.965   6.833  21.171  0.00  0.00    +0.046 A 
ATOM     34  C   UNL     1     -11.333   7.527  19.529  0.00  0.00    +0.023 A 
ATOM     35  C   UNL     1     -11.635   6.972  20.773  0.00  0.00    +0.005 A 
BRANCH  25  14
ATOM      8  O   UNL     1     -11.461   9.355  14.827  0.00  0.00    -0.377 OA
ATOM     14  N   UNL     1     -12.059   8.498  17.436  0.00  0.00    -0.325 N 
ATOM     27  C   UNL     1     -13.076   8.424  16.379  0.00  0.00    +0.133 C 
ATOM     28  C   UNL     1     -10.669   8.526  16.965  0.00  0.00    +0.133 C 
ATOM     32  C   UNL     1     -12.795   9.483  15.318  0.00  0.00    +0.178 C 
ATOM     33  C   UNL     1     -10.517   9.579  15.873  0.00  0.00    +0.178 C 
ENDBRANCH  25  14
ENDBRANCH   5  24
ENDBRANCH  21   5
TORSDOF 7
ENDMDL
MODEL 8
REMARK VINA RESULT:      -6.9     19.066     20.760
REMARK  Name = 11879618
REMARK  7 active torsions:
REMARK  status: ('A' for Active; 'I' for Inactive)
REMARK    1  A    between atoms: S_1  and  N_9
REMARK    2  A    between atoms: S_1  and  C_22
REMARK    3  A    between atoms: O_5  and  C_21
REMARK    4  A    between atoms: O_5  and  C_24
REMARK    5  A    between atoms: N_9  and  C_17
REMARK    6  A    between atoms: N_10  and  C_18
REMARK    7  A    between atoms: N_14  and  C_25
REMARK                            x       y       z     vdW  Elec       q    Type
REMARK                         _______ _______ _______ _____ _____    ______ ____
ROOT
ATOM     10  N   UNL     1      -4.244 -12.427  15.994  0.00  0.00    -0.187 N 
ATOM     11  N   UNL     1      -4.808 -13.637  16.048  0.00  0.00    -0.041 NA
ATOM     12  N   UNL     1      -3.700 -13.379  14.132  0.00  0.00    -0.071 NA
ATOM     13  N   UNL     1      -4.473 -14.218  14.903  0.00  0.00    -0.020 NA
ATOM     21  C   UNL     1      -3.572 -12.274  14.829  0.00  0.00    +0.342 A 
ENDROOT
BRANCH  10  18
ATOM      3  O   UNL     1      -5.010 -11.496  19.438  0.00  0.00    -0.370 OA
ATOM      4  O   UNL     1      -6.329 -10.087  16.938  0.00  0.00    -0.370 OA
ATOM     15  C   UNL     1      -6.685 -11.201  17.772  0.00  0.00    +0.170 C 
ATOM     16  C   UNL     1      -5.408 -11.938  18.129  0.00  0.00    +0.175 C 
ATOM     17  C   UNL     1      -7.216 -10.708  19.097  0.00  0.00    +0.133 C 
ATOM     18  C   UNL     1      -4.395 -11.477  17.098  0.00  0.00    +0.171 C 
ATOM     19  C   UNL     1      -5.957 -10.535  19.923  0.00  0.00    +0.183 C 
ATOM     20  C   UNL     1      -4.915 -10.100  16.699  0.00  0.00    +0.190 C 
BRANCH  17   9
ATOM      9  N   UNL     1      -8.077 -11.747  19.714  0.00  0.00    -0.182 NA
ATOM     36  H   UNL     1      -7.664 -12.257  20.505  0.00  0.00    +0.149 HD
BRANCH   9   1
ATOM      1  S   UNL     1      -9.767 -11.490  19.703  0.00  0.00    +0.065 S 
ATOM      6  O   UNL     1     -10.079 -10.297  20.463  0.00  0.00    -0.153 OA
ATOM      7  O   UNL     1     -10.433 -12.750  19.972  0.00  0.00    -0.153 OA
BRANCH   1  22
ATOM      2  S   UNL     1     -10.563  -9.474  17.742  0.00  0.00    -0.077 S 
ATOM     22  C   UNL     1     -10.237 -11.117  18.013  0.00  0.00    +0.142 A 
ATOM     23  C   UNL     1     -10.378 -11.899  16.916  0.00  0.00    +0.036 A 
ATOM     29  C   UNL     1     -10.776 -11.127  15.787  0.00  0.00    +0.010 A 
ATOM     30  C   UNL     1     -10.913  -9.791  16.097  0.00  0.00    +0.047 A 
ENDBRANCH   1  22
ENDBRANCH   9   1
ENDBRANCH  17   9
ENDBRANCH  10  18
BRANCH  21   5
ATOM      5  O   UNL     1      -2.907 -11.190  14.475  0.00  0.00    -0.423 OA
BRANCH   5  24
ATOM     24  C   UNL     1      -2.990 -10.644  13.202  0.00  0.00    +0.134 A 
ATOM     25  C   UNL     1      -4.315  -9.748  11.422  0.00  0.00    +0.033 A 
ATOM     26  C   UNL     1      -4.231 -10.297  12.701  0.00  0.00    +0.069 A 
ATOM     31  C   UNL     1      -1.832 -10.464  12.471  0.00  0.00    +0.046 A 
ATOM     34  C   UNL     1      -3.159  -9.558  10.667  0.00  0.00    +0.023 A 
ATOM     35  C   UNL     1      -1.916  -9.915  11.192  0.00  0.00    +0.005 A 
BRANCH  25  14
ATOM      8  O   UNL     1      -8.018  -8.421   9.936  0.00  0.00    -0.377 OA
ATOM     14  N   UNL     1      -5.561  -9.392  10.895  0.00  0.00    -0.325 N 
ATOM     27  C   UNL     1      -5.597  -8.425   9.791  0.00  0.00    +0.133 C 
ATOM     28  C   UNL     1      -6.749  -9.400  11.757  0.00  0.00    +0.133 C 
ATOM     32  C   UNL     1      -6.917  -8.551   9.037  0.00  0.00    +0.178 C 
ATOM     33  C   UNL     1      -8.007  -9.474  10.899  0.00  0.00    +0.178 C 
ENDBRANCH  25  14
ENDBRANCH   5  24
ENDBRANCH  21   5
TORSDOF 7
ENDMDL
MODEL 9
REMARK VINA RESULT:      -6.9     18.495     20.553
REMARK  Name = 11879618
REMARK  7 active torsions:
REMARK  status: ('A' for Active; 'I' for Inactive)
REMARK    1  A    between atoms: S_1  and  N_9
REMARK    2  A    between atoms: S_1  and  C_22
REMARK    3  A    between atoms: O_5  and  C_21
REMARK    4  A    between atoms: O_5  and  C_24
REMARK    5  A    between atoms: N_9  and  C_17
REMARK    6  A    between atoms: N_10  and  C_18
REMARK    7  A    between atoms: N_14  and  C_25
REMARK                            x       y       z     vdW  Elec       q    Type
REMARK                         _______ _______ _______ _____ _____    ______ ____
ROOT
ATOM     10  N   UNL     1      -6.222 -11.096  17.299  0.00  0.00    -0.187 N 
ATOM     11  N   UNL     1      -6.653 -10.532  18.431  0.00  0.00    -0.041 NA
ATOM     12  N   UNL     1      -4.581 -11.310  18.688  0.00  0.00    -0.071 NA
ATOM     13  N   UNL     1      -5.643 -10.665  19.280  0.00  0.00    -0.020 NA
ATOM     21  C   UNL     1      -4.964 -11.568  17.459  0.00  0.00    +0.342 A 
ENDROOT
BRANCH  10  18
ATOM      3  O   UNL     1      -7.775  -9.676  14.318  0.00  0.00    -0.370 OA
ATOM      4  O   UNL     1      -9.415 -11.146  16.581  0.00  0.00    -0.370 OA
ATOM     15  C   UNL     1      -9.044  -9.782  16.330  0.00  0.00    +0.170 C 
ATOM     16  C   UNL     1      -7.644  -9.785  15.746  0.00  0.00    +0.175 C 
ATOM     17  C   UNL     1      -9.905  -9.202  15.234  0.00  0.00    +0.133 C 
ATOM     18  C   UNL     1      -7.076 -11.144  16.109  0.00  0.00    +0.171 C 
ATOM     19  C   UNL     1      -9.166  -9.600  13.974  0.00  0.00    +0.183 C 
ATOM     20  C   UNL     1      -8.322 -12.011  16.243  0.00  0.00    +0.190 C 
BRANCH  17   9
ATOM      9  N   UNL     1      -9.938  -7.723  15.347  0.00  0.00    -0.182 NA
ATOM     36  H   UNL     1      -9.245  -7.217  14.780  0.00  0.00    +0.149 HD
BRANCH   9   1
ATOM      1  S   UNL     1     -11.448  -6.979  15.642  0.00  0.00    +0.065 S 
ATOM      6  O   UNL     1     -11.259  -5.830  16.507  0.00  0.00    -0.153 OA
ATOM      7  O   UNL     1     -12.422  -8.006  15.957  0.00  0.00    -0.153 OA
BRANCH   1  22
ATOM      2  S   UNL     1     -12.471  -7.502  12.955  0.00  0.00    -0.077 S 
ATOM     22  C   UNL     1     -12.026  -6.313  14.082  0.00  0.00    +0.142 A 
ATOM     23  C   UNL     1     -12.175  -5.043  13.635  0.00  0.00    +0.036 A 
ATOM     29  C   UNL     1     -12.677  -5.026  12.302  0.00  0.00    +0.010 A 
ATOM     30  C   UNL     1     -12.882  -6.296  11.811  0.00  0.00    +0.047 A 
ENDBRANCH   1  22
ENDBRANCH   9   1
ENDBRANCH  17   9
ENDBRANCH  10  18
BRANCH  21   5
ATOM      5  O   UNL     1      -4.259 -12.178  16.525  0.00  0.00    -0.423 OA
BRANCH   5  24
ATOM     24  C   UNL     1      -3.436 -11.493  15.642  0.00  0.00    +0.134 A 
ATOM     25  C   UNL     1      -3.018 -10.646  13.444  0.00  0.00    +0.033 A 
ATOM     26  C   UNL     1      -3.844 -11.334  14.331  0.00  0.00    +0.069 A 
ATOM     31  C   UNL     1      -2.233 -10.989  16.098  0.00  0.00    +0.046 A 
ATOM     34  C   UNL     1      -1.799 -10.129  13.882  0.00  0.00    +0.023 A 
ATOM     35  C   UNL     1      -1.407 -10.300  15.210  0.00  0.00    +0.005 A 
BRANCH  25  14
ATOM      8  O   UNL     1      -4.059 -10.366   9.379  0.00  0.00    -0.377 OA
ATOM     14  N   UNL     1      -3.410 -10.476  12.111  0.00  0.00    -0.325 N 
ATOM     27  C   UNL     1      -4.321 -11.467  11.524  0.00  0.00    +0.133 C 
ATOM     28  C   UNL     1      -2.506  -9.818  11.161  0.00  0.00    +0.133 C 
ATOM     32  C   UNL     1      -5.019 -10.869  10.308  0.00  0.00    +0.178 C 
ATOM     33  C   UNL     1      -3.301  -9.308   9.964  0.00  0.00    +0.178 C 
ENDBRANCH  25  14
ENDBRANCH   5  24
ENDBRANCH  21   5
TORSDOF 7
ENDMDL
MODEL 10
REMARK VINA RESULT:      -6.8     19.943     22.377
REMARK  Name = 11879618
REMARK  7 active torsions:
REMARK  status: ('A' for Active; 'I' for Inactive)
REMARK    1  A    between atoms: S_1  and  N_9
REMARK    2  A    between atoms: S_1  and  C_22
REMARK    3  A    between atoms: O_5  and  C_21
REMARK    4  A    between atoms: O_5  and  C_24
REMARK    5  A    between atoms: N_9  and  C_17
REMARK    6  A    between atoms: N_10  and  C_18
REMARK    7  A    between atoms: N_14  and  C_25
REMARK                            x       y       z     vdW  Elec       q    Type
REMARK                         _______ _______ _______ _____ _____    ______ ____
ROOT
ATOM     10  N   UNL     1      -8.936  -9.774  15.406  0.00  0.00    -0.187 N 
ATOM     11  N   UNL     1      -9.457  -8.550  15.274  0.00  0.00    -0.041 NA
ATOM     12  N   UNL     1      -8.954  -8.957  17.407  0.00  0.00    -0.071 NA
ATOM     13  N   UNL     1      -9.466  -8.053  16.504  0.00  0.00    -0.020 NA
ATOM     21  C   UNL     1      -8.632 -10.017  16.702  0.00  0.00    +0.342 A 
ENDROOT
BRANCH  10  18
ATOM      3  O   UNL     1      -6.989 -11.870  13.140  0.00  0.00    -0.370 OA
ATOM      4  O   UNL     1      -8.839  -9.512  12.145  0.00  0.00    -0.370 OA
ATOM     15  C   UNL     1      -7.454  -9.622  12.506  0.00  0.00    +0.170 C 
ATOM     16  C   UNL     1      -7.357 -10.586  13.674  0.00  0.00    +0.175 C 
ATOM     17  C   UNL     1      -6.680 -10.297  11.399  0.00  0.00    +0.133 C 
ATOM     18  C   UNL     1      -8.762 -10.647  14.243  0.00  0.00    +0.171 C 
ATOM     19  C   UNL     1      -6.846 -11.769  11.717  0.00  0.00    +0.183 C 
ATOM     20  C   UNL     1      -9.633 -10.302  13.041  0.00  0.00    +0.190 C 
BRANCH  17   9
ATOM      9  N   UNL     1      -5.247  -9.927  11.487  0.00  0.00    -0.182 NA
ATOM     36  H   UNL     1      -4.655 -10.559  12.042  0.00  0.00    +0.149 HD
BRANCH   9   1
ATOM      1  S   UNL     1      -4.547  -9.122  10.150  0.00  0.00    +0.065 S 
ATOM      6  O   UNL     1      -3.106  -9.089  10.307  0.00  0.00    -0.153 OA
ATOM      7  O   UNL     1      -5.304  -7.914   9.884  0.00  0.00    -0.153 OA
BRANCH   1  22
ATOM      2  S   UNL     1      -4.280 -11.729   8.856  0.00  0.00    -0.077 S 
ATOM     22  C   UNL     1      -4.848 -10.136   8.703  0.00  0.00    +0.142 A 
ATOM     23  C   UNL     1      -5.442  -9.872   7.516  0.00  0.00    +0.036 A 
ATOM     29  C   UNL     1      -5.439 -11.021   6.675  0.00  0.00    +0.010 A 
ATOM     30  C   UNL     1      -4.837 -12.103   7.281  0.00  0.00    +0.047 A 
ENDBRANCH   1  22
ENDBRANCH   9   1
ENDBRANCH  17   9
ENDBRANCH  10  18
BRANCH  21   5
ATOM      5  O   UNL     1      -8.100 -11.136  17.159  0.00  0.00    -0.423 OA
BRANCH   5  24
ATOM     24  C   UNL     1      -6.774 -11.226  17.557  0.00  0.00    +0.134 A 
ATOM     25  C   UNL     1      -4.445 -11.083  17.026  0.00  0.00    +0.033 A 
ATOM     26  C   UNL     1      -5.778 -10.993  16.627  0.00  0.00    +0.069 A 
ATOM     31  C   UNL     1      -6.487 -11.546  18.870  0.00  0.00    +0.046 A 
ATOM     34  C   UNL     1      -4.132 -11.405  18.346  0.00  0.00    +0.023 A 
ATOM     35  C   UNL     1      -5.153 -11.635  19.269  0.00  0.00    +0.005 A 
BRANCH  25  14
ATOM      8  O   UNL     1      -1.345 -10.667  14.216  0.00  0.00    -0.377 OA
ATOM     14  N   UNL     1      -3.422 -10.853  16.100  0.00  0.00    -0.325 N 
ATOM     27  C   UNL     1      -3.653 -11.234  14.701  0.00  0.00    +0.133 C 
ATOM     28  C   UNL     1      -2.020 -10.892  16.535  0.00  0.00    +0.133 C 
ATOM     32  C   UNL     1      -2.694 -10.470  13.794  0.00  0.00    +0.178 C 
ATOM     33  C   UNL     1      -1.149 -10.146  15.530  0.00  0.00    +0.178 C 
ENDBRANCH  25  14
ENDBRANCH   5  24
ENDBRANCH  21   5
TORSDOF 7
ENDMDL
