MODEL 1
REMARK VINA RESULT:      -7.9      0.000      0.000
REMARK  Name = 11884021
REMARK  7 active torsions:
REMARK  status: ('A' for Active; 'I' for Inactive)
REMARK    1  A    between atoms: O_4  and  C_13
REMARK    2  A    between atoms: O_4  and  C_17
REMARK    3  A    between atoms: O_7  and  C_27
REMARK    4  A    between atoms: O_7  and  C_28
REMARK    5  A    between atoms: N_8  and  C_12
REMARK    6  A    between atoms: N_9  and  C_20
REMARK    7  A    between atoms: C_16  and  C_18
REMARK                            x       y       z     vdW  Elec       q    Type
REMARK                         _______ _______ _______ _____ _____    ______ ____
ROOT
ATOM      4  O   UNL     1     -16.344   5.128  22.671  0.00  0.00    -0.442 OA
ENDROOT
BRANCH   4  13
ATOM      2  O   UNL     1     -17.056   4.711  25.321  0.00  0.00    -0.368 OA
ATOM      3  O   UNL     1     -16.888   1.896  24.118  0.00  0.00    -0.368 OA
ATOM     10  C   UNL     1     -16.148   2.524  25.185  0.00  0.00    +0.173 C 
ATOM     11  C   UNL     1     -15.945   3.972  24.786  0.00  0.00    +0.192 C 
ATOM     12  C   UNL     1     -17.002   2.608  26.429  0.00  0.00    +0.130 C 
ATOM     13  C   UNL     1     -15.993   3.905  23.278  0.00  0.00    +0.235 C 
ATOM     14  C   UNL     1     -17.837   3.849  26.164  0.00  0.00    +0.185 C 
ATOM     15  C   UNL     1     -17.032   2.832  23.040  0.00  0.00    +0.207 C 
BRANCH  12   8
ATOM      5  O   UNL     1     -16.522   0.622  28.373  0.00  0.00    -0.270 OA
ATOM      8  N   UNL     1     -16.190   2.764  27.611  0.00  0.00    -0.303 N 
ATOM     16  C   UNL     1     -16.003   1.728  28.526  0.00  0.00    +0.251 C 
ATOM     34  H   UNL     1     -15.709   3.649  27.733  0.00  0.00    +0.149 HD
BRANCH  16  18
ATOM      1  S   UNL     1     -14.836   0.819  30.842  0.00  0.00    -0.092 S 
ATOM     18  C   UNL     1     -15.122   2.031  29.664  0.00  0.00    +0.074 A 
ATOM     19  C   UNL     1     -14.452   3.199  29.951  0.00  0.00    +0.021 A 
ATOM     21  C   UNL     1     -13.693   3.099  31.153  0.00  0.00    +0.008 A 
ATOM     22  C   UNL     1     -13.813   1.858  31.739  0.00  0.00    +0.046 A 
ENDBRANCH  16  18
ENDBRANCH  12   8
ENDBRANCH   4  13
BRANCH   4  17
ATOM      6  O   UNL     1     -15.671   5.280  20.491  0.00  0.00    -0.226 OA
ATOM      9  N   UNL     1     -14.541   6.401  22.207  0.00  0.00    -0.251 N 
ATOM     17  C   UNL     1     -15.516   5.585  21.667  0.00  0.00    +0.405 C 
ATOM     35  H   UNL     1     -14.576   6.538  23.215  0.00  0.00    +0.158 HD
BRANCH   9  20
ATOM     20  C   UNL     1     -13.497   7.073  21.533  0.00  0.00    +0.037 A 
ATOM     23  C   UNL     1     -13.628   8.425  21.213  0.00  0.00    +0.027 A 
ATOM     24  C   UNL     1     -12.333   6.384  21.188  0.00  0.00    +0.027 A 
ATOM     25  C   UNL     1     -12.596   9.087  20.548  0.00  0.00    +0.048 A 
ATOM     26  C   UNL     1     -11.302   7.048  20.523  0.00  0.00    +0.048 A 
ATOM     27  C   UNL     1     -11.433   8.398  20.204  0.00  0.00    +0.129 A 
BRANCH  27   7
ATOM      7  O   UNL     1     -10.426   9.046  19.557  0.00  0.00    -0.456 OA
BRANCH   7  28
ATOM     28  C   UNL     1     -10.554   9.236  18.192  0.00  0.00    +0.128 A 
ATOM     29  C   UNL     1     -10.578   8.136  17.335  0.00  0.00    +0.046 A 
ATOM     30  C   UNL     1     -10.658  10.526  17.672  0.00  0.00    +0.046 A 
ATOM     31  C   UNL     1     -10.707   8.326  15.959  0.00  0.00    +0.004 A 
ATOM     32  C   UNL     1     -10.786  10.716  16.297  0.00  0.00    +0.004 A 
ATOM     33  C   UNL     1     -10.810   9.616  15.440  0.00  0.00    +0.000 A 
ENDBRANCH   7  28
ENDBRANCH  27   7
ENDBRANCH   9  20
ENDBRANCH   4  17
TORSDOF 7
ENDMDL
MODEL 2
REMARK VINA RESULT:      -7.2     28.240     31.679
REMARK  Name = 11884021
REMARK  7 active torsions:
REMARK  status: ('A' for Active; 'I' for Inactive)
REMARK    1  A    between atoms: O_4  and  C_13
REMARK    2  A    between atoms: O_4  and  C_17
REMARK    3  A    between atoms: O_7  and  C_27
REMARK    4  A    between atoms: O_7  and  C_28
REMARK    5  A    between atoms: N_8  and  C_12
REMARK    6  A    between atoms: N_9  and  C_20
REMARK    7  A    between atoms: C_16  and  C_18
REMARK                            x       y       z     vdW  Elec       q    Type
REMARK                         _______ _______ _______ _____ _____    ______ ____
ROOT
ATOM      4  O   UNL     1      15.092   6.868  19.504  0.00  0.00    -0.442 OA
ENDROOT
BRANCH   4  13
ATOM      2  O   UNL     1      14.118   9.390  20.130  0.00  0.00    -0.368 OA
ATOM      3  O   UNL     1      11.625   7.763  19.401  0.00  0.00    -0.368 OA
ATOM     10  C   UNL     1      12.014   8.417  20.626  0.00  0.00    +0.173 C 
ATOM     11  C   UNL     1      13.514   8.247  20.757  0.00  0.00    +0.192 C 
ATOM     12  C   UNL     1      11.828   9.911  20.498  0.00  0.00    +0.130 C 
ATOM     13  C   UNL     1      13.769   6.981  19.976  0.00  0.00    +0.235 C 
ATOM     14  C   UNL     1      13.095  10.332  19.772  0.00  0.00    +0.185 C 
ATOM     15  C   UNL     1      12.768   7.095  18.848  0.00  0.00    +0.207 C 
BRANCH  12   8
ATOM      5  O   UNL     1      11.394  12.658  20.970  0.00  0.00    -0.270 OA
ATOM      8  N   UNL     1      11.731  10.539  21.793  0.00  0.00    -0.303 N 
ATOM     16  C   UNL     1      11.515  11.909  21.941  0.00  0.00    +0.251 C 
ATOM     34  H   UNL     1      11.774   9.936  22.608  0.00  0.00    +0.149 HD
BRANCH  16  18
ATOM      1  S   UNL     1      12.015  13.948  23.713  0.00  0.00    -0.092 S 
ATOM     18  C   UNL     1      11.407  12.394  23.325  0.00  0.00    +0.074 A 
ATOM     19  C   UNL     1      10.863  11.763  24.422  0.00  0.00    +0.021 A 
ATOM     21  C   UNL     1      10.946  12.565  25.596  0.00  0.00    +0.008 A 
ATOM     22  C   UNL     1      11.551  13.778  25.353  0.00  0.00    +0.046 A 
ENDBRANCH  16  18
ENDBRANCH  12   8
ENDBRANCH   4  13
BRANCH   4  17
ATOM      6  O   UNL     1      15.779   6.173  21.571  0.00  0.00    -0.226 OA
ATOM      9  N   UNL     1      17.296   6.513  19.822  0.00  0.00    -0.251 N 
ATOM     17  C   UNL     1      16.050   6.484  20.418  0.00  0.00    +0.405 C 
ATOM     35  H   UNL     1      17.321   6.800  18.845  0.00  0.00    +0.158 HD
BRANCH   9  20
ATOM     20  C   UNL     1      18.546   6.195  20.400  0.00  0.00    +0.037 A 
ATOM     23  C   UNL     1      19.041   6.958  21.458  0.00  0.00    +0.027 A 
ATOM     24  C   UNL     1      19.285   5.116  19.912  0.00  0.00    +0.027 A 
ATOM     25  C   UNL     1      20.275   6.643  22.028  0.00  0.00    +0.048 A 
ATOM     26  C   UNL     1      20.518   4.801  20.483  0.00  0.00    +0.048 A 
ATOM     27  C   UNL     1      21.012   5.564  21.540  0.00  0.00    +0.129 A 
BRANCH  27   7
ATOM      7  O   UNL     1      22.215   5.255  22.099  0.00  0.00    -0.456 OA
BRANCH   7  28
ATOM     28  C   UNL     1      23.024   4.354  21.428  0.00  0.00    +0.128 A 
ATOM     29  C   UNL     1      22.919   2.989  21.698  0.00  0.00    +0.046 A 
ATOM     30  C   UNL     1      23.943   4.809  20.483  0.00  0.00    +0.046 A 
ATOM     31  C   UNL     1      23.734   2.080  21.024  0.00  0.00    +0.004 A 
ATOM     32  C   UNL     1      24.758   3.899  19.809  0.00  0.00    +0.004 A 
ATOM     33  C   UNL     1      24.654   2.535  20.079  0.00  0.00    +0.000 A 
ENDBRANCH   7  28
ENDBRANCH  27   7
ENDBRANCH   9  20
ENDBRANCH   4  17
TORSDOF 7
ENDMDL
MODEL 3
REMARK VINA RESULT:      -7.1     19.328     20.791
REMARK  Name = 11884021
REMARK  7 active torsions:
REMARK  status: ('A' for Active; 'I' for Inactive)
REMARK    1  A    between atoms: O_4  and  C_13
REMARK    2  A    between atoms: O_4  and  C_17
REMARK    3  A    between atoms: O_7  and  C_27
REMARK    4  A    between atoms: O_7  and  C_28
REMARK    5  A    between atoms: N_8  and  C_12
REMARK    6  A    between atoms: N_9  and  C_20
REMARK    7  A    between atoms: C_16  and  C_18
REMARK                            x       y       z     vdW  Elec       q    Type
REMARK                         _______ _______ _______ _____ _____    ______ ____
ROOT
ATOM      4  O   UNL     1      -1.826 -10.992  12.953  0.00  0.00    -0.442 OA
ENDROOT
BRANCH   4  13
ATOM      2  O   UNL     1      -3.935 -12.085  14.391  0.00  0.00    -0.368 OA
ATOM      3  O   UNL     1      -2.059 -10.939  16.528  0.00  0.00    -0.368 OA
ATOM     10  C   UNL     1      -3.424 -10.622  16.186  0.00  0.00    +0.173 C 
ATOM     11  C   UNL     1      -3.536 -10.734  14.679  0.00  0.00    +0.192 C 
ATOM     12  C   UNL     1      -4.351 -11.699  16.699  0.00  0.00    +0.130 C 
ATOM     13  C   UNL     1      -2.123 -10.460  14.224  0.00  0.00    +0.235 C 
ATOM     14  C   UNL     1      -4.239 -12.762  15.620  0.00  0.00    +0.185 C 
ATOM     15  C   UNL     1      -1.305 -11.107  15.319  0.00  0.00    +0.207 C 
BRANCH  12   8
ATOM      5  O   UNL     1      -5.484 -10.524  19.000  0.00  0.00    -0.270 OA
ATOM      8  N   UNL     1      -5.703 -11.212  16.818  0.00  0.00    -0.303 N 
ATOM     16  C   UNL     1      -6.188 -10.642  17.995  0.00  0.00    +0.251 C 
ATOM     34  H   UNL     1      -6.287 -11.250  15.989  0.00  0.00    +0.149 HD
BRANCH  16  18
ATOM      1  S   UNL     1      -8.767 -10.969  18.884  0.00  0.00    -0.092 S 
ATOM     18  C   UNL     1      -7.577 -10.163  17.951  0.00  0.00    +0.074 A 
ATOM     19  C   UNL     1      -8.105  -9.110  17.238  0.00  0.00    +0.021 A 
ATOM     21  C   UNL     1      -9.505  -8.961  17.460  0.00  0.00    +0.008 A 
ATOM     22  C   UNL     1      -9.993  -9.907  18.334  0.00  0.00    +0.046 A 
ENDBRANCH  16  18
ENDBRANCH  12   8
ENDBRANCH   4  13
BRANCH   4  17
ATOM      6  O   UNL     1      -1.572  -9.558  11.191  0.00  0.00    -0.226 OA
ATOM      9  N   UNL     1      -3.632 -10.557  11.675  0.00  0.00    -0.251 N 
ATOM     17  C   UNL     1      -2.289 -10.291  11.860  0.00  0.00    +0.405 C 
ATOM     35  H   UNL     1      -4.060 -11.199  12.339  0.00  0.00    +0.158 HD
BRANCH   9  20
ATOM     20  C   UNL     1      -4.491 -10.047  10.675  0.00  0.00    +0.037 A 
ATOM     23  C   UNL     1      -5.030 -10.904   9.714  0.00  0.00    +0.027 A 
ATOM     24  C   UNL     1      -4.801  -8.687  10.648  0.00  0.00    +0.027 A 
ATOM     25  C   UNL     1      -5.878 -10.400   8.728  0.00  0.00    +0.048 A 
ATOM     26  C   UNL     1      -5.649  -8.184   9.662  0.00  0.00    +0.048 A 
ATOM     27  C   UNL     1      -6.188  -9.040   8.703  0.00  0.00    +0.129 A 
BRANCH  27   7
ATOM      7  O   UNL     1      -7.017  -8.550   7.742  0.00  0.00    -0.456 OA
BRANCH   7  28
ATOM     28  C   UNL     1      -8.109  -7.803   8.153  0.00  0.00    +0.128 A 
ATOM     29  C   UNL     1      -8.186  -6.448   7.832  0.00  0.00    +0.046 A 
ATOM     30  C   UNL     1      -9.130  -8.405   8.888  0.00  0.00    +0.046 A 
ATOM     31  C   UNL     1      -9.284  -5.694   8.246  0.00  0.00    +0.004 A 
ATOM     32  C   UNL     1     -10.228  -7.651   9.302  0.00  0.00    +0.004 A 
ATOM     33  C   UNL     1     -10.305  -6.296   8.981  0.00  0.00    +0.000 A 
ENDBRANCH   7  28
ENDBRANCH  27   7
ENDBRANCH   9  20
ENDBRANCH   4  17
TORSDOF 7
ENDMDL
MODEL 4
REMARK VINA RESULT:      -7.0     16.866     18.448
REMARK  Name = 11884021
REMARK  7 active torsions:
REMARK  status: ('A' for Active; 'I' for Inactive)
REMARK    1  A    between atoms: O_4  and  C_13
REMARK    2  A    between atoms: O_4  and  C_17
REMARK    3  A    between atoms: O_7  and  C_27
REMARK    4  A    between atoms: O_7  and  C_28
REMARK    5  A    between atoms: N_8  and  C_12
REMARK    6  A    between atoms: N_9  and  C_20
REMARK    7  A    between atoms: C_16  and  C_18
REMARK                            x       y       z     vdW  Elec       q    Type
REMARK                         _______ _______ _______ _____ _____    ______ ____
ROOT
ATOM      4  O   UNL     1      -9.853 -10.271  19.120  0.00  0.00    -0.442 OA
ENDROOT
BRANCH   4  13
ATOM      2  O   UNL     1      -7.102 -10.537  19.373  0.00  0.00    -0.368 OA
ATOM      3  O   UNL     1      -8.020 -13.187  18.134  0.00  0.00    -0.368 OA
ATOM     10  C   UNL     1      -7.135 -12.159  17.644  0.00  0.00    +0.173 C 
ATOM     11  C   UNL     1      -7.705 -10.832  18.102  0.00  0.00    +0.192 C 
ATOM     12  C   UNL     1      -5.802 -12.243  18.349  0.00  0.00    +0.130 C 
ATOM     13  C   UNL     1      -9.177 -11.139  18.240  0.00  0.00    +0.235 C 
ATOM     14  C   UNL     1      -6.077 -11.504  19.647  0.00  0.00    +0.185 C 
ATOM     15  C   UNL     1      -9.159 -12.564  18.746  0.00  0.00    +0.207 C 
BRANCH  12   8
ATOM      5  O   UNL     1      -4.524 -13.306  16.070  0.00  0.00    -0.270 OA
ATOM      8  N   UNL     1      -4.764 -11.595  17.585  0.00  0.00    -0.303 N 
ATOM     16  C   UNL     1      -4.181 -12.190  16.467  0.00  0.00    +0.251 C 
ATOM     34  H   UNL     1      -4.501 -10.655  17.860  0.00  0.00    +0.149 HD
BRANCH  16  18
ATOM      1  S   UNL     1      -3.300 -11.141  14.085  0.00  0.00    -0.092 S 
ATOM     18  C   UNL     1      -3.160 -11.391  15.774  0.00  0.00    +0.074 A 
ATOM     19  C   UNL     1      -2.044 -10.776  16.297  0.00  0.00    +0.021 A 
ATOM     21  C   UNL     1      -1.294 -10.089  15.298  0.00  0.00    +0.008 A 
ATOM     22  C   UNL     1      -1.865 -10.207  14.050  0.00  0.00    +0.046 A 
ENDBRANCH  16  18
ENDBRANCH  12   8
ENDBRANCH   4  13
BRANCH   4  17
ATOM      6  O   UNL     1     -12.036  -9.588  19.101  0.00  0.00    -0.226 OA
ATOM      9  N   UNL     1     -10.507  -8.864  17.484  0.00  0.00    -0.251 N 
ATOM     17  C   UNL     1     -10.918  -9.563  18.603  0.00  0.00    +0.405 C 
ATOM     35  H   UNL     1      -9.529  -8.969  17.221  0.00  0.00    +0.158 HD
BRANCH   9  20
ATOM     20  C   UNL     1     -11.277  -8.017  16.655  0.00  0.00    +0.037 A 
ATOM     23  C   UNL     1     -12.422  -8.508  16.025  0.00  0.00    +0.027 A 
ATOM     24  C   UNL     1     -10.894  -6.689  16.467  0.00  0.00    +0.027 A 
ATOM     25  C   UNL     1     -13.181  -7.672  15.208  0.00  0.00    +0.048 A 
ATOM     26  C   UNL     1     -11.654  -5.852  15.650  0.00  0.00    +0.048 A 
ATOM     27  C   UNL     1     -12.797  -6.343  15.021  0.00  0.00    +0.129 A 
BRANCH  27   7
ATOM      7  O   UNL     1     -13.541  -5.527  14.225  0.00  0.00    -0.456 OA
BRANCH   7  28
ATOM     28  C   UNL     1     -12.993  -5.134  13.015  0.00  0.00    +0.128 A 
ATOM     29  C   UNL     1     -12.732  -6.083  12.027  0.00  0.00    +0.046 A 
ATOM     30  C   UNL     1     -12.701  -3.790  12.785  0.00  0.00    +0.046 A 
ATOM     31  C   UNL     1     -12.180  -5.689  10.809  0.00  0.00    +0.004 A 
ATOM     32  C   UNL     1     -12.149  -3.395  11.566  0.00  0.00    +0.004 A 
ATOM     33  C   UNL     1     -11.888  -4.345  10.578  0.00  0.00    +0.000 A 
ENDBRANCH   7  28
ENDBRANCH  27   7
ENDBRANCH   9  20
ENDBRANCH   4  17
TORSDOF 7
ENDMDL
MODEL 5
REMARK VINA RESULT:      -6.9     18.805     20.713
REMARK  Name = 11884021
REMARK  7 active torsions:
REMARK  status: ('A' for Active; 'I' for Inactive)
REMARK    1  A    between atoms: O_4  and  C_13
REMARK    2  A    between atoms: O_4  and  C_17
REMARK    3  A    between atoms: O_7  and  C_27
REMARK    4  A    between atoms: O_7  and  C_28
REMARK    5  A    between atoms: N_8  and  C_12
REMARK    6  A    between atoms: N_9  and  C_20
REMARK    7  A    between atoms: C_16  and  C_18
REMARK                            x       y       z     vdW  Elec       q    Type
REMARK                         _______ _______ _______ _____ _____    ______ ____
ROOT
ATOM      4  O   UNL     1      -6.470  -9.877   8.362  0.00  0.00    -0.442 OA
ENDROOT
BRANCH   4  13
ATOM      2  O   UNL     1      -5.110 -11.505  10.153  0.00  0.00    -0.368 OA
ATOM      3  O   UNL     1      -3.492  -8.901  10.099  0.00  0.00    -0.368 OA
ATOM     10  C   UNL     1      -4.196  -9.567  11.167  0.00  0.00    +0.173 C 
ATOM     11  C   UNL     1      -5.447 -10.169  10.561  0.00  0.00    +0.192 C 
ATOM     12  C   UNL     1      -3.408 -10.767  11.639  0.00  0.00    +0.130 C 
ATOM     13  C   UNL     1      -5.702  -9.270   9.375  0.00  0.00    +0.235 C 
ATOM     14  C   UNL     1      -3.789 -11.824  10.618  0.00  0.00    +0.185 C 
ATOM     15  C   UNL     1      -4.298  -8.948   8.913  0.00  0.00    +0.207 C 
BRANCH  12   8
ATOM      5  O   UNL     1      -1.997 -10.184  14.011  0.00  0.00    -0.270 OA
ATOM      8  N   UNL     1      -3.800 -11.158  12.972  0.00  0.00    -0.303 N 
ATOM     16  C   UNL     1      -3.044 -10.829  14.096  0.00  0.00    +0.251 C 
ATOM     34  H   UNL     1      -4.685 -11.644  13.073  0.00  0.00    +0.149 HD
BRANCH  16  18
ATOM      1  S   UNL     1      -4.586 -12.664  15.438  0.00  0.00    -0.092 S 
ATOM     18  C   UNL     1      -3.590 -11.271  15.388  0.00  0.00    +0.074 A 
ATOM     19  C   UNL     1      -3.420 -10.712  16.635  0.00  0.00    +0.021 A 
ATOM     21  C   UNL     1      -4.115 -11.436  17.646  0.00  0.00    +0.008 A 
ATOM     22  C   UNL     1      -4.791 -12.521  17.132  0.00  0.00    +0.046 A 
ENDBRANCH  16  18
ENDBRANCH  12   8
ENDBRANCH   4  13
BRANCH   4  17
ATOM      6  O   UNL     1      -8.269  -9.551   6.989  0.00  0.00    -0.226 OA
ATOM      9  N   UNL     1      -7.887  -8.195   8.858  0.00  0.00    -0.251 N 
ATOM     17  C   UNL     1      -7.621  -9.224   7.975  0.00  0.00    +0.405 C 
ATOM     35  H   UNL     1      -7.227  -8.078   9.625  0.00  0.00    +0.158 HD
BRANCH   9  20
ATOM     20  C   UNL     1      -8.964  -7.281   8.831  0.00  0.00    +0.037 A 
ATOM     23  C   UNL     1      -8.757  -5.969   8.405  0.00  0.00    +0.027 A 
ATOM     24  C   UNL     1     -10.237  -7.692   9.229  0.00  0.00    +0.027 A 
ATOM     25  C   UNL     1      -9.820  -5.067   8.379  0.00  0.00    +0.048 A 
ATOM     26  C   UNL     1     -11.301  -6.790   9.201  0.00  0.00    +0.048 A 
ATOM     27  C   UNL     1     -11.093  -5.479   8.776  0.00  0.00    +0.129 A 
BRANCH  27   7
ATOM      7  O   UNL     1     -12.131  -4.600   8.747  0.00  0.00    -0.456 OA
BRANCH   7  28
ATOM     28  C   UNL     1     -12.702  -4.237   9.956  0.00  0.00    +0.128 A 
ATOM     29  C   UNL     1     -14.073  -4.400  10.155  0.00  0.00    +0.046 A 
ATOM     30  C   UNL     1     -11.908  -3.709  10.973  0.00  0.00    +0.046 A 
ATOM     31  C   UNL     1     -14.649  -4.034  11.371  0.00  0.00    +0.004 A 
ATOM     32  C   UNL     1     -12.484  -3.343  12.189  0.00  0.00    +0.004 A 
ATOM     33  C   UNL     1     -13.855  -3.506  12.389  0.00  0.00    +0.000 A 
ENDBRANCH   7  28
ENDBRANCH  27   7
ENDBRANCH   9  20
ENDBRANCH   4  17
TORSDOF 7
ENDMDL
MODEL 6
REMARK VINA RESULT:      -6.8      2.561      4.336
REMARK  Name = 11884021
REMARK  7 active torsions:
REMARK  status: ('A' for Active; 'I' for Inactive)
REMARK    1  A    between atoms: O_4  and  C_13
REMARK    2  A    between atoms: O_4  and  C_17
REMARK    3  A    between atoms: O_7  and  C_27
REMARK    4  A    between atoms: O_7  and  C_28
REMARK    5  A    between atoms: N_8  and  C_12
REMARK    6  A    between atoms: N_9  and  C_20
REMARK    7  A    between atoms: C_16  and  C_18
REMARK                            x       y       z     vdW  Elec       q    Type
REMARK                         _______ _______ _______ _____ _____    ______ ____
ROOT
ATOM      4  O   UNL     1     -17.036   3.021  25.967  0.00  0.00    -0.442 OA
ENDROOT
BRANCH   4  13
ATOM      2  O   UNL     1     -17.345   3.781  28.619  0.00  0.00    -0.368 OA
ATOM      3  O   UNL     1     -15.764   1.158  28.750  0.00  0.00    -0.368 OA
ATOM     10  C   UNL     1     -15.432   2.496  29.175  0.00  0.00    +0.173 C 
ATOM     11  C   UNL     1     -16.029   3.441  28.152  0.00  0.00    +0.192 C 
ATOM     12  C   UNL     1     -16.166   2.832  30.452  0.00  0.00    +0.130 C 
ATOM     13  C   UNL     1     -16.080   2.589  26.908  0.00  0.00    +0.235 C 
ATOM     14  C   UNL     1     -17.535   3.245  29.938  0.00  0.00    +0.185 C 
ATOM     15  C   UNL     1     -16.409   1.224  27.470  0.00  0.00    +0.207 C 
BRANCH  12   8
ATOM      5  O   UNL     1     -15.707   2.947  33.233  0.00  0.00    -0.270 OA
ATOM      8  N   UNL     1     -15.521   3.913  31.156  0.00  0.00    -0.303 N 
ATOM     16  C   UNL     1     -15.332   3.893  32.538  0.00  0.00    +0.251 C 
ATOM     34  H   UNL     1     -15.157   4.680  30.600  0.00  0.00    +0.149 HD
BRANCH  16  18
ATOM      1  S   UNL     1     -14.301   5.088  34.786  0.00  0.00    -0.092 S 
ATOM     18  C   UNL     1     -14.630   5.054  33.105  0.00  0.00    +0.074 A 
ATOM     19  C   UNL     1     -14.169   6.182  32.465  0.00  0.00    +0.021 A 
ATOM     21  C   UNL     1     -13.536   7.087  33.365  0.00  0.00    +0.008 A 
ATOM     22  C   UNL     1     -13.538   6.616  34.660  0.00  0.00    +0.046 A 
ENDBRANCH  16  18
ENDBRANCH  12   8
ENDBRANCH   4  13
BRANCH   4  17
ATOM      6  O   UNL     1     -16.589   2.323  23.836  0.00  0.00    -0.226 OA
ATOM      9  N   UNL     1     -16.190   4.526  24.517  0.00  0.00    -0.251 N 
ATOM     17  C   UNL     1     -16.596   3.215  24.675  0.00  0.00    +0.405 C 
ATOM     35  H   UNL     1     -16.273   5.125  25.336  0.00  0.00    +0.158 HD
BRANCH   9  20
ATOM     20  C   UNL     1     -15.673   5.144  23.355  0.00  0.00    +0.037 A 
ATOM     23  C   UNL     1     -14.302   5.116  23.101  0.00  0.00    +0.027 A 
ATOM     24  C   UNL     1     -16.536   5.781  22.462  0.00  0.00    +0.027 A 
ATOM     25  C   UNL     1     -13.792   5.726  21.955  0.00  0.00    +0.048 A 
ATOM     26  C   UNL     1     -16.026   6.390  21.316  0.00  0.00    +0.048 A 
ATOM     27  C   UNL     1     -14.655   6.362  21.062  0.00  0.00    +0.129 A 
BRANCH  27   7
ATOM      7  O   UNL     1     -14.158   6.954  19.942  0.00  0.00    -0.456 OA
BRANCH   7  28
ATOM     28  C   UNL     1     -13.131   7.871  20.100  0.00  0.00    +0.128 A 
ATOM     29  C   UNL     1     -13.363   9.066  20.780  0.00  0.00    +0.046 A 
ATOM     30  C   UNL     1     -11.867   7.599  19.579  0.00  0.00    +0.046 A 
ATOM     31  C   UNL     1     -12.331   9.990  20.938  0.00  0.00    +0.004 A 
ATOM     32  C   UNL     1     -10.834   8.523  19.737  0.00  0.00    +0.004 A 
ATOM     33  C   UNL     1     -11.066   9.719  20.417  0.00  0.00    +0.000 A 
ENDBRANCH   7  28
ENDBRANCH  27   7
ENDBRANCH   9  20
ENDBRANCH   4  17
TORSDOF 7
ENDMDL
MODEL 7
REMARK VINA RESULT:      -6.7     31.041     34.531
REMARK  Name = 11884021
REMARK  7 active torsions:
REMARK  status: ('A' for Active; 'I' for Inactive)
REMARK    1  A    between atoms: O_4  and  C_13
REMARK    2  A    between atoms: O_4  and  C_17
REMARK    3  A    between atoms: O_7  and  C_27
REMARK    4  A    between atoms: O_7  and  C_28
REMARK    5  A    between atoms: N_8  and  C_12
REMARK    6  A    between atoms: N_9  and  C_20
REMARK    7  A    between atoms: C_16  and  C_18
REMARK                            x       y       z     vdW  Elec       q    Type
REMARK                         _______ _______ _______ _____ _____    ______ ____
ROOT
ATOM      4  O   UNL     1      20.861   8.455  22.718  0.00  0.00    -0.442 OA
ENDROOT
BRANCH   4  13
ATOM      2  O   UNL     1      20.969   5.732  22.192  0.00  0.00    -0.368 OA
ATOM      3  O   UNL     1      22.913   6.982  20.177  0.00  0.00    -0.368 OA
ATOM     10  C   UNL     1      23.122   6.035  21.245  0.00  0.00    +0.173 C 
ATOM     11  C   UNL     1      22.204   6.443  22.380  0.00  0.00    +0.192 C 
ATOM     12  C   UNL     1      22.611   4.673  20.838  0.00  0.00    +0.130 C 
ATOM     13  C   UNL     1      22.036   7.925  22.148  0.00  0.00    +0.235 C 
ATOM     14  C   UNL     1      21.123   4.789  21.120  0.00  0.00    +0.185 C 
ATOM     15  C   UNL     1      22.027   8.012  20.638  0.00  0.00    +0.207 C 
BRANCH  12   8
ATOM      5  O   UNL     1      24.538   2.822  19.933  0.00  0.00    -0.270 OA
ATOM      8  N   UNL     1      23.215   3.629  21.630  0.00  0.00    -0.303 N 
ATOM     16  C   UNL     1      24.164   2.752  21.105  0.00  0.00    +0.251 C 
ATOM     34  H   UNL     1      22.963   3.584  22.612  0.00  0.00    +0.149 HD
BRANCH  16  18
ATOM      1  S   UNL     1      24.785   2.151  23.713  0.00  0.00    -0.092 S 
ATOM     18  C   UNL     1      24.712   1.764  22.045  0.00  0.00    +0.074 A 
ATOM     19  C   UNL     1      25.204   0.504  21.785  0.00  0.00    +0.021 A 
ATOM     21  C   UNL     1      25.647  -0.153  22.969  0.00  0.00    +0.008 A 
ATOM     22  C   UNL     1      25.476   0.630  24.090  0.00  0.00    +0.046 A 
ENDBRANCH  16  18
ENDBRANCH  12   8
ENDBRANCH   4  13
BRANCH   4  17
ATOM      6  O   UNL     1      19.758   9.745  21.186  0.00  0.00    -0.226 OA
ATOM      9  N   UNL     1      18.908   7.684  21.896  0.00  0.00    -0.251 N 
ATOM     17  C   UNL     1      19.817   8.724  21.858  0.00  0.00    +0.405 C 
ATOM     35  H   UNL     1      19.132   6.913  22.522  0.00  0.00    +0.158 HD
BRANCH   9  20
ATOM     20  C   UNL     1      17.700   7.556  21.174  0.00  0.00    +0.037 A 
ATOM     23  C   UNL     1      17.489   6.444  20.357  0.00  0.00    +0.027 A 
ATOM     24  C   UNL     1      16.718   8.541  21.277  0.00  0.00    +0.027 A 
ATOM     25  C   UNL     1      16.297   6.318  19.644  0.00  0.00    +0.048 A 
ATOM     26  C   UNL     1      15.525   8.415  20.565  0.00  0.00    +0.048 A 
ATOM     27  C   UNL     1      15.315   7.304  19.749  0.00  0.00    +0.129 A 
BRANCH  27   7
ATOM      7  O   UNL     1      14.151   7.179  19.055  0.00  0.00    -0.456 OA
BRANCH   7  28
ATOM     28  C   UNL     1      12.967   7.389  19.741  0.00  0.00    +0.128 A 
ATOM     29  C   UNL     1      12.117   8.429  19.362  0.00  0.00    +0.046 A 
ATOM     30  C   UNL     1      12.623   6.564  20.811  0.00  0.00    +0.046 A 
ATOM     31  C   UNL     1      10.925   8.642  20.053  0.00  0.00    +0.004 A 
ATOM     32  C   UNL     1      11.431   6.777  21.502  0.00  0.00    +0.004 A 
ATOM     33  C   UNL     1      10.581   7.817  21.123  0.00  0.00    +0.000 A 
ENDBRANCH   7  28
ENDBRANCH  27   7
ENDBRANCH   9  20
ENDBRANCH   4  17
TORSDOF 7
ENDMDL
MODEL 8
REMARK VINA RESULT:      -6.7     16.957     18.750
REMARK  Name = 11884021
REMARK  7 active torsions:
REMARK  status: ('A' for Active; 'I' for Inactive)
REMARK    1  A    between atoms: O_4  and  C_13
REMARK    2  A    between atoms: O_4  and  C_17
REMARK    3  A    between atoms: O_7  and  C_27
REMARK    4  A    between atoms: O_7  and  C_28
REMARK    5  A    between atoms: N_8  and  C_12
REMARK    6  A    between atoms: N_9  and  C_20
REMARK    7  A    between atoms: C_16  and  C_18
REMARK                            x       y       z     vdW  Elec       q    Type
REMARK                         _______ _______ _______ _____ _____    ______ ____
ROOT
ATOM      4  O   UNL     1      -9.722 -10.628  18.552  0.00  0.00    -0.442 OA
ENDROOT
BRANCH   4  13
ATOM      2  O   UNL     1      -7.254  -9.830  17.563  0.00  0.00    -0.368 OA
ATOM      3  O   UNL     1      -6.784 -12.678  18.596  0.00  0.00    -0.368 OA
ATOM     10  C   UNL     1      -6.671 -12.110  17.275  0.00  0.00    +0.173 C 
ATOM     11  C   UNL     1      -7.787 -11.095  17.136  0.00  0.00    +0.192 C 
ATOM     12  C   UNL     1      -5.412 -11.280  17.174  0.00  0.00    +0.130 C 
ATOM     13  C   UNL     1      -8.826 -11.617  18.099  0.00  0.00    +0.235 C 
ATOM     14  C   UNL     1      -5.843  -9.963  17.794  0.00  0.00    +0.185 C 
ATOM     15  C   UNL     1      -7.973 -12.170  19.219  0.00  0.00    +0.207 C 
BRANCH  12   8
ATOM      5  O   UNL     1      -2.808 -10.663  16.283  0.00  0.00    -0.270 OA
ATOM      8  N   UNL     1      -5.010 -11.107  15.799  0.00  0.00    -0.303 N 
ATOM     16  C   UNL     1      -3.697 -10.801  15.441  0.00  0.00    +0.251 C 
ATOM     34  H   UNL     1      -5.712 -11.267  15.084  0.00  0.00    +0.149 HD
BRANCH  16  18
ATOM      1  S   UNL     1      -1.823 -10.490  13.456  0.00  0.00    -0.092 S 
ATOM     18  C   UNL     1      -3.436 -10.688  13.998  0.00  0.00    +0.074 A 
ATOM     19  C   UNL     1      -4.333 -10.717  12.954  0.00  0.00    +0.021 A 
ATOM     21  C   UNL     1      -3.688 -10.576  11.691  0.00  0.00    +0.008 A 
ATOM     22  C   UNL     1      -2.323 -10.443  11.819  0.00  0.00    +0.046 A 
ENDBRANCH  16  18
ENDBRANCH  12   8
ENDBRANCH   4  13
BRANCH   4  17
ATOM      6  O   UNL     1     -11.378 -10.813  16.986  0.00  0.00    -0.226 OA
ATOM      9  N   UNL     1     -10.453  -8.741  17.557  0.00  0.00    -0.251 N 
ATOM     17  C   UNL     1     -10.603 -10.112  17.624  0.00  0.00    +0.405 C 
ATOM     35  H   UNL     1      -9.750  -8.334  18.172  0.00  0.00    +0.158 HD
BRANCH   9  20
ATOM     20  C   UNL     1     -11.155  -7.826  16.740  0.00  0.00    +0.037 A 
ATOM     23  C   UNL     1     -10.471  -6.788  16.106  0.00  0.00    +0.027 A 
ATOM     24  C   UNL     1     -12.532  -7.963  16.565  0.00  0.00    +0.027 A 
ATOM     25  C   UNL     1     -11.165  -5.886  15.299  0.00  0.00    +0.048 A 
ATOM     26  C   UNL     1     -13.225  -7.062  15.757  0.00  0.00    +0.048 A 
ATOM     27  C   UNL     1     -12.542  -6.024  15.125  0.00  0.00    +0.129 A 
BRANCH  27   7
ATOM      7  O   UNL     1     -13.218  -5.145  14.335  0.00  0.00    -0.456 OA
BRANCH   7  28
ATOM     28  C   UNL     1     -12.778  -4.980  13.032  0.00  0.00    +0.128 A 
ATOM     29  C   UNL     1     -12.713  -6.079  12.175  0.00  0.00    +0.046 A 
ATOM     30  C   UNL     1     -12.399  -3.718  12.577  0.00  0.00    +0.046 A 
ATOM     31  C   UNL     1     -12.269  -5.914  10.863  0.00  0.00    +0.004 A 
ATOM     32  C   UNL     1     -11.955  -3.553  11.266  0.00  0.00    +0.004 A 
ATOM     33  C   UNL     1     -11.890  -4.651  10.408  0.00  0.00    +0.000 A 
ENDBRANCH   7  28
ENDBRANCH  27   7
ENDBRANCH   9  20
ENDBRANCH   4  17
TORSDOF 7
ENDMDL
MODEL 9
REMARK VINA RESULT:      -6.6      5.804      7.403
REMARK  Name = 11884021
REMARK  7 active torsions:
REMARK  status: ('A' for Active; 'I' for Inactive)
REMARK    1  A    between atoms: O_4  and  C_13
REMARK    2  A    between atoms: O_4  and  C_17
REMARK    3  A    between atoms: O_7  and  C_27
REMARK    4  A    between atoms: O_7  and  C_28
REMARK    5  A    between atoms: N_8  and  C_12
REMARK    6  A    between atoms: N_9  and  C_20
REMARK    7  A    between atoms: C_16  and  C_18
REMARK                            x       y       z     vdW  Elec       q    Type
REMARK                         _______ _______ _______ _____ _____    ______ ____
ROOT
ATOM      4  O   UNL     1     -11.264  11.303  29.128  0.00  0.00    -0.442 OA
ENDROOT
BRANCH   4  13
ATOM      2  O   UNL     1     -11.256   9.214  30.956  0.00  0.00    -0.368 OA
ATOM      3  O   UNL     1     -13.292  11.211  32.081  0.00  0.00    -0.368 OA
ATOM     10  C   UNL     1     -13.437   9.846  31.637  0.00  0.00    +0.173 C 
ATOM     11  C   UNL     1     -12.519   9.672  30.444  0.00  0.00    +0.192 C 
ATOM     12  C   UNL     1     -12.871   8.901  32.671  0.00  0.00    +0.130 C 
ATOM     13  C   UNL     1     -12.424  11.075  29.896  0.00  0.00    +0.235 C 
ATOM     14  C   UNL     1     -11.385   8.933  32.358  0.00  0.00    +0.185 C 
ATOM     15  C   UNL     1     -12.446  11.911  31.157  0.00  0.00    +0.207 C 
BRANCH  12   8
ATOM      5  O   UNL     1     -13.502   7.124  34.769  0.00  0.00    -0.270 OA
ATOM      8  N   UNL     1     -13.413   7.573  32.517  0.00  0.00    -0.303 N 
ATOM     16  C   UNL     1     -13.698   6.755  33.610  0.00  0.00    +0.251 C 
ATOM     34  H   UNL     1     -13.632   7.265  31.576  0.00  0.00    +0.149 HD
BRANCH  16  18
ATOM      1  S   UNL     1     -15.735   4.966  34.054  0.00  0.00    -0.092 S 
ATOM     18  C   UNL     1     -14.276   5.441  33.293  0.00  0.00    +0.074 A 
ATOM     19  C   UNL     1     -13.804   4.475  32.432  0.00  0.00    +0.021 A 
ATOM     21  C   UNL     1     -14.652   3.330  32.396  0.00  0.00    +0.008 A 
ATOM     22  C   UNL     1     -15.739   3.464  33.231  0.00  0.00    +0.046 A 
ENDBRANCH  16  18
ENDBRANCH  12   8
ENDBRANCH   4  13
BRANCH   4  17
ATOM      6  O   UNL     1     -10.426   9.910  27.521  0.00  0.00    -0.226 OA
ATOM      9  N   UNL     1     -12.244  11.320  27.097  0.00  0.00    -0.251 N 
ATOM     17  C   UNL     1     -11.239  10.759  27.861  0.00  0.00    +0.405 C 
ATOM     35  H   UNL     1     -12.825  12.017  27.560  0.00  0.00    +0.158 HD
BRANCH   9  20
ATOM     20  C   UNL     1     -12.568  11.048  25.749  0.00  0.00    +0.037 A 
ATOM     23  C   UNL     1     -11.721  11.477  24.726  0.00  0.00    +0.027 A 
ATOM     24  C   UNL     1     -13.736  10.350  25.440  0.00  0.00    +0.027 A 
ATOM     25  C   UNL     1     -12.042  11.207  23.396  0.00  0.00    +0.048 A 
ATOM     26  C   UNL     1     -14.056  10.080  24.110  0.00  0.00    +0.048 A 
ATOM     27  C   UNL     1     -13.210  10.509  23.088  0.00  0.00    +0.129 A 
BRANCH  27   7
ATOM      7  O   UNL     1     -13.521  10.244  21.790  0.00  0.00    -0.456 OA
BRANCH   7  28
ATOM     28  C   UNL     1     -12.808   9.245  21.148  0.00  0.00    +0.128 A 
ATOM     29  C   UNL     1     -13.044   7.907  21.466  0.00  0.00    +0.046 A 
ATOM     30  C   UNL     1     -11.855   9.575  20.185  0.00  0.00    +0.046 A 
ATOM     31  C   UNL     1     -12.326   6.900  20.821  0.00  0.00    +0.004 A 
ATOM     32  C   UNL     1     -11.137   8.568  19.540  0.00  0.00    +0.004 A 
ATOM     33  C   UNL     1     -11.373   7.230  19.858  0.00  0.00    +0.000 A 
ENDBRANCH   7  28
ENDBRANCH  27   7
ENDBRANCH   9  20
ENDBRANCH   4  17
TORSDOF 7
ENDMDL
MODEL 10
REMARK VINA RESULT:      -6.6     32.956     36.175
REMARK  Name = 11884021
REMARK  7 active torsions:
REMARK  status: ('A' for Active; 'I' for Inactive)
REMARK    1  A    between atoms: O_4  and  C_13
REMARK    2  A    between atoms: O_4  and  C_17
REMARK    3  A    between atoms: O_7  and  C_27
REMARK    4  A    between atoms: O_7  and  C_28
REMARK    5  A    between atoms: N_8  and  C_12
REMARK    6  A    between atoms: N_9  and  C_20
REMARK    7  A    between atoms: C_16  and  C_18
REMARK                            x       y       z     vdW  Elec       q    Type
REMARK                         _______ _______ _______ _____ _____    ______ ____
ROOT
ATOM      4  O   UNL     1      22.227   5.315  20.711  0.00  0.00    -0.442 OA
ENDROOT
BRANCH   4  13
ATOM      2  O   UNL     1      23.998   3.249  20.158  0.00  0.00    -0.368 OA
ATOM      3  O   UNL     1      25.521   5.069  22.098  0.00  0.00    -0.368 OA
ATOM     10  C   UNL     1      25.102   3.693  22.208  0.00  0.00    +0.173 C 
ATOM     11  C   UNL     1      23.750   3.591  21.532  0.00  0.00    +0.192 C 
ATOM     12  C   UNL     1      25.995   2.811  21.368  0.00  0.00    +0.130 C 
ATOM     13  C   UNL     1      23.207   4.992  21.671  0.00  0.00    +0.235 C 
ATOM     14  C   UNL     1      25.395   2.970  19.982  0.00  0.00    +0.185 C 
ATOM     15  C   UNL     1      24.455   5.834  21.517  0.00  0.00    +0.207 C 
BRANCH  12   8
ATOM      5  O   UNL     1      27.747   1.602  23.220  0.00  0.00    -0.270 OA
ATOM      8  N   UNL     1      25.940   1.438  21.811  0.00  0.00    -0.303 N 
ATOM     16  C   UNL     1      26.847   0.916  22.733  0.00  0.00    +0.251 C 
ATOM     34  H   UNL     1      25.176   0.868  21.464  0.00  0.00    +0.149 HD
BRANCH  16  18
ATOM      1  S   UNL     1      26.266  -0.871  24.737  0.00  0.00    -0.092 S 
ATOM     18  C   UNL     1      26.640  -0.490  23.109  0.00  0.00    +0.074 A 
ATOM     19  C   UNL     1      26.702  -1.614  22.316  0.00  0.00    +0.021 A 
ATOM     21  C   UNL     1      26.439  -2.805  23.053  0.00  0.00    +0.008 A 
ATOM     22  C   UNL     1      26.187  -2.545  24.383  0.00  0.00    +0.046 A 
ENDBRANCH  16  18
ENDBRANCH  12   8
ENDBRANCH   4  13
BRANCH   4  17
ATOM      6  O   UNL     1      20.640   5.406  22.355  0.00  0.00    -0.226 OA
ATOM      9  N   UNL     1      20.113   5.823  20.113  0.00  0.00    -0.251 N 
ATOM     17  C   UNL     1      20.942   5.509  21.172  0.00  0.00    +0.405 C 
ATOM     35  H   UNL     1      20.551   5.863  19.195  0.00  0.00    +0.158 HD
BRANCH   9  20
ATOM     20  C   UNL     1      18.727   6.097  20.144  0.00  0.00    +0.037 A 
ATOM     23  C   UNL     1      18.174   6.783  21.226  0.00  0.00    +0.027 A 
ATOM     24  C   UNL     1      17.911   5.683  19.090  0.00  0.00    +0.027 A 
ATOM     25  C   UNL     1      16.806   7.053  21.255  0.00  0.00    +0.048 A 
ATOM     26  C   UNL     1      16.544   5.955  19.119  0.00  0.00    +0.048 A 
ATOM     27  C   UNL     1      15.991   6.639  20.201  0.00  0.00    +0.129 A 
BRANCH  27   7
ATOM      7  O   UNL     1      14.657   6.906  20.228  0.00  0.00    -0.456 OA
BRANCH   7  28
ATOM     28  C   UNL     1      14.159   7.798  19.294  0.00  0.00    +0.128 A 
ATOM     29  C   UNL     1      14.768   9.042  19.126  0.00  0.00    +0.046 A 
ATOM     30  C   UNL     1      13.050   7.455  18.522  0.00  0.00    +0.046 A 
ATOM     31  C   UNL     1      14.267   9.942  18.185  0.00  0.00    +0.004 A 
ATOM     32  C   UNL     1      12.549   8.355  17.581  0.00  0.00    +0.004 A 
ATOM     33  C   UNL     1      13.158   9.599  17.413  0.00  0.00    +0.000 A 
ENDBRANCH   7  28
ENDBRANCH  27   7
ENDBRANCH   9  20
ENDBRANCH   4  17
TORSDOF 7
ENDMDL
