MODEL 1
REMARK VINA RESULT:      -6.3      0.000      0.000
REMARK  Name = 11885926
REMARK  6 active torsions:
REMARK  status: ('A' for Active; 'I' for Inactive)
REMARK    1  A    between atoms: O_5  and  C_27
REMARK    2  A    between atoms: O_5  and  C_31
REMARK    3  A    between atoms: N_8  and  C_22
REMARK    4  A    between atoms: N_9  and  C_20
REMARK    5  A    between atoms: C_23  and  C_24
REMARK    6  A    between atoms: C_24  and  C_27
REMARK                            x       y       z     vdW  Elec       q    Type
REMARK                         _______ _______ _______ _____ _____    ______ ____
ROOT
ATOM      2  O   UNL     1      13.230  11.168  21.807  0.00  0.00    -0.266 OA
ATOM      3  O   UNL     1      14.544   6.204  20.843  0.00  0.00    -0.252 OA
ATOM      6  N   UNL     1      13.828   7.159  18.861  0.00  0.00    -0.284 N 
ATOM      7  N   UNL     1      13.222  10.180  19.689  0.00  0.00    -0.310 N 
ATOM      8  N   UNL     1      16.132   6.916  19.311  0.00  0.00    -0.269 N 
ATOM     10  C   UNL     1      11.611   8.299  19.045  0.00  0.00    +0.027 C 
ATOM     11  C   UNL     1      13.263   9.104  17.411  0.00  0.00    +0.054 C 
ATOM     12  C   UNL     1      11.776   8.831  17.626  0.00  0.00    +0.018 C 
ATOM     13  C   UNL     1      12.417   7.003  19.226  0.00  0.00    +0.114 C 
ATOM     14  C   UNL     1      12.036   9.387  20.038  0.00  0.00    +0.130 C 
ATOM     15  C   UNL     1      14.061   7.790  17.548  0.00  0.00    +0.119 C 
ATOM     16  C   UNL     1      13.781  10.124  18.409  0.00  0.00    +0.027 A 
ATOM     17  C   UNL     1      14.793  10.942  18.077  0.00  0.00    +0.024 A 
ATOM     18  C   UNL     1      13.700  11.070  20.674  0.00  0.00    +0.273 A 
ATOM     19  C   UNL     1      14.827   6.724  19.760  0.00  0.00    +0.306 C 
ATOM     20  C   UNL     1      14.845  11.946  20.272  0.00  0.00    +0.099 A 
ATOM     21  C   UNL     1      15.335  11.870  19.029  0.00  0.00    +0.030 A 
ATOM     32  H   UNL     1      16.300   6.922  18.310  0.00  0.00    +0.156 HD
ENDROOT
BRANCH   8  22
ATOM      1  F   UNL     1      20.690   7.467  22.411  0.00  0.00    -0.205 F 
ATOM     22  C   UNL     1      17.298   7.057  20.102  0.00  0.00    +0.035 A 
ATOM     25  C   UNL     1      18.280   6.072  20.069  0.00  0.00    +0.026 A 
ATOM     26  C   UNL     1      17.454   8.180  20.910  0.00  0.00    +0.026 A 
ATOM     28  C   UNL     1      19.428   6.211  20.850  0.00  0.00    +0.040 A 
ATOM     29  C   UNL     1      18.602   8.318  21.691  0.00  0.00    +0.040 A 
ATOM     30  C   UNL     1      19.589   7.334  21.660  0.00  0.00    +0.124 A 
ENDBRANCH   8  22
BRANCH  20   9
ATOM      4  O   UNL     1      16.965  11.411  22.122  0.00  0.00    -0.275 OA
ATOM      9  N   UNL     1      15.347  12.810  21.199  0.00  0.00    -0.281 N 
ATOM     23  C   UNL     1      16.379  12.490  22.072  0.00  0.00    +0.220 C 
ATOM     33  H   UNL     1      14.792  13.639  21.400  0.00  0.00    +0.155 HD
BRANCH  23  24
ATOM     24  C   UNL     1      16.714  13.660  22.986  0.00  0.00    +0.124 C 
BRANCH  24  27
ATOM     27  C   UNL     1      15.951  13.623  24.302  0.00  0.00    +0.168 C 
BRANCH  27   5
ATOM      5  O   UNL     1      14.795  12.809  24.155  0.00  0.00    -0.382 OA
ATOM     31  C   UNL     1      14.688  11.860  25.207  0.00  0.00    +0.194 C 
ENDBRANCH  27   5
ENDBRANCH  24  27
ENDBRANCH  23  24
ENDBRANCH  20   9
TORSDOF 5
ENDMDL
MODEL 2
REMARK VINA RESULT:      -6.3     15.750     18.816
REMARK  Name = 11885926
REMARK  6 active torsions:
REMARK  status: ('A' for Active; 'I' for Inactive)
REMARK    1  A    between atoms: O_5  and  C_27
REMARK    2  A    between atoms: O_5  and  C_31
REMARK    3  A    between atoms: N_8  and  C_22
REMARK    4  A    between atoms: N_9  and  C_20
REMARK    5  A    between atoms: C_23  and  C_24
REMARK    6  A    between atoms: C_24  and  C_27
REMARK                            x       y       z     vdW  Elec       q    Type
REMARK                         _______ _______ _______ _____ _____    ______ ____
ROOT
ATOM      2  O   UNL     1      10.186   7.386   1.038  0.00  0.00    -0.266 OA
ATOM      3  O   UNL     1      11.808   9.503   5.531  0.00  0.00    -0.252 OA
ATOM      6  N   UNL     1      10.536   7.636   6.030  0.00  0.00    -0.284 N 
ATOM      7  N   UNL     1       9.794   6.474   3.153  0.00  0.00    -0.310 N 
ATOM      8  N   UNL     1      12.893   7.528   6.077  0.00  0.00    -0.269 N 
ATOM     10  C   UNL     1       8.308   7.611   4.898  0.00  0.00    +0.027 C 
ATOM     11  C   UNL     1       9.420   5.488   5.442  0.00  0.00    +0.054 C 
ATOM     12  C   UNL     1       8.069   6.198   5.415  0.00  0.00    +0.018 C 
ATOM     13  C   UNL     1       9.280   8.361   5.823  0.00  0.00    +0.114 C 
ATOM     14  C   UNL     1       8.825   7.535   3.457  0.00  0.00    +0.130 C 
ATOM     15  C   UNL     1      10.376   6.219   6.409  0.00  0.00    +0.119 C 
ATOM     16  C   UNL     1      10.037   5.434   4.056  0.00  0.00    +0.027 A 
ATOM     17  C   UNL     1      10.839   4.412   3.711  0.00  0.00    +0.024 A 
ATOM     18  C   UNL     1      10.383   6.502   1.872  0.00  0.00    +0.273 A 
ATOM     19  C   UNL     1      11.763   8.312   5.849  0.00  0.00    +0.306 C 
ATOM     20  C   UNL     1      11.290   5.360   1.537  0.00  0.00    +0.099 A 
ATOM     21  C   UNL     1      11.477   4.378   2.426  0.00  0.00    +0.030 A 
ATOM     32  H   UNL     1      12.818   6.753   6.727  0.00  0.00    +0.156 HD
ENDROOT
BRANCH   8  22
ATOM      1  F   UNL     1      17.962   8.257   3.962  0.00  0.00    -0.205 F 
ATOM     22  C   UNL     1      14.188   7.716   5.536  0.00  0.00    +0.035 A 
ATOM     25  C   UNL     1      14.451   7.335   4.223  0.00  0.00    +0.026 A 
ATOM     26  C   UNL     1      15.192   8.278   6.321  0.00  0.00    +0.026 A 
ATOM     28  C   UNL     1      15.728   7.518   3.691  0.00  0.00    +0.040 A 
ATOM     29  C   UNL     1      16.468   8.461   5.788  0.00  0.00    +0.040 A 
ATOM     30  C   UNL     1      16.736   8.081   4.473  0.00  0.00    +0.124 A 
ENDBRANCH   8  22
BRANCH  20   9
ATOM      4  O   UNL     1      10.464   3.867  -0.764  0.00  0.00    -0.275 OA
ATOM      9  N   UNL     1      11.892   5.358   0.314  0.00  0.00    -0.281 N 
ATOM     23  C   UNL     1      11.443   4.609  -0.767  0.00  0.00    +0.220 C 
ATOM     33  H   UNL     1      12.830   5.750   0.265  0.00  0.00    +0.155 HD
BRANCH  23  24
ATOM     24  C   UNL     1      12.324   4.817  -1.989  0.00  0.00    +0.124 C 
BRANCH  24  27
ATOM     27  C   UNL     1      13.577   3.955  -1.973  0.00  0.00    +0.168 C 
BRANCH  27   5
ATOM      5  O   UNL     1      13.899   3.616  -0.630  0.00  0.00    -0.382 OA
ATOM     31  C   UNL     1      15.199   4.066  -0.276  0.00  0.00    +0.194 C 
ENDBRANCH  27   5
ENDBRANCH  24  27
ENDBRANCH  23  24
ENDBRANCH  20   9
TORSDOF 5
ENDMDL
MODEL 3
REMARK VINA RESULT:      -6.0     14.695     16.965
REMARK  Name = 11885926
REMARK  6 active torsions:
REMARK  status: ('A' for Active; 'I' for Inactive)
REMARK    1  A    between atoms: O_5  and  C_27
REMARK    2  A    between atoms: O_5  and  C_31
REMARK    3  A    between atoms: N_8  and  C_22
REMARK    4  A    between atoms: N_9  and  C_20
REMARK    5  A    between atoms: C_23  and  C_24
REMARK    6  A    between atoms: C_24  and  C_27
REMARK                            x       y       z     vdW  Elec       q    Type
REMARK                         _______ _______ _______ _____ _____    ______ ____
ROOT
ATOM      2  O   UNL     1      13.014   8.052   7.411  0.00  0.00    -0.266 OA
ATOM      3  O   UNL     1      10.344   4.339   4.886  0.00  0.00    -0.252 OA
ATOM      6  N   UNL     1       9.249   6.353   4.575  0.00  0.00    -0.284 N 
ATOM      7  N   UNL     1      11.130   8.442   6.085  0.00  0.00    -0.310 N 
ATOM      8  N   UNL     1      10.644   5.474   2.886  0.00  0.00    -0.269 N 
ATOM     10  C   UNL     1       8.800   7.585   6.703  0.00  0.00    +0.027 C 
ATOM     11  C   UNL     1       9.123   8.840   4.614  0.00  0.00    +0.054 C 
ATOM     12  C   UNL     1       8.299   8.778   5.898  0.00  0.00    +0.018 C 
ATOM     13  C   UNL     1       8.625   6.287   5.900  0.00  0.00    +0.114 C 
ATOM     14  C   UNL     1      10.261   7.828   7.097  0.00  0.00    +0.130 C 
ATOM     15  C   UNL     1       8.906   7.554   3.790  0.00  0.00    +0.119 C 
ATOM     16  C   UNL     1      10.600   9.008   4.921  0.00  0.00    +0.027 A 
ATOM     17  C   UNL     1      11.399   9.666   4.065  0.00  0.00    +0.024 A 
ATOM     18  C   UNL     1      12.504   8.521   6.393  0.00  0.00    +0.273 A 
ATOM     19  C   UNL     1      10.110   5.312   4.164  0.00  0.00    +0.306 C 
ATOM     20  C   UNL     1      13.364   9.239   5.401  0.00  0.00    +0.099 A 
ATOM     21  C   UNL     1      12.808   9.781   4.311  0.00  0.00    +0.030 A 
ATOM     32  H   UNL     1      10.112   6.008   2.207  0.00  0.00    +0.156 HD
ENDROOT
BRANCH   8  22
ATOM      1  F   UNL     1      15.369   3.336   0.940  0.00  0.00    -0.205 F 
ATOM     22  C   UNL     1      11.851   4.928   2.387  0.00  0.00    +0.035 A 
ATOM     25  C   UNL     1      11.899   3.591   2.004  0.00  0.00    +0.026 A 
ATOM     26  C   UNL     1      12.984   5.731   2.286  0.00  0.00    +0.026 A 
ATOM     28  C   UNL     1      13.089   3.052   1.514  0.00  0.00    +0.040 A 
ATOM     29  C   UNL     1      14.174   5.192   1.795  0.00  0.00    +0.040 A 
ATOM     30  C   UNL     1      14.226   3.853   1.410  0.00  0.00    +0.124 A 
ENDBRANCH   8  22
BRANCH  20   9
ATOM      4  O   UNL     1      15.358   7.318   4.666  0.00  0.00    -0.275 OA
ATOM      9  N   UNL     1      14.701   9.323   5.654  0.00  0.00    -0.281 N 
ATOM     23  C   UNL     1      15.621   8.355   5.272  0.00  0.00    +0.220 C 
ATOM     33  H   UNL     1      14.994  10.015   6.340  0.00  0.00    +0.155 HD
BRANCH  23  24
ATOM     24  C   UNL     1      17.032   8.733   5.697  0.00  0.00    +0.124 C 
BRANCH  24  27
ATOM     27  C   UNL     1      18.080   8.396   4.648  0.00  0.00    +0.168 C 
BRANCH  27   5
ATOM      5  O   UNL     1      19.317   8.113   5.290  0.00  0.00    -0.382 OA
ATOM     31  C   UNL     1      19.346   8.626   6.615  0.00  0.00    +0.194 C 
ENDBRANCH  27   5
ENDBRANCH  24  27
ENDBRANCH  23  24
ENDBRANCH  20   9
TORSDOF 5
ENDMDL
MODEL 4
REMARK VINA RESULT:      -6.0     29.204     32.567
REMARK  Name = 11885926
REMARK  6 active torsions:
REMARK  status: ('A' for Active; 'I' for Inactive)
REMARK    1  A    between atoms: O_5  and  C_27
REMARK    2  A    between atoms: O_5  and  C_31
REMARK    3  A    between atoms: N_8  and  C_22
REMARK    4  A    between atoms: N_9  and  C_20
REMARK    5  A    between atoms: C_23  and  C_24
REMARK    6  A    between atoms: C_24  and  C_27
REMARK                            x       y       z     vdW  Elec       q    Type
REMARK                         _______ _______ _______ _____ _____    ______ ____
ROOT
ATOM      2  O   UNL     1     -11.326 -13.347  17.463  0.00  0.00    -0.266 OA
ATOM      3  O   UNL     1      -7.539 -10.528  15.226  0.00  0.00    -0.252 OA
ATOM      6  N   UNL     1      -9.152  -9.070  16.018  0.00  0.00    -0.284 N 
ATOM      7  N   UNL     1     -11.252 -11.012  17.433  0.00  0.00    -0.310 N 
ATOM      8  N   UNL     1      -7.161  -9.431  17.233  0.00  0.00    -0.269 N 
ATOM     10  C   UNL     1     -11.470  -9.647  15.280  0.00  0.00    +0.027 C 
ATOM     11  C   UNL     1     -11.126  -8.495  17.424  0.00  0.00    +0.054 C 
ATOM     12  C   UNL     1     -12.022  -8.557  16.191  0.00  0.00    +0.018 C 
ATOM     13  C   UNL     1     -10.026  -9.317  14.868  0.00  0.00    +0.114 C 
ATOM     14  C   UNL     1     -11.571 -10.997  16.000  0.00  0.00    +0.130 C 
ATOM     15  C   UNL     1      -9.688  -8.117  17.008  0.00  0.00    +0.119 C 
ATOM     16  C   UNL     1     -11.114  -9.824  18.158  0.00  0.00    +0.027 A 
ATOM     17  C   UNL     1     -10.937  -9.861  19.490  0.00  0.00    +0.024 A 
ATOM     18  C   UNL     1     -11.194 -12.276  18.056  0.00  0.00    +0.273 A 
ATOM     19  C   UNL     1      -7.914  -9.744  16.102  0.00  0.00    +0.306 C 
ATOM     20  C   UNL     1     -10.970 -12.274  19.536  0.00  0.00    +0.099 A 
ATOM     21  C   UNL     1     -10.862 -11.112  20.189  0.00  0.00    +0.030 A 
ATOM     32  H   UNL     1      -7.286  -8.517  17.656  0.00  0.00    +0.156 HD
ENDROOT
BRANCH   8  22
ATOM      1  F   UNL     1      -3.307 -12.575  19.673  0.00  0.00    -0.205 F 
ATOM     22  C   UNL     1      -6.177 -10.236  17.856  0.00  0.00    +0.035 A 
ATOM     25  C   UNL     1      -6.428 -10.792  19.107  0.00  0.00    +0.026 A 
ATOM     26  C   UNL     1      -4.962 -10.464  17.215  0.00  0.00    +0.026 A 
ATOM     28  C   UNL     1      -5.457 -11.583  19.722  0.00  0.00    +0.040 A 
ATOM     29  C   UNL     1      -3.992 -11.256  17.830  0.00  0.00    +0.040 A 
ATOM     30  C   UNL     1      -4.240 -11.815  19.083  0.00  0.00    +0.124 A 
ENDBRANCH   8  22
BRANCH  20   9
ATOM      4  O   UNL     1      -8.573 -13.614  20.352  0.00  0.00    -0.275 OA
ATOM      9  N   UNL     1     -10.892 -13.477  20.173  0.00  0.00    -0.281 N 
ATOM     23  C   UNL     1      -9.695 -14.078  20.544  0.00  0.00    +0.220 C 
ATOM     33  H   UNL     1     -11.733 -14.049  20.176  0.00  0.00    +0.155 HD
BRANCH  23  24
ATOM     24  C   UNL     1      -9.936 -15.411  21.235  0.00  0.00    +0.124 C 
BRANCH  24  27
ATOM     27  C   UNL     1     -11.182 -15.413  22.107  0.00  0.00    +0.168 C 
BRANCH  27   5
ATOM      5  O   UNL     1     -11.083 -14.375  23.074  0.00  0.00    -0.382 OA
ATOM     31  C   UNL     1     -12.359 -14.013  23.583  0.00  0.00    +0.194 C 
ENDBRANCH  27   5
ENDBRANCH  24  27
ENDBRANCH  23  24
ENDBRANCH  20   9
TORSDOF 5
ENDMDL
MODEL 5
REMARK VINA RESULT:      -5.9     14.994     18.072
REMARK  Name = 11885926
REMARK  6 active torsions:
REMARK  status: ('A' for Active; 'I' for Inactive)
REMARK    1  A    between atoms: O_5  and  C_27
REMARK    2  A    between atoms: O_5  and  C_31
REMARK    3  A    between atoms: N_8  and  C_22
REMARK    4  A    between atoms: N_9  and  C_20
REMARK    5  A    between atoms: C_23  and  C_24
REMARK    6  A    between atoms: C_24  and  C_27
REMARK                            x       y       z     vdW  Elec       q    Type
REMARK                         _______ _______ _______ _____ _____    ______ ____
ROOT
ATOM      2  O   UNL     1       9.115   7.844   2.726  0.00  0.00    -0.266 OA
ATOM      3  O   UNL     1      12.307   9.643   6.451  0.00  0.00    -0.252 OA
ATOM      6  N   UNL     1      11.123   7.853   7.317  0.00  0.00    -0.284 N 
ATOM      7  N   UNL     1       9.373   6.873   4.836  0.00  0.00    -0.310 N 
ATOM      8  N   UNL     1      13.344   7.573   6.570  0.00  0.00    -0.269 N 
ATOM     10  C   UNL     1       8.651   8.040   6.995  0.00  0.00    +0.027 C 
ATOM     11  C   UNL     1       9.701   5.820   7.101  0.00  0.00    +0.054 C 
ATOM     12  C   UNL     1       8.481   6.627   7.539  0.00  0.00    +0.018 C 
ATOM     13  C   UNL     1       9.934   8.677   7.553  0.00  0.00    +0.114 C 
ATOM     14  C   UNL     1       8.652   7.988   5.463  0.00  0.00    +0.130 C 
ATOM     15  C   UNL     1      10.981   6.438   7.704  0.00  0.00    +0.119 C 
ATOM     16  C   UNL     1       9.815   5.781   5.588  0.00  0.00    +0.027 A 
ATOM     17  C   UNL     1      10.369   4.719   4.978  0.00  0.00    +0.024 A 
ATOM     18  C   UNL     1       9.503   6.914   3.432  0.00  0.00    +0.273 A 
ATOM     19  C   UNL     1      12.271   8.446   6.746  0.00  0.00    +0.306 C 
ATOM     20  C   UNL     1      10.149   5.723   2.794  0.00  0.00    +0.099 A 
ATOM     21  C   UNL     1      10.539   4.693   3.553  0.00  0.00    +0.030 A 
ATOM     32  H   UNL     1      13.425   6.778   7.195  0.00  0.00    +0.156 HD
ENDROOT
BRANCH   8  22
ATOM      1  F   UNL     1      17.464   8.021   2.893  0.00  0.00    -0.205 F 
ATOM     22  C   UNL     1      14.397   7.689   5.630  0.00  0.00    +0.035 A 
ATOM     25  C   UNL     1      14.191   7.297   4.310  0.00  0.00    +0.026 A 
ATOM     26  C   UNL     1      15.632   8.192   6.032  0.00  0.00    +0.026 A 
ATOM     28  C   UNL     1      15.229   7.409   3.384  0.00  0.00    +0.040 A 
ATOM     29  C   UNL     1      16.669   8.304   5.105  0.00  0.00    +0.040 A 
ATOM     30  C   UNL     1      16.467   7.913   3.782  0.00  0.00    +0.124 A 
ENDBRANCH   8  22
BRANCH  20   9
ATOM      4  O   UNL     1      12.439   6.670   1.356  0.00  0.00    -0.275 OA
ATOM      9  N   UNL     1      10.309   5.730   1.440  0.00  0.00    -0.281 N 
ATOM     23  C   UNL     1      11.446   6.205   0.799  0.00  0.00    +0.220 C 
ATOM     33  H   UNL     1       9.472   5.585   0.880  0.00  0.00    +0.155 HD
BRANCH  23  24
ATOM     24  C   UNL     1      11.324   6.080  -0.712  0.00  0.00    +0.124 C 
BRANCH  24  27
ATOM     27  C   UNL     1      10.891   4.693  -1.161  0.00  0.00    +0.168 C 
BRANCH  27   5
ATOM      5  O   UNL     1       9.495   4.698  -1.429  0.00  0.00    -0.382 OA
ATOM     31  C   UNL     1       9.085   5.914  -2.038  0.00  0.00    +0.194 C 
ENDBRANCH  27   5
ENDBRANCH  24  27
ENDBRANCH  23  24
ENDBRANCH  20   9
TORSDOF 5
ENDMDL
MODEL 6
REMARK VINA RESULT:      -5.8     28.645     30.813
REMARK  Name = 11885926
REMARK  6 active torsions:
REMARK  status: ('A' for Active; 'I' for Inactive)
REMARK    1  A    between atoms: O_5  and  C_27
REMARK    2  A    between atoms: O_5  and  C_31
REMARK    3  A    between atoms: N_8  and  C_22
REMARK    4  A    between atoms: N_9  and  C_20
REMARK    5  A    between atoms: C_23  and  C_24
REMARK    6  A    between atoms: C_24  and  C_27
REMARK                            x       y       z     vdW  Elec       q    Type
REMARK                         _______ _______ _______ _____ _____    ______ ____
ROOT
ATOM      2  O   UNL     1      -5.040 -13.867  15.720  0.00  0.00    -0.266 OA
ATOM      3  O   UNL     1      -8.977 -11.236  13.511  0.00  0.00    -0.252 OA
ATOM      6  N   UNL     1      -8.540 -10.284  15.574  0.00  0.00    -0.284 N 
ATOM      7  N   UNL     1      -6.046 -11.967  16.636  0.00  0.00    -0.310 N 
ATOM      8  N   UNL     1      -7.728  -9.284  13.596  0.00  0.00    -0.269 N 
ATOM     10  C   UNL     1      -8.473 -11.940  17.445  0.00  0.00    +0.027 C 
ATOM     11  C   UNL     1      -7.120  -9.893  17.582  0.00  0.00    +0.054 C 
ATOM     12  C   UNL     1      -8.001 -10.842  18.390  0.00  0.00    +0.018 C 
ATOM     13  C   UNL     1      -9.276 -11.335  16.282  0.00  0.00    +0.114 C 
ATOM     14  C   UNL     1      -7.257 -12.734  16.956  0.00  0.00    +0.130 C 
ATOM     15  C   UNL     1      -7.944  -9.253  16.445  0.00  0.00    +0.119 C 
ATOM     16  C   UNL     1      -5.923 -10.622  16.999  0.00  0.00    +0.027 A 
ATOM     17  C   UNL     1      -4.764  -9.972  16.801  0.00  0.00    +0.024 A 
ATOM     18  C   UNL     1      -4.984 -12.680  16.041  0.00  0.00    +0.273 A 
ATOM     19  C   UNL     1      -8.445 -10.335  14.166  0.00  0.00    +0.306 C 
ATOM     20  C   UNL     1      -3.720 -11.912  15.814  0.00  0.00    +0.099 A 
ATOM     21  C   UNL     1      -3.643 -10.632  16.195  0.00  0.00    +0.030 A 
ATOM     32  H   UNL     1      -7.704  -8.396  14.088  0.00  0.00    +0.156 HD
ENDROOT
BRANCH   8  22
ATOM      1  F   UNL     1      -5.068  -9.282   8.737  0.00  0.00    -0.205 F 
ATOM     22  C   UNL     1      -7.048  -9.285  12.354  0.00  0.00    +0.035 A 
ATOM     25  C   UNL     1      -5.664  -9.426  12.323  0.00  0.00    +0.026 A 
ATOM     26  C   UNL     1      -7.769  -9.141  11.171  0.00  0.00    +0.026 A 
ATOM     28  C   UNL     1      -4.994  -9.426  11.099  0.00  0.00    +0.040 A 
ATOM     29  C   UNL     1      -7.098  -9.141   9.947  0.00  0.00    +0.040 A 
ATOM     30  C   UNL     1      -5.711  -9.283   9.912  0.00  0.00    +0.124 A 
ENDBRANCH   8  22
BRANCH  20   9
ATOM      4  O   UNL     1      -2.939 -11.734  13.064  0.00  0.00    -0.275 OA
ATOM      9  N   UNL     1      -2.674 -12.560  15.226  0.00  0.00    -0.281 N 
ATOM     23  C   UNL     1      -2.345 -12.433  13.882  0.00  0.00    +0.220 C 
ATOM     33  H   UNL     1      -2.261 -13.330  15.747  0.00  0.00    +0.155 HD
BRANCH  23  24
ATOM     24  C   UNL     1      -1.132 -13.280  13.526  0.00  0.00    +0.124 C 
BRANCH  24  27
ATOM     27  C   UNL     1      -1.384 -14.772  13.678  0.00  0.00    +0.168 C 
BRANCH  27   5
ATOM      5  O   UNL     1      -2.768 -15.039  13.494  0.00  0.00    -0.382 OA
ATOM     31  C   UNL     1      -3.134 -16.299  14.039  0.00  0.00    +0.194 C 
ENDBRANCH  27   5
ENDBRANCH  24  27
ENDBRANCH  23  24
ENDBRANCH  20   9
TORSDOF 5
ENDMDL
MODEL 7
REMARK VINA RESULT:      -5.8     23.097     26.868
REMARK  Name = 11885926
REMARK  6 active torsions:
REMARK  status: ('A' for Active; 'I' for Inactive)
REMARK    1  A    between atoms: O_5  and  C_27
REMARK    2  A    between atoms: O_5  and  C_31
REMARK    3  A    between atoms: N_8  and  C_22
REMARK    4  A    between atoms: N_9  and  C_20
REMARK    5  A    between atoms: C_23  and  C_24
REMARK    6  A    between atoms: C_24  and  C_27
REMARK                            x       y       z     vdW  Elec       q    Type
REMARK                         _______ _______ _______ _____ _____    ______ ____
ROOT
ATOM      2  O   UNL     1      -6.451  10.409   5.473  0.00  0.00    -0.266 OA
ATOM      3  O   UNL     1      -2.268  12.217   2.917  0.00  0.00    -0.252 OA
ATOM      6  N   UNL     1      -1.544  10.689   4.497  0.00  0.00    -0.284 N 
ATOM      7  N   UNL     1      -4.264   9.655   5.805  0.00  0.00    -0.310 N 
ATOM      8  N   UNL     1      -1.749  10.064   2.230  0.00  0.00    -0.269 N 
ATOM     10  C   UNL     1      -2.425  11.133   6.794  0.00  0.00    +0.027 C 
ATOM     11  C   UNL     1      -1.903   8.830   6.114  0.00  0.00    +0.054 C 
ATOM     12  C   UNL     1      -1.817   9.821   7.272  0.00  0.00    +0.018 C 
ATOM     13  C   UNL     1      -1.648  11.671   5.580  0.00  0.00    +0.114 C 
ATOM     14  C   UNL     1      -3.908  10.911   6.477  0.00  0.00    +0.130 C 
ATOM     15  C   UNL     1      -1.083   9.353   4.916  0.00  0.00    +0.119 C 
ATOM     16  C   UNL     1      -3.343   8.608   5.690  0.00  0.00    +0.027 A 
ATOM     17  C   UNL     1      -3.724   7.427   5.175  0.00  0.00    +0.024 A 
ATOM     18  C   UNL     1      -5.601   9.523   5.377  0.00  0.00    +0.273 A 
ATOM     19  C   UNL     1      -1.890  11.072   3.182  0.00  0.00    +0.306 C 
ATOM     20  C   UNL     1      -5.978   8.200   4.786  0.00  0.00    +0.099 A 
ATOM     21  C   UNL     1      -5.068   7.222   4.714  0.00  0.00    +0.030 A 
ATOM     32  H   UNL     1      -1.058   9.339   2.396  0.00  0.00    +0.156 HD
ENDROOT
BRANCH   8  22
ATOM      1  F   UNL     1      -4.438   9.602  -2.591  0.00  0.00    -0.205 F 
ATOM     22  C   UNL     1      -2.436   9.947   0.998  0.00  0.00    +0.035 A 
ATOM     25  C   UNL     1      -3.821  10.084   0.963  0.00  0.00    +0.026 A 
ATOM     26  C   UNL     1      -1.723   9.694  -0.171  0.00  0.00    +0.026 A 
ATOM     28  C   UNL     1      -4.498   9.967  -0.252  0.00  0.00    +0.040 A 
ATOM     29  C   UNL     1      -2.401   9.578  -1.385  0.00  0.00    +0.040 A 
ATOM     30  C   UNL     1      -3.788   9.715  -1.425  0.00  0.00    +0.124 A 
ENDBRANCH   8  22
BRANCH  20   9
ATOM      4  O   UNL     1      -8.206   7.282   6.335  0.00  0.00    -0.275 OA
ATOM      9  N   UNL     1      -7.258   8.036   4.345  0.00  0.00    -0.281 N 
ATOM     23  C   UNL     1      -8.298   7.585   5.147  0.00  0.00    +0.220 C 
ATOM     33  H   UNL     1      -7.398   8.037   3.337  0.00  0.00    +0.155 HD
BRANCH  23  24
ATOM     24  C   UNL     1      -9.603   7.507   4.369  0.00  0.00    +0.124 C 
BRANCH  24  27
ATOM     27  C   UNL     1      -9.560   6.492   3.237  0.00  0.00    +0.168 C 
BRANCH  27   5
ATOM      5  O   UNL     1      -8.650   5.451   3.570  0.00  0.00    -0.382 OA
ATOM     31  C   UNL     1      -9.332   4.261   3.939  0.00  0.00    +0.194 C 
ENDBRANCH  27   5
ENDBRANCH  24  27
ENDBRANCH  23  24
ENDBRANCH  20   9
TORSDOF 5
ENDMDL
MODEL 8
REMARK VINA RESULT:      -5.7      3.308      6.061
REMARK  Name = 11885926
REMARK  6 active torsions:
REMARK  status: ('A' for Active; 'I' for Inactive)
REMARK    1  A    between atoms: O_5  and  C_27
REMARK    2  A    between atoms: O_5  and  C_31
REMARK    3  A    between atoms: N_8  and  C_22
REMARK    4  A    between atoms: N_9  and  C_20
REMARK    5  A    between atoms: C_23  and  C_24
REMARK    6  A    between atoms: C_24  and  C_27
REMARK                            x       y       z     vdW  Elec       q    Type
REMARK                         _______ _______ _______ _____ _____    ______ ____
ROOT
ATOM      2  O   UNL     1      11.861   9.600  17.118  0.00  0.00    -0.266 OA
ATOM      3  O   UNL     1      12.743  11.373  21.953  0.00  0.00    -0.252 OA
ATOM      6  N   UNL     1      12.795   9.061  22.011  0.00  0.00    -0.284 N 
ATOM      7  N   UNL     1      12.368   8.249  18.956  0.00  0.00    -0.310 N 
ATOM      8  N   UNL     1      14.801  10.305  21.976  0.00  0.00    -0.269 N 
ATOM     10  C   UNL     1      10.798   7.989  20.959  0.00  0.00    +0.027 C 
ATOM     11  C   UNL     1      12.958   6.817  20.944  0.00  0.00    +0.054 C 
ATOM     12  C   UNL     1      11.454   6.624  21.121  0.00  0.00    +0.018 C 
ATOM     13  C   UNL     1      11.333   8.968  22.016  0.00  0.00    +0.114 C 
ATOM     14  C   UNL     1      11.039   8.492  19.531  0.00  0.00    +0.130 C 
ATOM     15  C   UNL     1      13.497   7.764  22.037  0.00  0.00    +0.119 C 
ATOM     16  C   UNL     1      13.278   7.384  19.572  0.00  0.00    +0.027 A 
ATOM     17  C   UNL     1      14.441   7.085  18.970  0.00  0.00    +0.024 A 
ATOM     18  C   UNL     1      12.636   8.847  17.707  0.00  0.00    +0.273 A 
ATOM     19  C   UNL     1      13.407  10.333  21.972  0.00  0.00    +0.306 C 
ATOM     20  C   UNL     1      13.954   8.509  17.083  0.00  0.00    +0.099 A 
ATOM     21  C   UNL     1      14.784   7.662  17.701  0.00  0.00    +0.030 A 
ATOM     32  H   UNL     1      15.264   9.518  22.419  0.00  0.00    +0.156 HD
ENDROOT
BRANCH   8  22
ATOM      1  F   UNL     1      18.231  14.173  19.985  0.00  0.00    -0.205 F 
ATOM     22  C   UNL     1      15.679  11.292  21.467  0.00  0.00    +0.035 A 
ATOM     25  C   UNL     1      16.225  12.241  22.327  0.00  0.00    +0.026 A 
ATOM     26  C   UNL     1      15.988  11.311  20.110  0.00  0.00    +0.026 A 
ATOM     28  C   UNL     1      17.089  13.215  21.825  0.00  0.00    +0.040 A 
ATOM     29  C   UNL     1      16.852  12.285  19.609  0.00  0.00    +0.040 A 
ATOM     30  C   UNL     1      17.402  13.237  20.467  0.00  0.00    +0.124 A 
ENDBRANCH   8  22
BRANCH  20   9
ATOM      4  O   UNL     1      15.144  11.083  16.676  0.00  0.00    -0.275 OA
ATOM      9  N   UNL     1      14.259   9.080  15.882  0.00  0.00    -0.281 N 
ATOM     23  C   UNL     1      14.836  10.336  15.750  0.00  0.00    +0.220 C 
ATOM     33  H   UNL     1      13.844   8.656  15.055  0.00  0.00    +0.155 HD
BRANCH  23  24
ATOM     24  C   UNL     1      15.053  10.695  14.287  0.00  0.00    +0.124 C 
BRANCH  24  27
ATOM     27  C   UNL     1      14.460  12.044  13.912  0.00  0.00    +0.168 C 
BRANCH  27   5
ATOM      5  O   UNL     1      13.401  11.852  12.981  0.00  0.00    -0.382 OA
ATOM     31  C   UNL     1      12.464  12.918  13.031  0.00  0.00    +0.194 C 
ENDBRANCH  27   5
ENDBRANCH  24  27
ENDBRANCH  23  24
ENDBRANCH  20   9
TORSDOF 5
ENDMDL
MODEL 9
REMARK VINA RESULT:      -5.7      2.321      3.553
REMARK  Name = 11885926
REMARK  6 active torsions:
REMARK  status: ('A' for Active; 'I' for Inactive)
REMARK    1  A    between atoms: O_5  and  C_27
REMARK    2  A    between atoms: O_5  and  C_31
REMARK    3  A    between atoms: N_8  and  C_22
REMARK    4  A    between atoms: N_9  and  C_20
REMARK    5  A    between atoms: C_23  and  C_24
REMARK    6  A    between atoms: C_24  and  C_27
REMARK                            x       y       z     vdW  Elec       q    Type
REMARK                         _______ _______ _______ _____ _____    ______ ____
ROOT
ATOM      2  O   UNL     1      14.668  11.079  25.123  0.00  0.00    -0.266 OA
ATOM      3  O   UNL     1      13.072   7.495  21.672  0.00  0.00    -0.252 OA
ATOM      6  N   UNL     1      12.472   9.584  20.875  0.00  0.00    -0.284 N 
ATOM      7  N   UNL     1      13.663  11.568  23.071  0.00  0.00    -0.310 N 
ATOM      8  N   UNL     1      14.382   8.482  20.033  0.00  0.00    -0.269 N 
ATOM     10  C   UNL     1      11.232  10.972  22.543  0.00  0.00    +0.027 C 
ATOM     11  C   UNL     1      12.617  12.069  20.834  0.00  0.00    +0.054 C 
ATOM     12  C   UNL     1      11.293  12.158  21.589  0.00  0.00    +0.018 C 
ATOM     13  C   UNL     1      11.305   9.652  21.758  0.00  0.00    +0.114 C 
ATOM     14  C   UNL     1      12.364  11.098  23.568  0.00  0.00    +0.130 C 
ATOM     15  C   UNL     1      12.664  10.764  20.012  0.00  0.00    +0.119 C 
ATOM     16  C   UNL     1      13.795  12.115  21.790  0.00  0.00    +0.027 A 
ATOM     17  C   UNL     1      14.966  12.644  21.398  0.00  0.00    +0.024 A 
ATOM     18  C   UNL     1      14.740  11.534  23.982  0.00  0.00    +0.273 A 
ATOM     19  C   UNL     1      13.306   8.444  20.918  0.00  0.00    +0.306 C 
ATOM     20  C   UNL     1      16.033  12.110  23.497  0.00  0.00    +0.099 A 
ATOM     21  C   UNL     1      16.106  12.639  22.270  0.00  0.00    +0.030 A 
ATOM     32  H   UNL     1      14.285   9.024  19.180  0.00  0.00    +0.156 HD
ENDROOT
BRANCH   8  22
ATOM      1  F   UNL     1      19.210   5.805  20.506  0.00  0.00    -0.205 F 
ATOM     22  C   UNL     1      15.615   7.797  20.155  0.00  0.00    +0.035 A 
ATOM     25  C   UNL     1      16.551   8.220  21.094  0.00  0.00    +0.026 A 
ATOM     26  C   UNL     1      15.886   6.706  19.332  0.00  0.00    +0.026 A 
ATOM     28  C   UNL     1      17.767   7.545  21.213  0.00  0.00    +0.040 A 
ATOM     29  C   UNL     1      17.102   6.033  19.452  0.00  0.00    +0.040 A 
ATOM     30  C   UNL     1      18.042   6.453  20.392  0.00  0.00    +0.124 A 
ENDBRANCH   8  22
BRANCH  20   9
ATOM      4  O   UNL     1      16.809  14.172  25.327  0.00  0.00    -0.275 OA
ATOM      9  N   UNL     1      17.103  12.082  24.341  0.00  0.00    -0.281 N 
ATOM     23  C   UNL     1      17.430  13.117  25.208  0.00  0.00    +0.220 C 
ATOM     33  H   UNL     1      17.807  11.368  24.165  0.00  0.00    +0.155 HD
BRANCH  23  24
ATOM     24  C   UNL     1      18.676  12.791  26.017  0.00  0.00    +0.124 C 
BRANCH  24  27
ATOM     27  C   UNL     1      18.360  12.177  27.373  0.00  0.00    +0.168 C 
BRANCH  27   5
ATOM      5  O   UNL     1      17.237  11.312  27.249  0.00  0.00    -0.382 OA
ATOM     31  C   UNL     1      16.569  11.145  28.491  0.00  0.00    +0.194 C 
ENDBRANCH  27   5
ENDBRANCH  24  27
ENDBRANCH  23  24
ENDBRANCH  20   9
TORSDOF 5
ENDMDL
MODEL 10
REMARK VINA RESULT:      -5.6     28.879     30.798
REMARK  Name = 11885926
REMARK  6 active torsions:
REMARK  status: ('A' for Active; 'I' for Inactive)
REMARK    1  A    between atoms: O_5  and  C_27
REMARK    2  A    between atoms: O_5  and  C_31
REMARK    3  A    between atoms: N_8  and  C_22
REMARK    4  A    between atoms: N_9  and  C_20
REMARK    5  A    between atoms: C_23  and  C_24
REMARK    6  A    between atoms: C_24  and  C_27
REMARK                            x       y       z     vdW  Elec       q    Type
REMARK                         _______ _______ _______ _____ _____    ______ ____
ROOT
ATOM      2  O   UNL     1      -4.268 -14.800  14.187  0.00  0.00    -0.266 OA
ATOM      3  O   UNL     1      -7.630 -10.876  13.415  0.00  0.00    -0.252 OA
ATOM      6  N   UNL     1      -6.409 -10.415  15.326  0.00  0.00    -0.284 N 
ATOM      7  N   UNL     1      -4.370 -12.864  15.492  0.00  0.00    -0.310 N 
ATOM      8  N   UNL     1      -5.863  -9.381  13.275  0.00  0.00    -0.269 N 
ATOM     10  C   UNL     1      -6.379 -12.297  16.971  0.00  0.00    +0.027 C 
ATOM     11  C   UNL     1      -4.473 -10.749  16.857  0.00  0.00    +0.054 C 
ATOM     12  C   UNL     1      -5.367 -11.532  17.815  0.00  0.00    +0.018 C 
ATOM     13  C   UNL     1      -7.226 -11.320  16.139  0.00  0.00    +0.114 C 
ATOM     14  C   UNL     1      -5.634 -13.309  16.093  0.00  0.00    +0.130 C 
ATOM     15  C   UNL     1      -5.323  -9.738  16.058  0.00  0.00    +0.119 C 
ATOM     16  C   UNL     1      -3.750 -11.679  15.900  0.00  0.00    +0.027 A 
ATOM     17  C   UNL     1      -2.539 -11.350  15.421  0.00  0.00    +0.024 A 
ATOM     18  C   UNL     1      -3.769 -13.739  14.563  0.00  0.00    +0.273 A 
ATOM     19  C   UNL     1      -6.698 -10.270  13.951  0.00  0.00    +0.306 C 
ATOM     20  C   UNL     1      -2.432 -13.323  14.034  0.00  0.00    +0.099 A 
ATOM     21  C   UNL     1      -1.869 -12.190  14.469  0.00  0.00    +0.030 A 
ATOM     32  H   UNL     1      -5.442  -8.623  13.802  0.00  0.00    +0.156 HD
ENDROOT
BRANCH   8  22
ATOM      1  F   UNL     1      -4.668  -9.353   7.866  0.00  0.00    -0.205 F 
ATOM     22  C   UNL     1      -5.558  -9.375  11.893  0.00  0.00    +0.035 A 
ATOM     25  C   UNL     1      -4.356  -9.917  11.447  0.00  0.00    +0.026 A 
ATOM     26  C   UNL     1      -6.462  -8.826  10.987  0.00  0.00    +0.026 A 
ATOM     28  C   UNL     1      -4.055  -9.909  10.085  0.00  0.00    +0.040 A 
ATOM     29  C   UNL     1      -6.161  -8.819   9.625  0.00  0.00    +0.040 A 
ATOM     30  C   UNL     1      -4.957  -9.361   9.174  0.00  0.00    +0.124 A 
ENDBRANCH   8  22
BRANCH  20   9
ATOM      4  O   UNL     1      -1.161 -15.833  14.571  0.00  0.00    -0.275 OA
ATOM      9  N   UNL     1      -1.824 -14.134  13.122  0.00  0.00    -0.281 N 
ATOM     23  C   UNL     1      -1.222 -15.343  13.445  0.00  0.00    +0.220 C 
ATOM     33  H   UNL     1      -1.615 -13.726  12.214  0.00  0.00    +0.155 HD
BRANCH  23  24
ATOM     24  C   UNL     1      -0.630 -16.014  12.215  0.00  0.00    +0.124 C 
BRANCH  24  27
ATOM     27  C   UNL     1      -1.679 -16.692  11.345  0.00  0.00    +0.168 C 
BRANCH  27   5
ATOM      5  O   UNL     1      -2.586 -15.714  10.851  0.00  0.00    -0.382 OA
ATOM     31  C   UNL     1      -3.929 -16.174  10.906  0.00  0.00    +0.194 C 
ENDBRANCH  27   5
ENDBRANCH  24  27
ENDBRANCH  23  24
ENDBRANCH  20   9
TORSDOF 5
ENDMDL
