MODEL 1
REMARK VINA RESULT:      -7.3      0.000      0.000
REMARK  Name = 11911936
REMARK  5 active torsions:
REMARK  status: ('A' for Active; 'I' for Inactive)
REMARK    1  A    between atoms: N_4  and  C_10
REMARK    2  A    between atoms: N_5  and  C_11
REMARK    3  A    between atoms: C_14  and  C_16
REMARK    4  A    between atoms: C_15  and  C_19
REMARK    5  A    between atoms: C_19  and  C_23
REMARK                            x       y       z     vdW  Elec       q    Type
REMARK                         _______ _______ _______ _____ _____    ______ ____
ROOT
ATOM      1  O   UNL     1     -17.337   6.672  23.009  0.00  0.00    -0.370 OA
ATOM      2  O   UNL     1     -15.751   4.799  21.042  0.00  0.00    -0.370 OA
ATOM      8  C   UNL     1     -15.736   4.990  22.469  0.00  0.00    +0.175 C 
ATOM      9  C   UNL     1     -15.944   6.470  22.725  0.00  0.00    +0.171 C 
ATOM     10  C   UNL     1     -16.945   4.318  23.091  0.00  0.00    +0.166 C 
ATOM     11  C   UNL     1     -15.576   7.132  21.417  0.00  0.00    +0.130 C 
ATOM     12  C   UNL     1     -18.011   5.406  23.032  0.00  0.00    +0.190 C 
ATOM     13  C   UNL     1     -15.945   6.067  20.400  0.00  0.00    +0.185 C 
ENDROOT
BRANCH  10   4
ATOM      4  N   UNL     1     -16.667   3.793  24.431  0.00  0.00    -0.244 N 
ATOM      6  N   UNL     1     -16.194   2.568  24.634  0.00  0.00    -0.065 NA
ATOM      7  N   UNL     1     -16.052   2.409  25.960  0.00  0.00    -0.134 NA
ATOM     22  C   UNL     1     -16.816   4.392  25.650  0.00  0.00    +0.134 A 
ATOM     23  C   UNL     1     -16.430   3.525  26.642  0.00  0.00    +0.083 A 
BRANCH  23  19
ATOM     19  C   UNL     1     -16.386   3.652  28.131  0.00  0.00    +0.062 C 
BRANCH  19  15
ATOM     15  C   UNL     1     -15.506   2.584  28.779  0.00  0.00    -0.005 C 
ATOM     20  C   UNL     1     -16.366   1.475  29.398  0.00  0.00    +0.004 C 
ATOM     21  C   UNL     1     -14.580   3.209  29.831  0.00  0.00    +0.004 C 
ATOM     26  C   UNL     1     -15.511   0.422  30.098  0.00  0.00    +0.000 C 
ATOM     27  C   UNL     1     -13.727   2.153  30.530  0.00  0.00    +0.000 C 
ATOM     29  C   UNL     1     -14.585   1.048  31.137  0.00  0.00    +0.000 C 
ENDBRANCH  19  15
ENDBRANCH  23  19
ENDBRANCH  10   4
BRANCH  11   5
ATOM      3  O   UNL     1     -14.327   9.530  20.357  0.00  0.00    -0.276 OA
ATOM      5  N   UNL     1     -14.166   7.437  21.363  0.00  0.00    -0.307 N 
ATOM     16  C   UNL     1     -13.663   8.615  20.836  0.00  0.00    +0.216 C 
ATOM     30  H   UNL     1     -13.525   6.777  21.795  0.00  0.00    +0.149 HD
BRANCH  16  14
ATOM     14  C   UNL     1     -12.166   8.688  20.928  0.00  0.00    +0.075 C 
ATOM     17  C   UNL     1     -11.647   9.885  20.128  0.00  0.00    +0.013 C 
ATOM     18  C   UNL     1     -11.524   7.368  20.499  0.00  0.00    +0.013 C 
ATOM     24  C   UNL     1     -11.657   9.647  18.620  0.00  0.00    +0.001 C 
ATOM     25  C   UNL     1     -11.515   7.159  18.984  0.00  0.00    +0.001 C 
ATOM     28  C   UNL     1     -10.931   8.359  18.248  0.00  0.00    +0.000 C 
ENDBRANCH  16  14
ENDBRANCH  11   5
TORSDOF 5
ENDMDL
MODEL 2
REMARK VINA RESULT:      -7.2     26.298     29.804
REMARK  Name = 11911936
REMARK  5 active torsions:
REMARK  status: ('A' for Active; 'I' for Inactive)
REMARK    1  A    between atoms: N_4  and  C_10
REMARK    2  A    between atoms: N_5  and  C_11
REMARK    3  A    between atoms: C_14  and  C_16
REMARK    4  A    between atoms: C_15  and  C_19
REMARK    5  A    between atoms: C_19  and  C_23
REMARK                            x       y       z     vdW  Elec       q    Type
REMARK                         _______ _______ _______ _____ _____    ______ ____
ROOT
ATOM      1  O   UNL     1      13.446   8.077  21.480  0.00  0.00    -0.370 OA
ATOM      2  O   UNL     1      10.334   8.174  21.039  0.00  0.00    -0.370 OA
ATOM      8  C   UNL     1      11.459   8.736  20.340  0.00  0.00    +0.175 C 
ATOM      9  C   UNL     1      12.482   9.136  21.385  0.00  0.00    +0.171 C 
ATOM     10  C   UNL     1      12.147   7.660  19.521  0.00  0.00    +0.166 C 
ATOM     11  C   UNL     1      11.686   9.237  22.667  0.00  0.00    +0.130 C 
ATOM     12  C   UNL     1      13.149   7.068  20.505  0.00  0.00    +0.190 C 
ATOM     13  C   UNL     1      10.591   8.209  22.450  0.00  0.00    +0.185 C 
ENDROOT
BRANCH  10   4
ATOM      4  N   UNL     1      12.728   8.184  18.281  0.00  0.00    -0.244 N 
ATOM      6  N   UNL     1      13.267   7.396  17.357  0.00  0.00    -0.065 NA
ATOM      7  N   UNL     1      13.698   8.187  16.361  0.00  0.00    -0.134 NA
ATOM     22  C   UNL     1      12.831   9.475  17.845  0.00  0.00    +0.134 A 
ATOM     23  C   UNL     1      13.448   9.500  16.619  0.00  0.00    +0.083 A 
BRANCH  23  19
ATOM     19  C   UNL     1      13.814  10.619  15.697  0.00  0.00    +0.062 C 
BRANCH  19  15
ATOM     15  C   UNL     1      15.269  11.055  15.862  0.00  0.00    -0.005 C 
ATOM     20  C   UNL     1      15.369  12.266  16.799  0.00  0.00    +0.004 C 
ATOM     21  C   UNL     1      15.899  11.367  14.497  0.00  0.00    +0.004 C 
ATOM     26  C   UNL     1      16.809  12.754  16.937  0.00  0.00    +0.000 C 
ATOM     27  C   UNL     1      17.338  11.856  14.639  0.00  0.00    +0.000 C 
ATOM     29  C   UNL     1      17.435  13.055  15.579  0.00  0.00    +0.000 C 
ENDBRANCH  19  15
ENDBRANCH  23  19
ENDBRANCH  10   4
BRANCH  11   5
ATOM      3  O   UNL     1      11.276  10.670  25.159  0.00  0.00    -0.276 OA
ATOM      5  N   UNL     1      11.135  10.559  22.838  0.00  0.00    -0.307 N 
ATOM     16  C   UNL     1      10.977  11.163  24.075  0.00  0.00    +0.216 C 
ATOM     30  H   UNL     1      10.914  11.090  21.999  0.00  0.00    +0.149 HD
BRANCH  16  14
ATOM     14  C   UNL     1      10.405  12.547  23.966  0.00  0.00    +0.075 C 
ATOM     17  C   UNL     1      11.034  13.285  22.782  0.00  0.00    +0.013 C 
ATOM     18  C   UNL     1      10.554  13.309  25.284  0.00  0.00    +0.013 C 
ATOM     24  C   UNL     1      12.453  13.772  23.065  0.00  0.00    +0.001 C 
ATOM     25  C   UNL     1      11.974  13.814  25.538  0.00  0.00    +0.001 C 
ATOM     28  C   UNL     1      12.522  14.593  24.347  0.00  0.00    +0.000 C 
ENDBRANCH  16  14
ENDBRANCH  11   5
TORSDOF 5
ENDMDL
MODEL 3
REMARK VINA RESULT:      -7.0     27.481     31.134
REMARK  Name = 11911936
REMARK  5 active torsions:
REMARK  status: ('A' for Active; 'I' for Inactive)
REMARK    1  A    between atoms: N_4  and  C_10
REMARK    2  A    between atoms: N_5  and  C_11
REMARK    3  A    between atoms: C_14  and  C_16
REMARK    4  A    between atoms: C_15  and  C_19
REMARK    5  A    between atoms: C_19  and  C_23
REMARK                            x       y       z     vdW  Elec       q    Type
REMARK                         _______ _______ _______ _____ _____    ______ ____
ROOT
ATOM      1  O   UNL     1      12.473   7.151  21.387  0.00  0.00    -0.370 OA
ATOM      2  O   UNL     1      13.001  10.010  20.187  0.00  0.00    -0.370 OA
ATOM      8  C   UNL     1      13.835   9.024  20.822  0.00  0.00    +0.175 C 
ATOM      9  C   UNL     1      13.009   8.374  21.915  0.00  0.00    +0.171 C 
ATOM     10  C   UNL     1      14.137   7.901  19.849  0.00  0.00    +0.166 C 
ATOM     11  C   UNL     1      11.897   9.363  22.180  0.00  0.00    +0.130 C 
ATOM     12  C   UNL     1      12.971   6.941  20.059  0.00  0.00    +0.190 C 
ATOM     13  C   UNL     1      11.715  10.018  20.824  0.00  0.00    +0.185 C 
ENDROOT
BRANCH  10   4
ATOM      4  N   UNL     1      15.467   7.319  20.058  0.00  0.00    -0.244 N 
ATOM      6  N   UNL     1      16.050   6.531  19.161  0.00  0.00    -0.065 NA
ATOM      7  N   UNL     1      17.246   6.177  19.659  0.00  0.00    -0.134 NA
ATOM     22  C   UNL     1      16.318   7.451  21.118  0.00  0.00    +0.134 A 
ATOM     23  C   UNL     1      17.461   6.728  20.885  0.00  0.00    +0.083 A 
BRANCH  23  19
ATOM     19  C   UNL     1      18.703   6.517  21.692  0.00  0.00    +0.062 C 
BRANCH  19  15
ATOM     15  C   UNL     1      19.965   6.545  20.831  0.00  0.00    -0.005 C 
ATOM     20  C   UNL     1      20.853   5.331  21.132  0.00  0.00    +0.004 C 
ATOM     21  C   UNL     1      20.738   7.854  21.046  0.00  0.00    +0.004 C 
ATOM     26  C   UNL     1      22.147   5.364  20.323  0.00  0.00    +0.000 C 
ATOM     27  C   UNL     1      22.032   7.883  20.236  0.00  0.00    +0.000 C 
ATOM     29  C   UNL     1      22.909   6.670  20.531  0.00  0.00    +0.000 C 
ENDBRANCH  19  15
ENDBRANCH  23  19
ENDBRANCH  10   4
BRANCH  11   5
ATOM      3  O   UNL     1      10.148  11.015  23.807  0.00  0.00    -0.276 OA
ATOM      5  N   UNL     1      12.283  10.330  23.180  0.00  0.00    -0.307 N 
ATOM     16  C   UNL     1      11.371  11.075  23.909  0.00  0.00    +0.216 C 
ATOM     30  H   UNL     1      13.272  10.414  23.396  0.00  0.00    +0.149 HD
BRANCH  16  14
ATOM     14  C   UNL     1      12.039  11.986  24.898  0.00  0.00    +0.075 C 
ATOM     17  C   UNL     1      10.992  12.839  25.619  0.00  0.00    +0.013 C 
ATOM     18  C   UNL     1      13.125  12.827  24.225  0.00  0.00    +0.013 C 
ATOM     24  C   UNL     1      10.455  13.981  24.758  0.00  0.00    +0.001 C 
ATOM     25  C   UNL     1      12.571  13.982  23.391  0.00  0.00    +0.001 C 
ATOM     28  C   UNL     1      11.582  14.831  24.183  0.00  0.00    +0.000 C 
ENDBRANCH  16  14
ENDBRANCH  11   5
TORSDOF 5
ENDMDL
MODEL 4
REMARK VINA RESULT:      -6.8     20.676     23.732
REMARK  Name = 11911936
REMARK  5 active torsions:
REMARK  status: ('A' for Active; 'I' for Inactive)
REMARK    1  A    between atoms: N_4  and  C_10
REMARK    2  A    between atoms: N_5  and  C_11
REMARK    3  A    between atoms: C_14  and  C_16
REMARK    4  A    between atoms: C_15  and  C_19
REMARK    5  A    between atoms: C_19  and  C_23
REMARK                            x       y       z     vdW  Elec       q    Type
REMARK                         _______ _______ _______ _____ _____    ______ ____
ROOT
ATOM      1  O   UNL     1      -1.839  -9.873  13.289  0.00  0.00    -0.370 OA
ATOM      2  O   UNL     1      -2.282 -12.947  12.791  0.00  0.00    -0.370 OA
ATOM      8  C   UNL     1      -3.080 -11.771  12.557  0.00  0.00    +0.175 C 
ATOM      9  C   UNL     1      -2.829 -10.822  13.712  0.00  0.00    +0.171 C 
ATOM     10  C   UNL     1      -2.567 -11.035  11.334  0.00  0.00    +0.166 C 
ATOM     11  C   UNL     1      -2.276 -11.704  14.808  0.00  0.00    +0.130 C 
ATOM     12  C   UNL     1      -1.505 -10.107  11.914  0.00  0.00    +0.190 C 
ATOM     13  C   UNL     1      -1.562 -12.788  14.021  0.00  0.00    +0.185 C 
ENDROOT
BRANCH  10   4
ATOM      4  N   UNL     1      -3.638 -10.366  10.591  0.00  0.00    -0.244 N 
ATOM      6  N   UNL     1      -3.433  -9.262   9.881  0.00  0.00    -0.065 NA
ATOM      7  N   UNL     1      -4.608  -8.917   9.332  0.00  0.00    -0.134 NA
ATOM     22  C   UNL     1      -4.958 -10.701  10.474  0.00  0.00    +0.134 A 
ATOM     23  C   UNL     1      -5.597  -9.788   9.674  0.00  0.00    +0.083 A 
BRANCH  23  19
ATOM     19  C   UNL     1      -7.016  -9.666   9.216  0.00  0.00    +0.062 C 
BRANCH  19  15
ATOM     15  C   UNL     1      -7.204  -8.538   8.202  0.00  0.00    -0.005 C 
ATOM     20  C   UNL     1      -8.325  -7.591   8.648  0.00  0.00    +0.004 C 
ATOM     21  C   UNL     1      -7.491  -9.107   6.806  0.00  0.00    +0.004 C 
ATOM     26  C   UNL     1      -8.568  -6.485   7.624  0.00  0.00    +0.000 C 
ATOM     27  C   UNL     1      -7.735  -7.998   5.785  0.00  0.00    +0.000 C 
ATOM     29  C   UNL     1      -8.845  -7.053   6.235  0.00  0.00    +0.000 C 
ENDBRANCH  19  15
ENDBRANCH  23  19
ENDBRANCH  10   4
BRANCH  11   5
ATOM      3  O   UNL     1      -4.020 -10.284  16.645  0.00  0.00    -0.276 OA
ATOM      5  N   UNL     1      -3.333 -12.258  15.618  0.00  0.00    -0.307 N 
ATOM     16  C   UNL     1      -4.117 -11.496  16.470  0.00  0.00    +0.216 C 
ATOM     30  H   UNL     1      -3.547 -13.245  15.503  0.00  0.00    +0.149 HD
BRANCH  16  14
ATOM     14  C   UNL     1      -5.159 -12.317  17.174  0.00  0.00    +0.075 C 
ATOM     17  C   UNL     1      -6.474 -11.539  17.257  0.00  0.00    +0.013 C 
ATOM     18  C   UNL     1      -4.659 -12.782  18.543  0.00  0.00    +0.013 C 
ATOM     24  C   UNL     1      -6.456 -10.443  18.321  0.00  0.00    +0.001 C 
ATOM     25  C   UNL     1      -4.675 -11.680  19.603  0.00  0.00    +0.001 C 
ATOM     28  C   UNL     1      -6.029 -10.985  19.681  0.00  0.00    +0.000 C 
ENDBRANCH  16  14
ENDBRANCH  11   5
TORSDOF 5
ENDMDL
MODEL 5
REMARK VINA RESULT:      -6.8     19.347     21.924
REMARK  Name = 11911936
REMARK  5 active torsions:
REMARK  status: ('A' for Active; 'I' for Inactive)
REMARK    1  A    between atoms: N_4  and  C_10
REMARK    2  A    between atoms: N_5  and  C_11
REMARK    3  A    between atoms: C_14  and  C_16
REMARK    4  A    between atoms: C_15  and  C_19
REMARK    5  A    between atoms: C_19  and  C_23
REMARK                            x       y       z     vdW  Elec       q    Type
REMARK                         _______ _______ _______ _____ _____    ______ ____
ROOT
ATOM      1  O   UNL     1      -5.005 -10.440  18.145  0.00  0.00    -0.370 OA
ATOM      2  O   UNL     1      -6.284 -12.955  16.754  0.00  0.00    -0.370 OA
ATOM      8  C   UNL     1      -5.548 -11.815  16.275  0.00  0.00    +0.175 C 
ATOM      9  C   UNL     1      -5.978 -10.621  17.104  0.00  0.00    +0.171 C 
ATOM     10  C   UNL     1      -4.072 -11.986  16.583  0.00  0.00    +0.166 C 
ATOM     11  C   UNL     1      -7.306 -11.037  17.696  0.00  0.00    +0.130 C 
ATOM     12  C   UNL     1      -3.943 -11.388  17.980  0.00  0.00    +0.190 C 
ATOM     13  C   UNL     1      -7.148 -12.541  17.822  0.00  0.00    +0.185 C 
ENDROOT
BRANCH  10   4
ATOM      4  N   UNL     1      -3.212 -11.379  15.564  0.00  0.00    -0.244 N 
ATOM      6  N   UNL     1      -2.111 -10.701  15.871  0.00  0.00    -0.065 NA
ATOM      7  N   UNL     1      -1.563 -10.286  14.718  0.00  0.00    -0.134 NA
ATOM     22  C   UNL     1      -3.338 -11.380  14.203  0.00  0.00    +0.134 A 
ATOM     23  C   UNL     1      -2.296 -10.686  13.642  0.00  0.00    +0.083 A 
BRANCH  23  19
ATOM     19  C   UNL     1      -1.938 -10.375  12.223  0.00  0.00    +0.062 C 
BRANCH  19  15
ATOM     15  C   UNL     1      -3.169 -10.280  11.323  0.00  0.00    -0.005 C 
ATOM     20  C   UNL     1      -3.454 -11.629  10.650  0.00  0.00    +0.004 C 
ATOM     21  C   UNL     1      -2.988  -9.174  10.274  0.00  0.00    +0.004 C 
ATOM     26  C   UNL     1      -4.649 -11.545   9.703  0.00  0.00    +0.000 C 
ATOM     27  C   UNL     1      -4.183  -9.093   9.328  0.00  0.00    +0.000 C 
ATOM     29  C   UNL     1      -4.470 -10.439   8.667  0.00  0.00    +0.000 C 
ENDBRANCH  19  15
ENDBRANCH  23  19
ENDBRANCH  10   4
BRANCH  11   5
ATOM      3  O   UNL     1     -10.089 -10.627  18.417  0.00  0.00    -0.276 OA
ATOM      5  N   UNL     1      -8.399 -10.699  16.817  0.00  0.00    -0.307 N 
ATOM     16  C   UNL     1      -9.702 -10.523  17.256  0.00  0.00    +0.216 C 
ATOM     30  H   UNL     1      -8.181 -10.521  15.840  0.00  0.00    +0.149 HD
BRANCH  16  14
ATOM     14  C   UNL     1     -10.635 -10.151  16.140  0.00  0.00    +0.075 C 
ATOM     17  C   UNL     1     -10.005  -9.064  15.266  0.00  0.00    +0.013 C 
ATOM     18  C   UNL     1     -12.009  -9.752  16.682  0.00  0.00    +0.013 C 
ATOM     24  C   UNL     1     -10.044  -7.680  15.911  0.00  0.00    +0.001 C 
ATOM     25  C   UNL     1     -12.037  -8.353  17.298  0.00  0.00    +0.001 C 
ATOM     28  C   UNL     1     -11.453  -7.306  16.356  0.00  0.00    +0.000 C 
ENDBRANCH  16  14
ENDBRANCH  11   5
TORSDOF 5
ENDMDL
MODEL 6
REMARK VINA RESULT:      -6.6      6.628     11.326
REMARK  Name = 11911936
REMARK  5 active torsions:
REMARK  status: ('A' for Active; 'I' for Inactive)
REMARK    1  A    between atoms: N_4  and  C_10
REMARK    2  A    between atoms: N_5  and  C_11
REMARK    3  A    between atoms: C_14  and  C_16
REMARK    4  A    between atoms: C_15  and  C_19
REMARK    5  A    between atoms: C_19  and  C_23
REMARK                            x       y       z     vdW  Elec       q    Type
REMARK                         _______ _______ _______ _____ _____    ______ ____
ROOT
ATOM      1  O   UNL     1     -15.737   7.486  32.488  0.00  0.00    -0.370 OA
ATOM      2  O   UNL     1     -13.832   5.532  34.052  0.00  0.00    -0.370 OA
ATOM      8  C   UNL     1     -13.628   6.506  33.012  0.00  0.00    +0.175 C 
ATOM      9  C   UNL     1     -14.834   6.441  32.095  0.00  0.00    +0.171 C 
ATOM     10  C   UNL     1     -13.666   7.903  33.600  0.00  0.00    +0.166 C 
ATOM     11  C   UNL     1     -15.445   5.087  32.375  0.00  0.00    +0.130 C 
ATOM     12  C   UNL     1     -15.147   8.261  33.540  0.00  0.00    +0.190 C 
ATOM     13  C   UNL     1     -15.082   4.864  33.832  0.00  0.00    +0.185 C 
ENDROOT
BRANCH  10   4
ATOM      4  N   UNL     1     -12.774   8.831  32.898  0.00  0.00    -0.244 N 
ATOM      6  N   UNL     1     -11.599   9.205  33.395  0.00  0.00    -0.065 NA
ATOM      7  N   UNL     1     -11.043  10.048  32.510  0.00  0.00    -0.134 NA
ATOM     22  C   UNL     1     -12.938   9.453  31.693  0.00  0.00    +0.134 A 
ATOM     23  C   UNL     1     -11.843  10.237  31.425  0.00  0.00    +0.083 A 
BRANCH  23  19
ATOM     19  C   UNL     1     -11.495  11.123  30.271  0.00  0.00    +0.062 C 
BRANCH  19  15
ATOM     15  C   UNL     1     -11.751  10.449  28.924  0.00  0.00    -0.005 C 
ATOM     20  C   UNL     1     -10.576  10.686  27.967  0.00  0.00    +0.004 C 
ATOM     21  C   UNL     1     -13.066  10.949  28.310  0.00  0.00    +0.004 C 
ATOM     26  C   UNL     1     -10.832  10.067  26.596  0.00  0.00    +0.000 C 
ATOM     27  C   UNL     1     -13.318  10.328  26.938  0.00  0.00    +0.000 C 
ATOM     29  C   UNL     1     -12.144  10.559  25.991  0.00  0.00    +0.000 C 
ENDBRANCH  19  15
ENDBRANCH  23  19
ENDBRANCH  10   4
BRANCH  11   5
ATOM      3  O   UNL     1     -16.556   3.981  29.931  0.00  0.00    -0.276 OA
ATOM      5  N   UNL     1     -14.868   4.068  31.532  0.00  0.00    -0.307 N 
ATOM     16  C   UNL     1     -15.477   3.602  30.378  0.00  0.00    +0.216 C 
ATOM     30  H   UNL     1     -13.940   3.728  31.771  0.00  0.00    +0.149 HD
BRANCH  16  14
ATOM     14  C   UNL     1     -14.652   2.562  29.676  0.00  0.00    +0.075 C 
ATOM     17  C   UNL     1     -15.552   1.655  28.834  0.00  0.00    +0.013 C 
ATOM     18  C   UNL     1     -13.791   1.781  30.671  0.00  0.00    +0.013 C 
ATOM     24  C   UNL     1     -16.328   0.639  29.670  0.00  0.00    +0.001 C 
ATOM     25  C   UNL     1     -14.578   0.748  31.478  0.00  0.00    +0.001 C 
ATOM     28  C   UNL     1     -15.406  -0.164  30.580  0.00  0.00    +0.000 C 
ENDBRANCH  16  14
ENDBRANCH  11   5
TORSDOF 5
ENDMDL
MODEL 7
REMARK VINA RESULT:      -6.6     19.123     20.670
REMARK  Name = 11911936
REMARK  5 active torsions:
REMARK  status: ('A' for Active; 'I' for Inactive)
REMARK    1  A    between atoms: N_4  and  C_10
REMARK    2  A    between atoms: N_5  and  C_11
REMARK    3  A    between atoms: C_14  and  C_16
REMARK    4  A    between atoms: C_15  and  C_19
REMARK    5  A    between atoms: C_19  and  C_23
REMARK                            x       y       z     vdW  Elec       q    Type
REMARK                         _______ _______ _______ _____ _____    ______ ____
ROOT
ATOM      1  O   UNL     1      -4.997 -12.950  15.033  0.00  0.00    -0.370 OA
ATOM      2  O   UNL     1      -2.871 -10.661  15.399  0.00  0.00    -0.370 OA
ATOM      8  C   UNL     1      -4.275 -10.777  15.694  0.00  0.00    +0.175 C 
ATOM      9  C   UNL     1      -4.902 -11.591  14.580  0.00  0.00    +0.171 C 
ATOM     10  C   UNL     1      -4.472 -11.616  16.942  0.00  0.00    +0.166 C 
ATOM     11  C   UNL     1      -3.915 -11.487  13.439  0.00  0.00    +0.130 C 
ATOM     12  C   UNL     1      -4.547 -13.036  16.392  0.00  0.00    +0.190 C 
ATOM     13  C   UNL     1      -2.592 -11.344  14.169  0.00  0.00    +0.185 C 
ENDROOT
BRANCH  10   4
ATOM      4  N   UNL     1      -5.635 -11.191  17.727  0.00  0.00    -0.244 N 
ATOM      6  N   UNL     1      -5.519 -10.583  18.903  0.00  0.00    -0.065 NA
ATOM      7  N   UNL     1      -6.761 -10.331  19.346  0.00  0.00    -0.134 NA
ATOM     22  C   UNL     1      -6.967 -11.311  17.446  0.00  0.00    +0.134 A 
ATOM     23  C   UNL     1      -7.705 -10.770  18.468  0.00  0.00    +0.083 A 
BRANCH  23  19
ATOM     19  C   UNL     1      -9.179 -10.632  18.684  0.00  0.00    +0.062 C 
BRANCH  19  15
ATOM     15  C   UNL     1      -9.856  -9.830  17.574  0.00  0.00    -0.005 C 
ATOM     20  C   UNL     1      -9.113  -8.511  17.327  0.00  0.00    +0.004 C 
ATOM     21  C   UNL     1     -11.330  -9.572  17.914  0.00  0.00    +0.004 C 
ATOM     26  C   UNL     1      -9.802  -7.667  16.258  0.00  0.00    +0.000 C 
ATOM     27  C   UNL     1     -12.016  -8.727  16.843  0.00  0.00    +0.000 C 
ATOM     29  C   UNL     1     -11.270  -7.419  16.594  0.00  0.00    +0.000 C 
ENDBRANCH  19  15
ENDBRANCH  23  19
ENDBRANCH  10   4
BRANCH  11   5
ATOM      3  O   UNL     1      -3.197 -11.097  10.653  0.00  0.00    -0.276 OA
ATOM      5  N   UNL     1      -4.185 -10.332  12.617  0.00  0.00    -0.307 N 
ATOM     16  C   UNL     1      -3.801 -10.238  11.289  0.00  0.00    +0.216 C 
ATOM     30  H   UNL     1      -4.742  -9.585  13.023  0.00  0.00    +0.149 HD
BRANCH  16  14
ATOM     14  C   UNL     1      -4.229  -8.942  10.662  0.00  0.00    +0.075 C 
ATOM     17  C   UNL     1      -5.700  -8.665  10.979  0.00  0.00    +0.013 C 
ATOM     18  C   UNL     1      -3.937  -8.936   9.161  0.00  0.00    +0.013 C 
ATOM     24  C   UNL     1      -6.662  -9.515  10.151  0.00  0.00    +0.001 C 
ATOM     25  C   UNL     1      -4.925  -9.767   8.344  0.00  0.00    +0.001 C 
ATOM     28  C   UNL     1      -6.372  -9.402   8.659  0.00  0.00    +0.000 C 
ENDBRANCH  16  14
ENDBRANCH  11   5
TORSDOF 5
ENDMDL
MODEL 8
REMARK VINA RESULT:      -6.5     32.885     36.409
REMARK  Name = 11911936
REMARK  5 active torsions:
REMARK  status: ('A' for Active; 'I' for Inactive)
REMARK    1  A    between atoms: N_4  and  C_10
REMARK    2  A    between atoms: N_5  and  C_11
REMARK    3  A    between atoms: C_14  and  C_16
REMARK    4  A    between atoms: C_15  and  C_19
REMARK    5  A    between atoms: C_19  and  C_23
REMARK                            x       y       z     vdW  Elec       q    Type
REMARK                         _______ _______ _______ _____ _____    ______ ____
ROOT
ATOM      1  O   UNL     1      11.664   8.554   3.544  0.00  0.00    -0.370 OA
ATOM      2  O   UNL     1      11.792   6.156   5.575  0.00  0.00    -0.370 OA
ATOM      8  C   UNL     1      12.776   7.044   5.015  0.00  0.00    +0.175 C 
ATOM      9  C   UNL     1      12.376   7.307   3.576  0.00  0.00    +0.171 C 
ATOM     10  C   UNL     1      12.694   8.398   5.692  0.00  0.00    +0.166 C 
ATOM     11  C   UNL     1      11.448   6.165   3.231  0.00  0.00    +0.130 C 
ATOM     12  C   UNL     1      11.658   9.138   4.853  0.00  0.00    +0.190 C 
ATOM     13  C   UNL     1      10.813   5.846   4.572  0.00  0.00    +0.185 C 
ENDROOT
BRANCH  10   4
ATOM      4  N   UNL     1      13.999   9.057   5.792  0.00  0.00    -0.244 N 
ATOM      6  N   UNL     1      14.274   9.960   6.727  0.00  0.00    -0.065 NA
ATOM      7  N   UNL     1      15.543  10.357   6.537  0.00  0.00    -0.134 NA
ATOM     22  C   UNL     1      15.115   8.899   5.019  0.00  0.00    +0.134 A 
ATOM     23  C   UNL     1      16.114   9.722   5.477  0.00  0.00    +0.083 A 
BRANCH  23  19
ATOM     19  C   UNL     1      17.518   9.955   5.019  0.00  0.00    +0.062 C 
BRANCH  19  15
ATOM     15  C   UNL     1      18.471   8.856   5.484  0.00  0.00    -0.005 C 
ATOM     20  C   UNL     1      19.416   9.383   6.573  0.00  0.00    +0.004 C 
ATOM     21  C   UNL     1      19.265   8.289   4.299  0.00  0.00    +0.004 C 
ATOM     26  C   UNL     1      20.414   8.316   7.017  0.00  0.00    +0.000 C 
ATOM     27  C   UNL     1      20.263   7.224   4.748  0.00  0.00    +0.000 C 
ATOM     29  C   UNL     1      21.195   7.748   5.836  0.00  0.00    +0.000 C 
ENDBRANCH  19  15
ENDBRANCH  23  19
ENDBRANCH  10   4
BRANCH  11   5
ATOM      3  O   UNL     1      11.582   5.247   0.479  0.00  0.00    -0.276 OA
ATOM      5  N   UNL     1      12.181   5.032   2.719  0.00  0.00    -0.307 N 
ATOM     16  C   UNL     1      12.185   4.671   1.381  0.00  0.00    +0.216 C 
ATOM     30  H   UNL     1      12.772   4.520   3.369  0.00  0.00    +0.149 HD
BRANCH  16  14
ATOM     14  C   UNL     1      13.048   3.471   1.116  0.00  0.00    +0.075 C 
ATOM     17  C   UNL     1      14.476   3.734   1.601  0.00  0.00    +0.013 C 
ATOM     18  C   UNL     1      12.989   3.066  -0.357  0.00  0.00    +0.013 C 
ATOM     24  C   UNL     1      15.266   4.650   0.668  0.00  0.00    +0.001 C 
ATOM     25  C   UNL     1      13.808   3.976  -1.273  0.00  0.00    +0.001 C 
ATOM     28  C   UNL     1      15.237   4.148  -0.772  0.00  0.00    +0.000 C 
ENDBRANCH  16  14
ENDBRANCH  11   5
TORSDOF 5
ENDMDL
MODEL 9
REMARK VINA RESULT:      -6.4     30.385     34.921
REMARK  Name = 11911936
REMARK  5 active torsions:
REMARK  status: ('A' for Active; 'I' for Inactive)
REMARK    1  A    between atoms: N_4  and  C_10
REMARK    2  A    between atoms: N_5  and  C_11
REMARK    3  A    between atoms: C_14  and  C_16
REMARK    4  A    between atoms: C_15  and  C_19
REMARK    5  A    between atoms: C_19  and  C_23
REMARK                            x       y       z     vdW  Elec       q    Type
REMARK                         _______ _______ _______ _____ _____    ______ ____
ROOT
ATOM      1  O   UNL     1      12.052   6.510   0.086  0.00  0.00    -0.370 OA
ATOM      2  O   UNL     1      12.296   3.529   1.062  0.00  0.00    -0.370 OA
ATOM      8  C   UNL     1      11.311   4.254   0.302  0.00  0.00    +0.175 C 
ATOM      9  C   UNL     1      11.230   5.649   0.890  0.00  0.00    +0.171 C 
ATOM     10  C   UNL     1      11.805   4.462  -1.117  0.00  0.00    +0.166 C 
ATOM     11  C   UNL     1      11.818   5.507   2.275  0.00  0.00    +0.130 C 
ATOM     12  C   UNL     1      12.584   5.769  -1.021  0.00  0.00    +0.190 C 
ATOM     13  C   UNL     1      12.822   4.384   2.087  0.00  0.00    +0.185 C 
ENDROOT
BRANCH  10   4
ATOM      4  N   UNL     1      10.715   4.459  -2.097  0.00  0.00    -0.244 N 
ATOM      6  N   UNL     1      10.089   3.346  -2.464  0.00  0.00    -0.065 NA
ATOM      7  N   UNL     1       9.154   3.692  -3.363  0.00  0.00    -0.134 NA
ATOM     22  C   UNL     1      10.155   5.501  -2.780  0.00  0.00    +0.134 A 
ATOM     23  C   UNL     1       9.155   5.034  -3.596  0.00  0.00    +0.083 A 
BRANCH  23  19
ATOM     19  C   UNL     1       8.228   5.719  -4.549  0.00  0.00    +0.062 C 
BRANCH  19  15
ATOM     15  C   UNL     1       6.771   5.648  -4.093  0.00  0.00    -0.005 C 
ATOM     20  C   UNL     1       5.824   5.666  -5.300  0.00  0.00    +0.004 C 
ATOM     21  C   UNL     1       6.448   6.796  -3.128  0.00  0.00    +0.004 C 
ATOM     26  C   UNL     1       4.360   5.649  -4.868  0.00  0.00    +0.000 C 
ATOM     27  C   UNL     1       4.983   6.777  -2.699  0.00  0.00    +0.000 C 
ATOM     29  C   UNL     1       4.044   6.787  -3.902  0.00  0.00    +0.000 C 
ENDBRANCH  19  15
ENDBRANCH  23  19
ENDBRANCH  10   4
BRANCH  11   5
ATOM      3  O   UNL     1      10.317   7.286   4.011  0.00  0.00    -0.276 OA
ATOM      5  N   UNL     1      10.806   5.145   3.239  0.00  0.00    -0.307 N 
ATOM     16  C   UNL     1      10.140   6.071   4.026  0.00  0.00    +0.216 C 
ATOM     30  H   UNL     1      10.530   4.168   3.288  0.00  0.00    +0.149 HD
BRANCH  16  14
ATOM     14  C   UNL     1       9.121   5.430   4.923  0.00  0.00    +0.075 C 
ATOM     17  C   UNL     1       8.098   6.470   5.385  0.00  0.00    +0.013 C 
ATOM     18  C   UNL     1       9.794   4.703   6.088  0.00  0.00    +0.013 C 
ATOM     24  C   UNL     1       8.638   7.398   6.472  0.00  0.00    +0.001 C 
ATOM     25  C   UNL     1      10.302   5.645   7.181  0.00  0.00    +0.001 C 
ATOM     28  C   UNL     1       9.221   6.615   7.643  0.00  0.00    +0.000 C 
ENDBRANCH  16  14
ENDBRANCH  11   5
TORSDOF 5
ENDMDL
MODEL 10
REMARK VINA RESULT:      -6.4     20.135     23.004
REMARK  Name = 11911936
REMARK  5 active torsions:
REMARK  status: ('A' for Active; 'I' for Inactive)
REMARK    1  A    between atoms: N_4  and  C_10
REMARK    2  A    between atoms: N_5  and  C_11
REMARK    3  A    between atoms: C_14  and  C_16
REMARK    4  A    between atoms: C_15  and  C_19
REMARK    5  A    between atoms: C_19  and  C_23
REMARK                            x       y       z     vdW  Elec       q    Type
REMARK                         _______ _______ _______ _____ _____    ______ ____
ROOT
ATOM      1  O   UNL     1      -2.017 -10.825  15.872  0.00  0.00    -0.370 OA
ATOM      2  O   UNL     1      -4.447 -12.714  15.220  0.00  0.00    -0.370 OA
ATOM      8  C   UNL     1      -3.945 -11.496  14.640  0.00  0.00    +0.175 C 
ATOM      9  C   UNL     1      -3.437 -10.633  15.778  0.00  0.00    +0.171 C 
ATOM     10  C   UNL     1      -2.715 -11.792  13.803  0.00  0.00    +0.166 C 
ATOM     11  C   UNL     1      -4.123 -11.190  17.004  0.00  0.00    +0.130 C 
ATOM     12  C   UNL     1      -1.579 -11.690  14.815  0.00  0.00    +0.190 C 
ATOM     13  C   UNL     1      -4.291 -12.655  16.644  0.00  0.00    +0.185 C 
ENDROOT
BRANCH  10   4
ATOM      4  N   UNL     1      -2.597 -10.903  12.644  0.00  0.00    -0.244 N 
ATOM      6  N   UNL     1      -1.466 -10.274  12.339  0.00  0.00    -0.065 NA
ATOM      7  N   UNL     1      -1.698  -9.551  11.232  0.00  0.00    -0.134 NA
ATOM     22  C   UNL     1      -3.533 -10.560  11.710  0.00  0.00    +0.134 A 
ATOM     23  C   UNL     1      -2.981  -9.696  10.798  0.00  0.00    +0.083 A 
BRANCH  23  19
ATOM     19  C   UNL     1      -3.537  -9.014   9.588  0.00  0.00    +0.062 C 
BRANCH  19  15
ATOM     15  C   UNL     1      -5.006  -9.360   9.352  0.00  0.00    -0.005 C 
ATOM     20  C   UNL     1      -5.211  -9.918   7.937  0.00  0.00    +0.004 C 
ATOM     21  C   UNL     1      -5.897  -8.133   9.589  0.00  0.00    +0.004 C 
ATOM     26  C   UNL     1      -6.681 -10.222   7.658  0.00  0.00    +0.000 C 
ATOM     27  C   UNL     1      -7.366  -8.440   9.308  0.00  0.00    +0.000 C 
ATOM     29  C   UNL     1      -7.565  -9.002   7.904  0.00  0.00    +0.000 C 
ENDBRANCH  19  15
ENDBRANCH  23  19
ENDBRANCH  10   4
BRANCH  11   5
ATOM      3  O   UNL     1      -5.811 -11.382  19.360  0.00  0.00    -0.276 OA
ATOM      5  N   UNL     1      -5.402 -10.557  17.221  0.00  0.00    -0.307 N 
ATOM     16  C   UNL     1      -6.137 -10.708  18.386  0.00  0.00    +0.216 C 
ATOM     30  H   UNL     1      -5.740  -9.920  16.505  0.00  0.00    +0.149 HD
BRANCH  16  14
ATOM     14  C   UNL     1      -7.416  -9.922  18.360  0.00  0.00    +0.075 C 
ATOM     17  C   UNL     1      -8.536 -10.717  19.035  0.00  0.00    +0.013 C 
ATOM     18  C   UNL     1      -7.770  -9.494  16.935  0.00  0.00    +0.013 C 
ATOM     24  C   UNL     1      -9.080 -11.845  18.160  0.00  0.00    +0.001 C 
ATOM     25  C   UNL     1      -8.339 -10.628  16.083  0.00  0.00    +0.001 C 
ATOM     28  C   UNL     1      -9.492 -11.341  16.781  0.00  0.00    +0.000 C 
ENDBRANCH  16  14
ENDBRANCH  11   5
TORSDOF 5
ENDMDL
