MODEL 1
REMARK VINA RESULT:      -6.4      0.000      0.000
REMARK  Name = 38027434
REMARK  14 active torsions:
REMARK  status: ('A' for Active; 'I' for Inactive)
REMARK    1  A    between atoms: N_3  and  C_14
REMARK    2  A    between atoms: N_4  and  C_21
REMARK    3  A    between atoms: N_5  and  C_23
REMARK    4  A    between atoms: N_6  and  C_22
REMARK    5  A    between atoms: N_6  and  C_24
REMARK    6  A    between atoms: N_6  and  C_25
REMARK    7  A    between atoms: C_7  and  C_11
REMARK    8  A    between atoms: C_8  and  C_14
REMARK    9  A    between atoms: C_10  and  C_15
REMARK   10  A    between atoms: C_11  and  C_16
REMARK   11  A    between atoms: C_11  and  C_17
REMARK   12  A    between atoms: C_12  and  C_18
REMARK   13  A    between atoms: C_15  and  C_19
REMARK   14  A    between atoms: C_21  and  C_22
REMARK                            x       y       z     vdW  Elec       q    Type
REMARK                         _______ _______ _______ _____ _____    ______ ____
ROOT
ATOM      7  C   UNL     1      -3.144 -12.408  12.256  0.00  0.00    +0.000 C 
ATOM      8  C   UNL     1      -2.059 -11.304  12.237  0.00  0.00    +0.032 C 
ATOM      9  C   UNL     1      -3.707 -12.631  10.844  0.00  0.00    +0.012 C 
ATOM     10  C   UNL     1      -4.327 -11.349  10.254  0.00  0.00    +0.023 C 
ATOM     12  C   UNL     1      -3.420 -10.149  10.440  0.00  0.00    -0.073 C 
ATOM     13  C   UNL     1      -2.403 -10.152  11.321  0.00  0.00    -0.022 C 
ATOM     18  C   UNL     1      -3.680  -8.962   9.557  0.00  0.00    +0.039 C 
ENDROOT
BRANCH   7  11
ATOM     11  C   UNL     1      -2.601 -13.729  12.812  0.00  0.00    -0.013 C 
ATOM     16  C   UNL     1      -3.444 -14.195  13.994  0.00  0.00    +0.007 C 
ATOM     17  C   UNL     1      -2.568 -14.793  11.719  0.00  0.00    +0.007 C 
ENDBRANCH   7  11
BRANCH   8  14
ATOM     14  C   UNL     1      -1.788 -10.770  13.648  0.00  0.00    +0.113 C 
BRANCH  14   3
ATOM      2  O   UNL     1      -2.963 -11.599  16.125  0.00  0.00    -0.253 OA
ATOM      3  N   UNL     1      -2.988 -10.261  14.237  0.00  0.00    -0.299 N 
ATOM      5  N   UNL     1      -4.686 -10.041  15.785  0.00  0.00    -0.269 N 
ATOM     20  C   UNL     1      -3.508 -10.718  15.462  0.00  0.00    +0.304 C 
ATOM     31  H   UNL     1      -3.457  -9.483  13.785  0.00  0.00    +0.150 HD
ATOM     33  H   UNL     1      -5.003  -9.337  15.123  0.00  0.00    +0.156 HD
BRANCH   5  23
ATOM     23  C   UNL     1      -5.502 -10.213  16.929  0.00  0.00    +0.035 A 
ATOM     26  C   UNL     1      -4.955 -10.728  18.104  0.00  0.00    +0.023 A 
ATOM     27  C   UNL     1      -6.851  -9.867  16.880  0.00  0.00    +0.023 A 
ATOM     28  C   UNL     1      -5.759 -10.897  19.231  0.00  0.00    +0.002 A 
ATOM     29  C   UNL     1      -7.655 -10.037  18.007  0.00  0.00    +0.002 A 
ATOM     30  C   UNL     1      -7.110 -10.552  19.182  0.00  0.00    +0.000 A 
ENDBRANCH   5  23
ENDBRANCH  14   3
ENDBRANCH   8  14
BRANCH  10  15
ATOM     15  C   UNL     1      -5.715 -11.084  10.846  0.00  0.00    +0.103 C 
BRANCH  15  19
ATOM      1  O   UNL     1      -6.819 -11.134   8.694  0.00  0.00    -0.276 OA
ATOM      4  N   UNL     1      -7.430  -9.527  10.257  0.00  0.00    -0.314 N 
ATOM     19  C   UNL     1      -6.698 -10.613   9.800  0.00  0.00    +0.214 C 
ATOM     32  H   UNL     1      -7.261  -9.172  11.195  0.00  0.00    +0.149 HD
BRANCH   4  21
ATOM     21  C   UNL     1      -8.443  -8.867   9.465  0.00  0.00    +0.119 C 
BRANCH  21  22
ATOM     22  C   UNL     1      -7.859  -7.694   8.692  0.00  0.00    +0.102 C 
BRANCH  22   6
ATOM      6  N   UNL     1      -8.893  -7.051   7.890  0.00  0.00    -0.307 NA
ATOM     24  C   UNL     1      -8.539  -7.085   6.469  0.00  0.00    +0.104 C 
ATOM     25  C   UNL     1      -9.101  -5.670   8.326  0.00  0.00    +0.104 C 
ENDBRANCH  22   6
ENDBRANCH  21  22
ENDBRANCH   4  21
ENDBRANCH  15  19
ENDBRANCH  10  15
TORSDOF 9
ENDMDL
MODEL 2
REMARK VINA RESULT:      -6.3      2.867      5.006
REMARK  Name = 38027434
REMARK  14 active torsions:
REMARK  status: ('A' for Active; 'I' for Inactive)
REMARK    1  A    between atoms: N_3  and  C_14
REMARK    2  A    between atoms: N_4  and  C_21
REMARK    3  A    between atoms: N_5  and  C_23
REMARK    4  A    between atoms: N_6  and  C_22
REMARK    5  A    between atoms: N_6  and  C_24
REMARK    6  A    between atoms: N_6  and  C_25
REMARK    7  A    between atoms: C_7  and  C_11
REMARK    8  A    between atoms: C_8  and  C_14
REMARK    9  A    between atoms: C_10  and  C_15
REMARK   10  A    between atoms: C_11  and  C_16
REMARK   11  A    between atoms: C_11  and  C_17
REMARK   12  A    between atoms: C_12  and  C_18
REMARK   13  A    between atoms: C_15  and  C_19
REMARK   14  A    between atoms: C_21  and  C_22
REMARK                            x       y       z     vdW  Elec       q    Type
REMARK                         _______ _______ _______ _____ _____    ______ ____
ROOT
ATOM      7  C   UNL     1      -4.919 -12.281  16.124  0.00  0.00    +0.000 C 
ATOM      8  C   UNL     1      -4.174 -11.746  17.371  0.00  0.00    +0.032 C 
ATOM      9  C   UNL     1      -3.915 -12.742  15.057  0.00  0.00    +0.012 C 
ATOM     10  C   UNL     1      -2.975 -11.605  14.612  0.00  0.00    +0.023 C 
ATOM     12  C   UNL     1      -2.404 -10.851  15.796  0.00  0.00    -0.073 C 
ATOM     13  C   UNL     1      -2.945 -10.936  17.024  0.00  0.00    -0.022 C 
ATOM     18  C   UNL     1      -1.170 -10.031  15.545  0.00  0.00    +0.039 C 
ENDROOT
BRANCH   7  11
ATOM     11  C   UNL     1      -5.865 -13.433  16.478  0.00  0.00    -0.013 C 
ATOM     16  C   UNL     1      -6.838 -13.694  15.332  0.00  0.00    +0.007 C 
ATOM     17  C   UNL     1      -5.070 -14.692  16.809  0.00  0.00    +0.007 C 
ENDBRANCH   7  11
BRANCH   8  14
ATOM     14  C   UNL     1      -5.105 -10.907  18.255  0.00  0.00    +0.113 C 
BRANCH  14   3
ATOM      2  O   UNL     1      -7.960 -10.751  18.089  0.00  0.00    -0.253 OA
ATOM      3  N   UNL     1      -5.866  -9.991  17.463  0.00  0.00    -0.299 N 
ATOM      5  N   UNL     1      -7.736  -8.973  16.573  0.00  0.00    -0.269 N 
ATOM     20  C   UNL     1      -7.272  -9.972  17.431  0.00  0.00    +0.304 C 
ATOM     31  H   UNL     1      -5.371  -9.271  16.947  0.00  0.00    +0.150 HD
ATOM     33  H   UNL     1      -7.030  -8.413  16.101  0.00  0.00    +0.156 HD
BRANCH   5  23
ATOM     23  C   UNL     1      -9.078  -8.639  16.273  0.00  0.00    +0.035 A 
ATOM     26  C   UNL     1      -9.652  -9.064  15.075  0.00  0.00    +0.023 A 
ATOM     27  C   UNL     1      -9.827  -7.886  17.177  0.00  0.00    +0.023 A 
ATOM     28  C   UNL     1     -10.975  -8.736  14.780  0.00  0.00    +0.002 A 
ATOM     29  C   UNL     1     -11.150  -7.558  16.882  0.00  0.00    +0.002 A 
ATOM     30  C   UNL     1     -11.724  -7.982  15.684  0.00  0.00    +0.000 A 
ENDBRANCH   5  23
ENDBRANCH  14   3
ENDBRANCH   8  14
BRANCH  10  15
ATOM     15  C   UNL     1      -3.681 -10.651  13.642  0.00  0.00    +0.103 C 
BRANCH  15  19
ATOM      1  O   UNL     1      -1.962 -11.197  12.029  0.00  0.00    -0.276 OA
ATOM      4  N   UNL     1      -3.790  -9.927  11.366  0.00  0.00    -0.314 N 
ATOM     19  C   UNL     1      -3.028 -10.641  12.279  0.00  0.00    +0.214 C 
ATOM     32  H   UNL     1      -4.666  -9.509  11.670  0.00  0.00    +0.149 HD
BRANCH   4  21
ATOM     21  C   UNL     1      -3.408  -9.749   9.985  0.00  0.00    +0.119 C 
BRANCH  21  22
ATOM     22  C   UNL     1      -4.332  -8.766   9.281  0.00  0.00    +0.102 C 
BRANCH  22   6
ATOM      6  N   UNL     1      -5.222  -9.473   8.368  0.00  0.00    -0.307 NA
ATOM     24  C   UNL     1      -6.577  -9.544   8.921  0.00  0.00    +0.104 C 
ATOM     25  C   UNL     1      -4.717 -10.818   8.092  0.00  0.00    +0.104 C 
ENDBRANCH  22   6
ENDBRANCH  21  22
ENDBRANCH   4  21
ENDBRANCH  15  19
ENDBRANCH  10  15
TORSDOF 9
ENDMDL
MODEL 3
REMARK VINA RESULT:      -6.3      2.047      9.117
REMARK  Name = 38027434
REMARK  14 active torsions:
REMARK  status: ('A' for Active; 'I' for Inactive)
REMARK    1  A    between atoms: N_3  and  C_14
REMARK    2  A    between atoms: N_4  and  C_21
REMARK    3  A    between atoms: N_5  and  C_23
REMARK    4  A    between atoms: N_6  and  C_22
REMARK    5  A    between atoms: N_6  and  C_24
REMARK    6  A    between atoms: N_6  and  C_25
REMARK    7  A    between atoms: C_7  and  C_11
REMARK    8  A    between atoms: C_8  and  C_14
REMARK    9  A    between atoms: C_10  and  C_15
REMARK   10  A    between atoms: C_11  and  C_16
REMARK   11  A    between atoms: C_11  and  C_17
REMARK   12  A    between atoms: C_12  and  C_18
REMARK   13  A    between atoms: C_15  and  C_19
REMARK   14  A    between atoms: C_21  and  C_22
REMARK                            x       y       z     vdW  Elec       q    Type
REMARK                         _______ _______ _______ _____ _____    ______ ____
ROOT
ATOM      7  C   UNL     1      -5.170 -10.615  10.919  0.00  0.00    +0.000 C 
ATOM      8  C   UNL     1      -4.629  -9.760   9.747  0.00  0.00    +0.032 C 
ATOM      9  C   UNL     1      -4.599 -10.116  12.255  0.00  0.00    +0.012 C 
ATOM     10  C   UNL     1      -3.059 -10.166  12.285  0.00  0.00    +0.023 C 
ATOM     12  C   UNL     1      -2.452  -9.577  11.027  0.00  0.00    -0.073 C 
ATOM     13  C   UNL     1      -3.172  -9.391   9.907  0.00  0.00    -0.022 C 
ATOM     18  C   UNL     1      -1.009  -9.165  11.101  0.00  0.00    +0.039 C 
ENDROOT
BRANCH   7  11
ATOM     11  C   UNL     1      -6.701 -10.601  10.973  0.00  0.00    -0.013 C 
ATOM     16  C   UNL     1      -7.198 -11.391  12.181  0.00  0.00    +0.007 C 
ATOM     17  C   UNL     1      -7.220  -9.167  11.015  0.00  0.00    +0.007 C 
ENDBRANCH   7  11
BRANCH   8  14
ATOM     14  C   UNL     1      -4.831 -10.471   8.404  0.00  0.00    +0.113 C 
BRANCH  14   3
ATOM      2  O   UNL     1      -7.532 -10.094   7.528  0.00  0.00    -0.253 OA
ATOM      3  N   UNL     1      -5.285  -9.552   7.407  0.00  0.00    -0.299 N 
ATOM      5  N   UNL     1      -6.777  -8.448   6.034  0.00  0.00    -0.269 N 
ATOM     20  C   UNL     1      -6.634  -9.421   7.026  0.00  0.00    +0.304 C 
ATOM     31  H   UNL     1      -4.614  -8.912   6.997  0.00  0.00    +0.150 HD
ATOM     33  H   UNL     1      -5.926  -7.981   5.727  0.00  0.00    +0.156 HD
BRANCH   5  23
ATOM     23  C   UNL     1      -7.967  -8.026   5.396  0.00  0.00    +0.035 A 
ATOM     26  C   UNL     1      -8.941  -7.338   6.120  0.00  0.00    +0.023 A 
ATOM     27  C   UNL     1      -8.167  -8.299   4.043  0.00  0.00    +0.023 A 
ATOM     28  C   UNL     1     -10.114  -6.922   5.491  0.00  0.00    +0.002 A 
ATOM     29  C   UNL     1      -9.340  -7.883   3.414  0.00  0.00    +0.002 A 
ATOM     30  C   UNL     1     -10.313  -7.195   4.137  0.00  0.00    +0.000 A 
ENDBRANCH   5  23
ENDBRANCH  14   3
ENDBRANCH   8  14
BRANCH  10  15
ATOM     15  C   UNL     1      -2.557 -11.595  12.519  0.00  0.00    +0.103 C 
BRANCH  15  19
ATOM      1  O   UNL     1      -2.966 -13.119  14.354  0.00  0.00    -0.276 OA
ATOM      4  N   UNL     1      -2.316 -10.934  14.804  0.00  0.00    -0.314 N 
ATOM     19  C   UNL     1      -2.644 -11.996  13.974  0.00  0.00    +0.214 C 
ATOM     32  H   UNL     1      -2.054 -10.043  14.391  0.00  0.00    +0.149 HD
BRANCH   4  21
ATOM     21  C   UNL     1      -2.316 -11.029  16.246  0.00  0.00    +0.119 C 
BRANCH  21  22
ATOM     22  C   UNL     1      -3.678 -10.672  16.821  0.00  0.00    +0.102 C 
BRANCH  22   6
ATOM      6  N   UNL     1      -4.288 -11.841  17.443  0.00  0.00    -0.307 NA
ATOM     24  C   UNL     1      -5.712 -11.920  17.110  0.00  0.00    +0.104 C 
ATOM     25  C   UNL     1      -4.109 -11.804  18.896  0.00  0.00    +0.104 C 
ENDBRANCH  22   6
ENDBRANCH  21  22
ENDBRANCH   4  21
ENDBRANCH  15  19
ENDBRANCH  10  15
TORSDOF 9
ENDMDL
MODEL 4
REMARK VINA RESULT:      -6.2     27.040     29.698
REMARK  Name = 38027434
REMARK  14 active torsions:
REMARK  status: ('A' for Active; 'I' for Inactive)
REMARK    1  A    between atoms: N_3  and  C_14
REMARK    2  A    between atoms: N_4  and  C_21
REMARK    3  A    between atoms: N_5  and  C_23
REMARK    4  A    between atoms: N_6  and  C_22
REMARK    5  A    between atoms: N_6  and  C_24
REMARK    6  A    between atoms: N_6  and  C_25
REMARK    7  A    between atoms: C_7  and  C_11
REMARK    8  A    between atoms: C_8  and  C_14
REMARK    9  A    between atoms: C_10  and  C_15
REMARK   10  A    between atoms: C_11  and  C_16
REMARK   11  A    between atoms: C_11  and  C_17
REMARK   12  A    between atoms: C_12  and  C_18
REMARK   13  A    between atoms: C_15  and  C_19
REMARK   14  A    between atoms: C_21  and  C_22
REMARK                            x       y       z     vdW  Elec       q    Type
REMARK                         _______ _______ _______ _____ _____    ______ ____
ROOT
ATOM      7  C   UNL     1      14.414   8.174  20.050  0.00  0.00    +0.000 C 
ATOM      8  C   UNL     1      13.482   7.107  19.427  0.00  0.00    +0.032 C 
ATOM      9  C   UNL     1      14.216   8.235  21.572  0.00  0.00    +0.012 C 
ATOM     10  C   UNL     1      12.763   8.572  21.958  0.00  0.00    +0.023 C 
ATOM     12  C   UNL     1      11.766   7.737  21.179  0.00  0.00    -0.073 C 
ATOM     13  C   UNL     1      12.109   7.079  20.058  0.00  0.00    -0.022 C 
ATOM     18  C   UNL     1      10.377   7.640  21.744  0.00  0.00    +0.039 C 
ENDROOT
BRANCH   7  11
ATOM     11  C   UNL     1      15.887   7.900  19.730  0.00  0.00    -0.013 C 
ATOM     16  C   UNL     1      16.792   8.666  20.690  0.00  0.00    +0.007 C 
ATOM     17  C   UNL     1      16.176   6.403  19.793  0.00  0.00    +0.007 C 
ENDBRANCH   7  11
BRANCH   8  14
ATOM     14  C   UNL     1      13.344   7.309  17.913  0.00  0.00    +0.113 C 
BRANCH  14   3
ATOM      2  O   UNL     1      13.953   8.268  15.284  0.00  0.00    -0.253 OA
ATOM      3  N   UNL     1      13.674   8.651  17.549  0.00  0.00    -0.299 N 
ATOM      5  N   UNL     1      14.247  10.418  16.178  0.00  0.00    -0.269 N 
ATOM     20  C   UNL     1      13.962   9.052  16.231  0.00  0.00    +0.304 C 
ATOM     31  H   UNL     1      13.633   9.371  18.263  0.00  0.00    +0.150 HD
ATOM     33  H   UNL     1      14.212  10.926  17.059  0.00  0.00    +0.156 HD
BRANCH   5  23
ATOM     23  C   UNL     1      14.582  11.192  15.042  0.00  0.00    +0.035 A 
ATOM     26  C   UNL     1      13.616  11.995  14.435  0.00  0.00    +0.023 A 
ATOM     27  C   UNL     1      15.879  11.154  14.531  0.00  0.00    +0.023 A 
ATOM     28  C   UNL     1      13.947  12.758  13.316  0.00  0.00    +0.002 A 
ATOM     29  C   UNL     1      16.209  11.918  13.412  0.00  0.00    +0.002 A 
ATOM     30  C   UNL     1      15.244  12.719  12.804  0.00  0.00    +0.000 A 
ENDBRANCH   5  23
ENDBRANCH  14   3
ENDBRANCH   8  14
BRANCH  10  15
ATOM     15  C   UNL     1      12.478  10.068  21.787  0.00  0.00    +0.103 C 
BRANCH  15  19
ATOM      1  O   UNL     1      10.719  10.717  23.317  0.00  0.00    -0.276 OA
ATOM      4  N   UNL     1      12.929  11.210  23.838  0.00  0.00    -0.314 N 
ATOM     19  C   UNL     1      11.917  10.688  23.046  0.00  0.00    +0.214 C 
ATOM     32  H   UNL     1      13.894  11.128  23.529  0.00  0.00    +0.149 HD
BRANCH   4  21
ATOM     21  C   UNL     1      12.685  11.865  25.102  0.00  0.00    +0.119 C 
BRANCH  21  22
ATOM     22  C   UNL     1      12.978  13.356  25.015  0.00  0.00    +0.102 C 
BRANCH  22   6
ATOM      6  N   UNL     1      11.736  14.118  25.030  0.00  0.00    -0.307 NA
ATOM     24  C   UNL     1      10.661  13.342  25.652  0.00  0.00    +0.104 C 
ATOM     25  C   UNL     1      11.356  14.512  23.672  0.00  0.00    +0.104 C 
ENDBRANCH  22   6
ENDBRANCH  21  22
ENDBRANCH   4  21
ENDBRANCH  15  19
ENDBRANCH  10  15
TORSDOF 9
ENDMDL
MODEL 5
REMARK VINA RESULT:      -6.2     27.778     30.387
REMARK  Name = 38027434
REMARK  14 active torsions:
REMARK  status: ('A' for Active; 'I' for Inactive)
REMARK    1  A    between atoms: N_3  and  C_14
REMARK    2  A    between atoms: N_4  and  C_21
REMARK    3  A    between atoms: N_5  and  C_23
REMARK    4  A    between atoms: N_6  and  C_22
REMARK    5  A    between atoms: N_6  and  C_24
REMARK    6  A    between atoms: N_6  and  C_25
REMARK    7  A    between atoms: C_7  and  C_11
REMARK    8  A    between atoms: C_8  and  C_14
REMARK    9  A    between atoms: C_10  and  C_15
REMARK   10  A    between atoms: C_11  and  C_16
REMARK   11  A    between atoms: C_11  and  C_17
REMARK   12  A    between atoms: C_12  and  C_18
REMARK   13  A    between atoms: C_15  and  C_19
REMARK   14  A    between atoms: C_21  and  C_22
REMARK                            x       y       z     vdW  Elec       q    Type
REMARK                         _______ _______ _______ _____ _____    ______ ____
ROOT
ATOM      7  C   UNL     1      13.035   8.626  20.868  0.00  0.00    +0.000 C 
ATOM      8  C   UNL     1      13.763   8.491  19.507  0.00  0.00    +0.032 C 
ATOM      9  C   UNL     1      12.997  10.097  21.310  0.00  0.00    +0.012 C 
ATOM     10  C   UNL     1      14.407  10.701  21.450  0.00  0.00    +0.023 C 
ATOM     12  C   UNL     1      15.278  10.378  20.253  0.00  0.00    -0.073 C 
ATOM     13  C   UNL     1      14.967   9.396  19.388  0.00  0.00    -0.022 C 
ATOM     18  C   UNL     1      16.492  11.239  20.046  0.00  0.00    +0.039 C 
ENDROOT
BRANCH   7  11
ATOM     11  C   UNL     1      11.611   8.065  20.809  0.00  0.00    -0.013 C 
ATOM     16  C   UNL     1      10.847   8.417  22.082  0.00  0.00    +0.007 C 
ATOM     17  C   UNL     1      10.881   8.592  19.578  0.00  0.00    +0.007 C 
ENDBRANCH   7  11
BRANCH   8  14
ATOM     14  C   UNL     1      14.186   7.040  19.248  0.00  0.00    +0.113 C 
BRANCH  14   3
ATOM      2  O   UNL     1      16.019   6.196  21.280  0.00  0.00    -0.253 OA
ATOM      3  N   UNL     1      15.607   6.941  19.128  0.00  0.00    -0.299 N 
ATOM      5  N   UNL     1      17.785   6.518  19.767  0.00  0.00    -0.269 N 
ATOM     20  C   UNL     1      16.448   6.516  20.174  0.00  0.00    +0.304 C 
ATOM     31  H   UNL     1      16.031   7.120  18.224  0.00  0.00    +0.150 HD
ATOM     33  H   UNL     1      17.971   6.814  18.812  0.00  0.00    +0.156 HD
BRANCH   5  23
ATOM     23  C   UNL     1      18.924   6.158  20.526  0.00  0.00    +0.035 A 
ATOM     26  C   UNL     1      19.748   5.119  20.095  0.00  0.00    +0.023 A 
ATOM     27  C   UNL     1      19.223   6.843  21.703  0.00  0.00    +0.023 A 
ATOM     28  C   UNL     1      20.871   4.764  20.842  0.00  0.00    +0.002 A 
ATOM     29  C   UNL     1      20.346   6.488  22.450  0.00  0.00    +0.002 A 
ATOM     30  C   UNL     1      21.170   5.449  22.020  0.00  0.00    +0.000 A 
ENDBRANCH   5  23
ENDBRANCH  14   3
ENDBRANCH   8  14
BRANCH  10  15
ATOM     15  C   UNL     1      15.076  10.249  22.753  0.00  0.00    +0.103 C 
BRANCH  15  19
ATOM      1  O   UNL     1      15.969  12.236  23.805  0.00  0.00    -0.276 OA
ATOM      4  N   UNL     1      14.069  11.230  24.687  0.00  0.00    -0.314 N 
ATOM     19  C   UNL     1      15.115  11.354  23.784  0.00  0.00    +0.214 C 
ATOM     32  H   UNL     1      13.407  10.466  24.579  0.00  0.00    +0.149 HD
BRANCH   4  21
ATOM     21  C   UNL     1      13.860  12.147  25.784  0.00  0.00    +0.119 C 
BRANCH  21  22
ATOM     22  C   UNL     1      13.017  13.337  25.352  0.00  0.00    +0.102 C 
BRANCH  22   6
ATOM      6  N   UNL     1      11.927  12.900  24.489  0.00  0.00    -0.307 NA
ATOM     24  C   UNL     1      11.759  13.821  23.362  0.00  0.00    +0.104 C 
ATOM     25  C   UNL     1      10.679  12.794  25.246  0.00  0.00    +0.104 C 
ENDBRANCH  22   6
ENDBRANCH  21  22
ENDBRANCH   4  21
ENDBRANCH  15  19
ENDBRANCH  10  15
TORSDOF 9
ENDMDL
MODEL 6
REMARK VINA RESULT:      -6.2     28.658     31.263
REMARK  Name = 38027434
REMARK  14 active torsions:
REMARK  status: ('A' for Active; 'I' for Inactive)
REMARK    1  A    between atoms: N_3  and  C_14
REMARK    2  A    between atoms: N_4  and  C_21
REMARK    3  A    between atoms: N_5  and  C_23
REMARK    4  A    between atoms: N_6  and  C_22
REMARK    5  A    between atoms: N_6  and  C_24
REMARK    6  A    between atoms: N_6  and  C_25
REMARK    7  A    between atoms: C_7  and  C_11
REMARK    8  A    between atoms: C_8  and  C_14
REMARK    9  A    between atoms: C_10  and  C_15
REMARK   10  A    between atoms: C_11  and  C_16
REMARK   11  A    between atoms: C_11  and  C_17
REMARK   12  A    between atoms: C_12  and  C_18
REMARK   13  A    between atoms: C_15  and  C_19
REMARK   14  A    between atoms: C_21  and  C_22
REMARK                            x       y       z     vdW  Elec       q    Type
REMARK                         _______ _______ _______ _____ _____    ______ ____
ROOT
ATOM      7  C   UNL     1      16.159   7.818  21.164  0.00  0.00    +0.000 C 
ATOM      8  C   UNL     1      17.671   8.030  20.907  0.00  0.00    +0.032 C 
ATOM      9  C   UNL     1      15.353   9.021  20.651  0.00  0.00    +0.012 C 
ATOM     10  C   UNL     1      15.782  10.339  21.324  0.00  0.00    +0.023 C 
ATOM     12  C   UNL     1      17.289  10.494  21.348  0.00  0.00    -0.073 C 
ATOM     13  C   UNL     1      18.117   9.454  21.146  0.00  0.00    -0.022 C 
ATOM     18  C   UNL     1      17.823  11.882  21.565  0.00  0.00    +0.039 C 
ENDROOT
BRANCH   7  11
ATOM     11  C   UNL     1      15.645   6.533  20.507  0.00  0.00    -0.013 C 
ATOM     16  C   UNL     1      14.133   6.601  20.314  0.00  0.00    +0.007 C 
ATOM     17  C   UNL     1      16.350   6.297  19.175  0.00  0.00    +0.007 C 
ENDBRANCH   7  11
BRANCH   8  14
ATOM     14  C   UNL     1      18.517   7.079  21.761  0.00  0.00    +0.113 C 
BRANCH  14   3
ATOM      2  O   UNL     1      20.769   5.585  22.709  0.00  0.00    -0.253 OA
ATOM      3  N   UNL     1      19.503   6.421  20.962  0.00  0.00    -0.299 N 
ATOM      5  N   UNL     1      21.382   5.170  20.481  0.00  0.00    -0.269 N 
ATOM     20  C   UNL     1      20.587   5.702  21.499  0.00  0.00    +0.304 C 
ATOM     31  H   UNL     1      19.383   6.413  19.954  0.00  0.00    +0.150 HD
ATOM     33  H   UNL     1      21.090   5.362  19.526  0.00  0.00    +0.156 HD
BRANCH   5  23
ATOM     23  C   UNL     1      22.555   4.389  20.614  0.00  0.00    +0.035 A 
ATOM     26  C   UNL     1      23.801   4.949  20.332  0.00  0.00    +0.023 A 
ATOM     27  C   UNL     1      22.465   3.061  21.029  0.00  0.00    +0.023 A 
ATOM     28  C   UNL     1      24.957   4.180  20.463  0.00  0.00    +0.002 A 
ATOM     29  C   UNL     1      23.621   2.292  21.160  0.00  0.00    +0.002 A 
ATOM     30  C   UNL     1      24.867   2.851  20.877  0.00  0.00    +0.000 A 
ENDBRANCH   5  23
ENDBRANCH  14   3
ENDBRANCH   8  14
BRANCH  10  15
ATOM     15  C   UNL     1      15.196  10.455  22.736  0.00  0.00    +0.103 C 
BRANCH  15  19
ATOM      1  O   UNL     1      13.826  12.439  22.533  0.00  0.00    -0.276 OA
ATOM      4  N   UNL     1      12.825  10.404  23.042  0.00  0.00    -0.314 N 
ATOM     19  C   UNL     1      13.900  11.232  22.751  0.00  0.00    +0.214 C 
ATOM     32  H   UNL     1      12.990   9.413  23.199  0.00  0.00    +0.149 HD
BRANCH   4  21
ATOM     21  C   UNL     1      11.463  10.877  23.125  0.00  0.00    +0.119 C 
BRANCH  21  22
ATOM     22  C   UNL     1      11.106  11.280  24.548  0.00  0.00    +0.102 C 
BRANCH  22   6
ATOM      6  N   UNL     1      10.291  12.488  24.544  0.00  0.00    -0.307 NA
ATOM     24  C   UNL     1      10.496  13.245  23.306  0.00  0.00    +0.104 C 
ATOM     25  C   UNL     1      10.601  13.324  25.705  0.00  0.00    +0.104 C 
ENDBRANCH  22   6
ENDBRANCH  21  22
ENDBRANCH   4  21
ENDBRANCH  15  19
ENDBRANCH  10  15
TORSDOF 9
ENDMDL
MODEL 7
REMARK VINA RESULT:      -6.1     24.946     28.081
REMARK  Name = 38027434
REMARK  14 active torsions:
REMARK  status: ('A' for Active; 'I' for Inactive)
REMARK    1  A    between atoms: N_3  and  C_14
REMARK    2  A    between atoms: N_4  and  C_21
REMARK    3  A    between atoms: N_5  and  C_23
REMARK    4  A    between atoms: N_6  and  C_22
REMARK    5  A    between atoms: N_6  and  C_24
REMARK    6  A    between atoms: N_6  and  C_25
REMARK    7  A    between atoms: C_7  and  C_11
REMARK    8  A    between atoms: C_8  and  C_14
REMARK    9  A    between atoms: C_10  and  C_15
REMARK   10  A    between atoms: C_11  and  C_16
REMARK   11  A    between atoms: C_11  and  C_17
REMARK   12  A    between atoms: C_12  and  C_18
REMARK   13  A    between atoms: C_15  and  C_19
REMARK   14  A    between atoms: C_21  and  C_22
REMARK                            x       y       z     vdW  Elec       q    Type
REMARK                         _______ _______ _______ _____ _____    ______ ____
ROOT
ATOM      7  C   UNL     1      21.726  -7.548   3.111  0.00  0.00    +0.000 C 
ATOM      8  C   UNL     1      22.423  -7.027   1.831  0.00  0.00    +0.032 C 
ATOM      9  C   UNL     1      21.483  -9.062   3.010  0.00  0.00    +0.012 C 
ATOM     10  C   UNL     1      20.610  -9.432   1.796  0.00  0.00    +0.023 C 
ATOM     12  C   UNL     1      21.079  -8.736   0.534  0.00  0.00    -0.073 C 
ATOM     13  C   UNL     1      21.900  -7.672   0.568  0.00  0.00    -0.022 C 
ATOM     18  C   UNL     1      20.619  -9.321  -0.772  0.00  0.00    +0.039 C 
ENDROOT
BRANCH   7  11
ATOM     11  C   UNL     1      22.543  -7.238   4.370  0.00  0.00    -0.013 C 
ATOM     16  C   UNL     1      21.788  -7.684   5.618  0.00  0.00    +0.007 C 
ATOM     17  C   UNL     1      23.911  -7.910   4.296  0.00  0.00    +0.007 C 
ENDBRANCH   7  11
BRANCH   8  14
ATOM     14  C   UNL     1      22.300  -5.503   1.715  0.00  0.00    +0.113 C 
BRANCH  14   3
ATOM      2  O   UNL     1      19.565  -4.900   1.113  0.00  0.00    -0.253 OA
ATOM      3  N   UNL     1      21.767  -5.133   0.440  0.00  0.00    -0.299 N 
ATOM      5  N   UNL     1      20.181  -4.519  -1.120  0.00  0.00    -0.269 N 
ATOM     20  C   UNL     1      20.407  -4.850   0.218  0.00  0.00    +0.304 C 
ATOM     31  H   UNL     1      22.410  -5.001  -0.333  0.00  0.00    +0.150 HD
ATOM     33  H   UNL     1      20.992  -4.526  -1.735  0.00  0.00    +0.156 HD
BRANCH   5  23
ATOM     23  C   UNL     1      18.954  -4.172  -1.734  0.00  0.00    +0.035 A 
ATOM     26  C   UNL     1      18.576  -2.833  -1.830  0.00  0.00    +0.023 A 
ATOM     27  C   UNL     1      18.124  -5.170  -2.245  0.00  0.00    +0.023 A 
ATOM     28  C   UNL     1      17.367  -2.492  -2.436  0.00  0.00    +0.002 A 
ATOM     29  C   UNL     1      16.916  -4.829  -2.850  0.00  0.00    +0.002 A 
ATOM     30  C   UNL     1      16.536  -3.490  -2.946  0.00  0.00    +0.000 A 
ENDBRANCH   5  23
ENDBRANCH  14   3
ENDBRANCH   8  14
BRANCH  10  15
ATOM     15  C   UNL     1      19.131  -9.137   2.067  0.00  0.00    +0.103 C 
BRANCH  15  19
ATOM      1  O   UNL     1      18.721 -11.504   1.777  0.00  0.00    -0.276 OA
ATOM      4  N   UNL     1      17.006 -10.130   2.532  0.00  0.00    -0.314 N 
ATOM     19  C   UNL     1      18.297 -10.397   2.098  0.00  0.00    +0.214 C 
ATOM     32  H   UNL     1      16.754  -9.177   2.783  0.00  0.00    +0.149 HD
BRANCH   4  21
ATOM     21  C   UNL     1      15.988 -11.147   2.658  0.00  0.00    +0.119 C 
BRANCH  21  22
ATOM     22  C   UNL     1      15.999 -11.767   4.047  0.00  0.00    +0.102 C 
BRANCH  22   6
ATOM      6  N   UNL     1      16.219 -13.205   3.959  0.00  0.00    -0.307 NA
ATOM     24  C   UNL     1      15.372 -13.794   2.918  0.00  0.00    +0.104 C 
ATOM     25  C   UNL     1      15.957 -13.848   5.247  0.00  0.00    +0.104 C 
ENDBRANCH  22   6
ENDBRANCH  21  22
ENDBRANCH   4  21
ENDBRANCH  15  19
ENDBRANCH  10  15
TORSDOF 9
ENDMDL
MODEL 8
REMARK VINA RESULT:      -6.1      3.797      7.021
REMARK  Name = 38027434
REMARK  14 active torsions:
REMARK  status: ('A' for Active; 'I' for Inactive)
REMARK    1  A    between atoms: N_3  and  C_14
REMARK    2  A    between atoms: N_4  and  C_21
REMARK    3  A    between atoms: N_5  and  C_23
REMARK    4  A    between atoms: N_6  and  C_22
REMARK    5  A    between atoms: N_6  and  C_24
REMARK    6  A    between atoms: N_6  and  C_25
REMARK    7  A    between atoms: C_7  and  C_11
REMARK    8  A    between atoms: C_8  and  C_14
REMARK    9  A    between atoms: C_10  and  C_15
REMARK   10  A    between atoms: C_11  and  C_16
REMARK   11  A    between atoms: C_11  and  C_17
REMARK   12  A    between atoms: C_12  and  C_18
REMARK   13  A    between atoms: C_15  and  C_19
REMARK   14  A    between atoms: C_21  and  C_22
REMARK                            x       y       z     vdW  Elec       q    Type
REMARK                         _______ _______ _______ _____ _____    ______ ____
ROOT
ATOM      7  C   UNL     1      -6.229 -10.949  15.864  0.00  0.00    +0.000 C 
ATOM      8  C   UNL     1      -6.839 -11.000  17.286  0.00  0.00    +0.032 C 
ATOM      9  C   UNL     1      -5.164 -12.044  15.698  0.00  0.00    +0.012 C 
ATOM     10  C   UNL     1      -4.022 -11.906  16.723  0.00  0.00    +0.023 C 
ATOM     12  C   UNL     1      -4.550 -11.683  18.126  0.00  0.00    -0.073 C 
ATOM     13  C   UNL     1      -5.815 -11.291  18.359  0.00  0.00    -0.022 C 
ATOM     18  C   UNL     1      -3.603 -11.964  19.258  0.00  0.00    +0.039 C 
ENDROOT
BRANCH   7  11
ATOM     11  C   UNL     1      -7.300 -11.100  14.779  0.00  0.00    -0.013 C 
ATOM     16  C   UNL     1      -6.791 -10.556  13.448  0.00  0.00    +0.007 C 
ATOM     17  C   UNL     1      -7.716 -12.562  14.642  0.00  0.00    +0.007 C 
ENDBRANCH   7  11
BRANCH   8  14
ATOM     14  C   UNL     1      -7.573  -9.697  17.620  0.00  0.00    +0.113 C 
BRANCH  14   3
ATOM      2  O   UNL     1     -10.339 -10.439  17.605  0.00  0.00    -0.253 OA
ATOM      3  N   UNL     1      -8.418  -9.869  18.761  0.00  0.00    -0.299 N 
ATOM      5  N   UNL     1     -10.342 -10.329  19.950  0.00  0.00    -0.269 N 
ATOM     20  C   UNL     1      -9.773 -10.236  18.677  0.00  0.00    +0.304 C 
ATOM     31  H   UNL     1      -8.006  -9.789  19.685  0.00  0.00    +0.150 HD
ATOM     33  H   UNL     1      -9.732 -10.127  20.738  0.00  0.00    +0.156 HD
BRANCH   5  23
ATOM     23  C   UNL     1     -11.674 -10.671  20.283  0.00  0.00    +0.035 A 
ATOM     26  C   UNL     1     -12.019 -12.006  20.497  0.00  0.00    +0.023 A 
ATOM     27  C   UNL     1     -12.642  -9.674  20.399  0.00  0.00    +0.023 A 
ATOM     28  C   UNL     1     -13.332 -12.343  20.826  0.00  0.00    +0.002 A 
ATOM     29  C   UNL     1     -13.954 -10.011  20.728  0.00  0.00    +0.002 A 
ATOM     30  C   UNL     1     -14.300 -11.345  20.941  0.00  0.00    +0.000 A 
ENDBRANCH   5  23
ENDBRANCH  14   3
ENDBRANCH   8  14
BRANCH  10  15
ATOM     15  C   UNL     1      -3.048 -10.794  16.320  0.00  0.00    +0.103 C 
BRANCH  15  19
ATOM      1  O   UNL     1      -1.455 -11.981  14.939  0.00  0.00    -0.276 OA
ATOM      4  N   UNL     1      -2.758 -10.305  13.998  0.00  0.00    -0.314 N 
ATOM     19  C   UNL     1      -2.320 -11.115  15.035  0.00  0.00    +0.214 C 
ATOM     32  H   UNL     1      -3.488  -9.619  14.177  0.00  0.00    +0.149 HD
BRANCH   4  21
ATOM     21  C   UNL     1      -2.235 -10.388  12.654  0.00  0.00    +0.119 C 
BRANCH  21  22
ATOM     22  C   UNL     1      -3.076 -11.319  11.793  0.00  0.00    +0.102 C 
BRANCH  22   6
ATOM      6  N   UNL     1      -3.395 -10.682  10.521  0.00  0.00    -0.307 NA
ATOM     24  C   UNL     1      -2.748  -9.372  10.423  0.00  0.00    +0.104 C 
ATOM     25  C   UNL     1      -4.843 -10.544  10.362  0.00  0.00    +0.104 C 
ENDBRANCH  22   6
ENDBRANCH  21  22
ENDBRANCH   4  21
ENDBRANCH  15  19
ENDBRANCH  10  15
TORSDOF 9
ENDMDL
MODEL 9
REMARK VINA RESULT:      -6.0     23.850     26.641
REMARK  Name = 38027434
REMARK  14 active torsions:
REMARK  status: ('A' for Active; 'I' for Inactive)
REMARK    1  A    between atoms: N_3  and  C_14
REMARK    2  A    between atoms: N_4  and  C_21
REMARK    3  A    between atoms: N_5  and  C_23
REMARK    4  A    between atoms: N_6  and  C_22
REMARK    5  A    between atoms: N_6  and  C_24
REMARK    6  A    between atoms: N_6  and  C_25
REMARK    7  A    between atoms: C_7  and  C_11
REMARK    8  A    between atoms: C_8  and  C_14
REMARK    9  A    between atoms: C_10  and  C_15
REMARK   10  A    between atoms: C_11  and  C_16
REMARK   11  A    between atoms: C_11  and  C_17
REMARK   12  A    between atoms: C_12  and  C_18
REMARK   13  A    between atoms: C_15  and  C_19
REMARK   14  A    between atoms: C_21  and  C_22
REMARK                            x       y       z     vdW  Elec       q    Type
REMARK                         _______ _______ _______ _____ _____    ______ ____
ROOT
ATOM      7  C   UNL     1       8.909   8.839   5.542  0.00  0.00    +0.000 C 
ATOM      8  C   UNL     1       8.811   9.024   7.077  0.00  0.00    +0.032 C 
ATOM      9  C   UNL     1       8.355   7.466   5.132  0.00  0.00    +0.012 C 
ATOM     10  C   UNL     1       9.108   6.306   5.811  0.00  0.00    +0.023 C 
ATOM     12  C   UNL     1       9.288   6.547   7.296  0.00  0.00    -0.073 C 
ATOM     13  C   UNL     1       9.139   7.765   7.846  0.00  0.00    -0.022 C 
ATOM     18  C   UNL     1       9.601   5.345   8.143  0.00  0.00    +0.039 C 
ENDROOT
BRANCH   7  11
ATOM     11  C   UNL     1       8.164   9.945   4.788  0.00  0.00    -0.013 C 
ATOM     16  C   UNL     1       9.132  10.737   3.913  0.00  0.00    +0.007 C 
ATOM     17  C   UNL     1       7.038   9.351   3.948  0.00  0.00    +0.007 C 
ENDBRANCH   7  11
BRANCH   8  14
ATOM     14  C   UNL     1       9.717  10.164   7.556  0.00  0.00    +0.113 C 
BRANCH  14   3
ATOM      2  O   UNL     1      11.953  10.729   5.857  0.00  0.00    -0.253 OA
ATOM      3  N   UNL     1      11.060   9.706   7.731  0.00  0.00    -0.299 N 
ATOM      5  N   UNL     1      13.307   9.439   7.276  0.00  0.00    -0.269 N 
ATOM     20  C   UNL     1      12.112  10.025   6.852  0.00  0.00    +0.304 C 
ATOM     31  H   UNL     1      11.286   9.178   8.567  0.00  0.00    +0.150 HD
ATOM     33  H   UNL     1      13.266   8.881   8.126  0.00  0.00    +0.156 HD
BRANCH   5  23
ATOM     23  C   UNL     1      14.581   9.524   6.665  0.00  0.00    +0.035 A 
ATOM     26  C   UNL     1      15.131   8.405   6.040  0.00  0.00    +0.023 A 
ATOM     27  C   UNL     1      15.285  10.727   6.686  0.00  0.00    +0.023 A 
ATOM     28  C   UNL     1      16.385   8.489   5.437  0.00  0.00    +0.002 A 
ATOM     29  C   UNL     1      16.539  10.811   6.083  0.00  0.00    +0.002 A 
ATOM     30  C   UNL     1      17.090   9.693   5.459  0.00  0.00    +0.000 A 
ENDBRANCH   5  23
ENDBRANCH  14   3
ENDBRANCH   8  14
BRANCH  10  15
ATOM     15  C   UNL     1      10.457   6.049   5.129  0.00  0.00    +0.103 C 
BRANCH  15  19
ATOM      1  O   UNL     1      10.070   3.664   5.000  0.00  0.00    -0.276 OA
ATOM      4  N   UNL     1      11.130   4.748   3.240  0.00  0.00    -0.314 N 
ATOM     19  C   UNL     1      10.514   4.685   4.481  0.00  0.00    +0.214 C 
ATOM     32  H   UNL     1      11.458   5.647   2.893  0.00  0.00    +0.149 HD
BRANCH   4  21
ATOM     21  C   UNL     1      11.325   3.593   2.394  0.00  0.00    +0.119 C 
BRANCH  21  22
ATOM     22  C   UNL     1      12.266   3.909   1.241  0.00  0.00    +0.102 C 
BRANCH  22   6
ATOM      6  N   UNL     1      13.492   4.521   1.740  0.00  0.00    -0.307 NA
ATOM     24  C   UNL     1      13.803   5.739   0.988  0.00  0.00    +0.104 C 
ATOM     25  C   UNL     1      14.609   3.578   1.662  0.00  0.00    +0.104 C 
ENDBRANCH  22   6
ENDBRANCH  21  22
ENDBRANCH   4  21
ENDBRANCH  15  19
ENDBRANCH  10  15
TORSDOF 9
ENDMDL
MODEL 10
REMARK VINA RESULT:      -6.0     23.659     26.361
REMARK  Name = 38027434
REMARK  14 active torsions:
REMARK  status: ('A' for Active; 'I' for Inactive)
REMARK    1  A    between atoms: N_3  and  C_14
REMARK    2  A    between atoms: N_4  and  C_21
REMARK    3  A    between atoms: N_5  and  C_23
REMARK    4  A    between atoms: N_6  and  C_22
REMARK    5  A    between atoms: N_6  and  C_24
REMARK    6  A    between atoms: N_6  and  C_25
REMARK    7  A    between atoms: C_7  and  C_11
REMARK    8  A    between atoms: C_8  and  C_14
REMARK    9  A    between atoms: C_10  and  C_15
REMARK   10  A    between atoms: C_11  and  C_16
REMARK   11  A    between atoms: C_11  and  C_17
REMARK   12  A    between atoms: C_12  and  C_18
REMARK   13  A    between atoms: C_15  and  C_19
REMARK   14  A    between atoms: C_21  and  C_22
REMARK                            x       y       z     vdW  Elec       q    Type
REMARK                         _______ _______ _______ _____ _____    ______ ____
ROOT
ATOM      7  C   UNL     1       9.034   8.314   5.047  0.00  0.00    +0.000 C 
ATOM      8  C   UNL     1       8.698   8.671   6.516  0.00  0.00    +0.032 C 
ATOM      9  C   UNL     1       8.630   6.864   4.742  0.00  0.00    +0.012 C 
ATOM     10  C   UNL     1       9.342   5.854   5.664  0.00  0.00    +0.023 C 
ATOM     12  C   UNL     1       9.284   6.282   7.117  0.00  0.00    -0.073 C 
ATOM     13  C   UNL     1       8.981   7.541   7.479  0.00  0.00    -0.022 C 
ATOM     18  C   UNL     1       9.537   5.216   8.146  0.00  0.00    +0.039 C 
ENDROOT
BRANCH   7  11
ATOM     11  C   UNL     1       8.345   9.262   4.060  0.00  0.00    -0.013 C 
ATOM     16  C   UNL     1       8.283   8.632   2.672  0.00  0.00    +0.007 C 
ATOM     17  C   UNL     1       6.947   9.621   4.554  0.00  0.00    +0.007 C 
ENDBRANCH   7  11
BRANCH   8  14
ATOM     14  C   UNL     1       9.452   9.927   6.967  0.00  0.00    +0.113 C 
BRANCH  14   3
ATOM      2  O   UNL     1      11.828  10.411   5.442  0.00  0.00    -0.253 OA
ATOM      3  N   UNL     1      10.792   9.604   7.348  0.00  0.00    -0.299 N 
ATOM      5  N   UNL     1      13.089   9.449   7.172  0.00  0.00    -0.269 N 
ATOM     20  C   UNL     1      11.916   9.873   6.544  0.00  0.00    +0.304 C 
ATOM     31  H   UNL     1      10.954   9.222   8.274  0.00  0.00    +0.150 HD
ATOM     33  H   UNL     1      12.985   9.019   8.089  0.00  0.00    +0.156 HD
BRANCH   5  23
ATOM     23  C   UNL     1      14.416   9.543   6.690  0.00  0.00    +0.035 A 
ATOM     26  C   UNL     1      15.072  10.773   6.690  0.00  0.00    +0.023 A 
ATOM     27  C   UNL     1      15.067   8.405   6.216  0.00  0.00    +0.023 A 
ATOM     28  C   UNL     1      16.380  10.866   6.215  0.00  0.00    +0.002 A 
ATOM     29  C   UNL     1      16.375   8.497   5.741  0.00  0.00    +0.002 A 
ATOM     30  C   UNL     1      17.032   9.727   5.740  0.00  0.00    +0.000 A 
ENDBRANCH   5  23
ENDBRANCH  14   3
ENDBRANCH   8  14
BRANCH  10  15
ATOM     15  C   UNL     1      10.789   5.623   5.217  0.00  0.00    +0.103 C 
BRANCH  15  19
ATOM      1  O   UNL     1      10.594   3.952   3.478  0.00  0.00    -0.276 OA
ATOM      4  N   UNL     1      11.296   6.097   2.930  0.00  0.00    -0.314 N 
ATOM     19  C   UNL     1      10.871   5.105   3.800  0.00  0.00    +0.214 C 
ATOM     32  H   UNL     1      11.494   7.026   3.294  0.00  0.00    +0.149 HD
BRANCH   4  21
ATOM     21  C   UNL     1      11.468   5.885   1.511  0.00  0.00    +0.119 C 
BRANCH  21  22
ATOM     22  C   UNL     1      10.149   6.036   0.768  0.00  0.00    +0.102 C 
BRANCH  22   6
ATOM      6  N   UNL     1       9.934   4.899  -0.119  0.00  0.00    -0.307 NA
ATOM     24  C   UNL     1      11.145   4.080  -0.211  0.00  0.00    +0.104 C 
ATOM     25  C   UNL     1       9.528   5.353  -1.450  0.00  0.00    +0.104 C 
ENDBRANCH  22   6
ENDBRANCH  21  22
ENDBRANCH   4  21
ENDBRANCH  15  19
ENDBRANCH  10  15
TORSDOF 9
ENDMDL
