MODEL 1
REMARK VINA RESULT:      -7.4      0.000      0.000
REMARK  Name = 45783584
REMARK  8 active torsions:
REMARK  status: ('A' for Active; 'I' for Inactive)
REMARK    1  A    between atoms: O_1  and  C_14
REMARK    2  A    between atoms: O_1  and  C_23
REMARK    3  A    between atoms: N_3  and  C_11
REMARK    4  A    between atoms: C_7  and  C_13
REMARK    5  A    between atoms: C_11  and  C_12
REMARK    6  A    between atoms: C_12  and  C_20
REMARK    7  A    between atoms: C_12  and  C_21
REMARK    8  A    between atoms: C_22  and  C_24
REMARK                            x       y       z     vdW  Elec       q    Type
REMARK                         _______ _______ _______ _____ _____    ______ ____
ROOT
ATOM      2  O   UNL     1      15.389   6.352  18.786  0.00  0.00    -0.336 OA
ATOM      4  N   UNL     1      16.407   7.277  20.554  0.00  0.00    -0.190 NA
ATOM      5  N   UNL     1      16.659   5.765  18.856  0.00  0.00    -0.056 NA
ATOM     13  C   UNL     1      15.324   7.230  19.821  0.00  0.00    +0.245 A 
ATOM     22  C   UNL     1      17.198   6.362  19.924  0.00  0.00    +0.204 A 
ENDROOT
BRANCH  22  24
ATOM      6  N   UNL     1      20.475   4.644  20.289  0.00  0.00    -0.221 NA
ATOM     23  C   UNL     1      21.046   5.445  21.217  0.00  0.00    +0.215 A 
ATOM     24  C   UNL     1      18.523   6.067  20.384  0.00  0.00    +0.041 A 
ATOM     25  C   UNL     1      20.429   6.557  21.767  0.00  0.00    +0.068 A 
ATOM     26  C   UNL     1      19.143   6.867  21.338  0.00  0.00    +0.018 A 
ATOM     27  C   UNL     1      19.225   4.977  19.897  0.00  0.00    +0.126 A 
BRANCH  23   1
ATOM      1  O   UNL     1      22.312   5.119  21.623  0.00  0.00    -0.473 OA
BRANCH   1  14
ATOM     14  C   UNL     1      22.980   4.102  20.883  0.00  0.00    +0.175 C 
ATOM     15  C   UNL     1      23.237   2.896  21.786  0.00  0.00    +0.044 C 
ATOM     16  C   UNL     1      24.281   4.659  20.305  0.00  0.00    +0.044 C 
ATOM     17  C   UNL     1      24.038   1.817  21.065  0.00  0.00    +0.004 C 
ATOM     18  C   UNL     1      25.082   3.579  19.584  0.00  0.00    +0.004 C 
ATOM     19  C   UNL     1      25.336   2.373  20.484  0.00  0.00    +0.000 C 
ENDBRANCH   1  14
ENDBRANCH  23   1
ENDBRANCH  22  24
BRANCH  13   7
ATOM      3  N   UNL     1      12.866   7.271  19.433  0.00  0.00    -0.291 NA
ATOM      7  C   UNL     1      14.030   8.005  19.968  0.00  0.00    +0.146 C 
ATOM      8  C   UNL     1      13.672   8.291  21.437  0.00  0.00    +0.030 C 
ATOM      9  C   UNL     1      11.708   7.712  20.211  0.00  0.00    +0.085 C 
ATOM     10  C   UNL     1      12.266   7.737  21.620  0.00  0.00    +0.017 C 
BRANCH   3  11
ATOM     11  C   UNL     1      12.672   7.464  18.002  0.00  0.00    +0.088 C 
BRANCH  11  12
ATOM     12  C   UNL     1      11.954   8.786  17.679  0.00  0.00    -0.003 C 
ATOM     20  C   UNL     1      10.781   8.598  16.715  0.00  0.00    +0.008 C 
ATOM     21  C   UNL     1      12.953   9.784  17.088  0.00  0.00    +0.008 C 
ENDBRANCH  11  12
ENDBRANCH   3  11
ENDBRANCH  13   7
TORSDOF 6
ENDMDL
MODEL 2
REMARK VINA RESULT:      -7.4      1.174      2.514
REMARK  Name = 45783584
REMARK  8 active torsions:
REMARK  status: ('A' for Active; 'I' for Inactive)
REMARK    1  A    between atoms: O_1  and  C_14
REMARK    2  A    between atoms: O_1  and  C_23
REMARK    3  A    between atoms: N_3  and  C_11
REMARK    4  A    between atoms: C_7  and  C_13
REMARK    5  A    between atoms: C_11  and  C_12
REMARK    6  A    between atoms: C_12  and  C_20
REMARK    7  A    between atoms: C_12  and  C_21
REMARK    8  A    between atoms: C_22  and  C_24
REMARK                            x       y       z     vdW  Elec       q    Type
REMARK                         _______ _______ _______ _____ _____    ______ ____
ROOT
ATOM      2  O   UNL     1      15.628   8.565  19.968  0.00  0.00    -0.336 OA
ATOM      4  N   UNL     1      16.307   6.475  19.530  0.00  0.00    -0.190 NA
ATOM      5  N   UNL     1      16.888   8.430  20.567  0.00  0.00    -0.056 NA
ATOM     13  C   UNL     1      15.362   7.368  19.381  0.00  0.00    +0.245 A 
ATOM     22  C   UNL     1      17.222   7.172  20.264  0.00  0.00    +0.204 A 
ENDROOT
BRANCH  22  24
ATOM      6  N   UNL     1      20.306   6.539  22.240  0.00  0.00    -0.221 NA
ATOM     23  C   UNL     1      20.821   5.510  21.530  0.00  0.00    +0.215 A 
ATOM     24  C   UNL     1      18.460   6.582  20.681  0.00  0.00    +0.041 A 
ATOM     25  C   UNL     1      20.224   4.970  20.403  0.00  0.00    +0.068 A 
ATOM     26  C   UNL     1      19.021   5.522  19.976  0.00  0.00    +0.018 A 
ATOM     27  C   UNL     1      19.137   7.050  21.796  0.00  0.00    +0.126 A 
BRANCH  23   1
ATOM      1  O   UNL     1      22.006   4.984  21.971  0.00  0.00    -0.473 OA
BRANCH   1  14
ATOM     14  C   UNL     1      22.680   4.095  21.086  0.00  0.00    +0.175 C 
ATOM     15  C   UNL     1      23.033   2.805  21.826  0.00  0.00    +0.044 C 
ATOM     16  C   UNL     1      23.926   4.778  20.523  0.00  0.00    +0.044 C 
ATOM     17  C   UNL     1      23.843   1.858  20.947  0.00  0.00    +0.004 C 
ATOM     18  C   UNL     1      24.736   3.831  19.644  0.00  0.00    +0.004 C 
ATOM     19  C   UNL     1      25.086   2.542  20.381  0.00  0.00    +0.000 C 
ENDBRANCH   1  14
ENDBRANCH  23   1
ENDBRANCH  22  24
BRANCH  13   7
ATOM      3  N   UNL     1      12.978   8.076  19.274  0.00  0.00    -0.291 NA
ATOM      7  C   UNL     1      14.038   7.254  18.655  0.00  0.00    +0.146 C 
ATOM      8  C   UNL     1      14.114   7.746  17.198  0.00  0.00    +0.030 C 
ATOM      9  C   UNL     1      12.062   8.449  18.195  0.00  0.00    +0.085 C 
ATOM     10  C   UNL     1      13.021   8.799  17.076  0.00  0.00    +0.017 C 
BRANCH   3  11
ATOM     11  C   UNL     1      12.292   7.400  20.368  0.00  0.00    +0.088 C 
BRANCH  11  12
ATOM     12  C   UNL     1      11.101   8.212  20.906  0.00  0.00    -0.003 C 
ATOM     20  C   UNL     1      11.531   9.535  21.544  0.00  0.00    +0.008 C 
ATOM     21  C   UNL     1      10.326   7.375  21.927  0.00  0.00    +0.008 C 
ENDBRANCH  11  12
ENDBRANCH   3  11
ENDBRANCH  13   7
TORSDOF 6
ENDMDL
MODEL 3
REMARK VINA RESULT:      -7.0      1.659     10.267
REMARK  Name = 45783584
REMARK  8 active torsions:
REMARK  status: ('A' for Active; 'I' for Inactive)
REMARK    1  A    between atoms: O_1  and  C_14
REMARK    2  A    between atoms: O_1  and  C_23
REMARK    3  A    between atoms: N_3  and  C_11
REMARK    4  A    between atoms: C_7  and  C_13
REMARK    5  A    between atoms: C_11  and  C_12
REMARK    6  A    between atoms: C_12  and  C_20
REMARK    7  A    between atoms: C_12  and  C_21
REMARK    8  A    between atoms: C_22  and  C_24
REMARK                            x       y       z     vdW  Elec       q    Type
REMARK                         _______ _______ _______ _____ _____    ______ ____
ROOT
ATOM      2  O   UNL     1      21.112   5.917  23.157  0.00  0.00    -0.336 OA
ATOM      4  N   UNL     1      20.816   5.773  20.942  0.00  0.00    -0.190 NA
ATOM      5  N   UNL     1      19.781   6.283  22.917  0.00  0.00    -0.056 NA
ATOM     13  C   UNL     1      21.650   5.634  21.942  0.00  0.00    +0.245 A 
ATOM     22  C   UNL     1      19.684   6.172  21.588  0.00  0.00    +0.204 A 
ENDROOT
BRANCH  22  24
ATOM      6  N   UNL     1      16.431   7.739  20.705  0.00  0.00    -0.221 NA
ATOM     23  C   UNL     1      16.144   7.044  19.581  0.00  0.00    +0.215 A 
ATOM     24  C   UNL     1      18.471   6.455  20.879  0.00  0.00    +0.041 A 
ATOM     25  C   UNL     1      16.958   6.056  19.052  0.00  0.00    +0.068 A 
ATOM     26  C   UNL     1      18.142   5.761  19.719  0.00  0.00    +0.018 A 
ATOM     27  C   UNL     1      17.589   7.425  21.326  0.00  0.00    +0.126 A 
BRANCH  23   1
ATOM      1  O   UNL     1      14.973   7.353  18.942  0.00  0.00    -0.473 OA
BRANCH   1  14
ATOM     14  C   UNL     1      13.923   7.875  19.749  0.00  0.00    +0.175 C 
ATOM     15  C   UNL     1      12.809   6.836  19.877  0.00  0.00    +0.044 C 
ATOM     16  C   UNL     1      13.407   9.179  19.139  0.00  0.00    +0.044 C 
ATOM     17  C   UNL     1      11.617   7.385  20.652  0.00  0.00    +0.004 C 
ATOM     18  C   UNL     1      12.214   9.728  19.915  0.00  0.00    +0.004 C 
ATOM     19  C   UNL     1      11.103   8.689  20.046  0.00  0.00    +0.000 C 
ENDBRANCH   1  14
ENDBRANCH  23   1
ENDBRANCH  22  24
BRANCH  13   7
ATOM      3  N   UNL     1      23.380   4.166  20.919  0.00  0.00    -0.291 NA
ATOM      7  C   UNL     1      23.102   5.206  21.930  0.00  0.00    +0.146 C 
ATOM      8  C   UNL     1      24.059   6.360  21.576  0.00  0.00    +0.030 C 
ATOM      9  C   UNL     1      24.774   4.346  20.513  0.00  0.00    +0.085 C 
ATOM     10  C   UNL     1      24.874   5.853  20.395  0.00  0.00    +0.017 C 
BRANCH   3  11
ATOM     11  C   UNL     1      23.118   2.815  21.399  0.00  0.00    +0.088 C 
BRANCH  11  12
ATOM     12  C   UNL     1      24.335   2.196  22.107  0.00  0.00    -0.003 C 
ATOM     20  C   UNL     1      24.683   0.805  21.572  0.00  0.00    +0.008 C 
ATOM     21  C   UNL     1      24.071   2.117  23.614  0.00  0.00    +0.008 C 
ENDBRANCH  11  12
ENDBRANCH   3  11
ENDBRANCH  13   7
TORSDOF 6
ENDMDL
MODEL 4
REMARK VINA RESULT:      -6.9      1.659     10.234
REMARK  Name = 45783584
REMARK  8 active torsions:
REMARK  status: ('A' for Active; 'I' for Inactive)
REMARK    1  A    between atoms: O_1  and  C_14
REMARK    2  A    between atoms: O_1  and  C_23
REMARK    3  A    between atoms: N_3  and  C_11
REMARK    4  A    between atoms: C_7  and  C_13
REMARK    5  A    between atoms: C_11  and  C_12
REMARK    6  A    between atoms: C_12  and  C_20
REMARK    7  A    between atoms: C_12  and  C_21
REMARK    8  A    between atoms: C_22  and  C_24
REMARK                            x       y       z     vdW  Elec       q    Type
REMARK                         _______ _______ _______ _____ _____    ______ ____
ROOT
ATOM      2  O   UNL     1      21.637   6.068  21.531  0.00  0.00    -0.336 OA
ATOM      4  N   UNL     1      20.229   4.665  20.500  0.00  0.00    -0.190 NA
ATOM      5  N   UNL     1      20.474   6.804  21.272  0.00  0.00    -0.056 NA
ATOM     13  C   UNL     1      21.409   4.820  21.044  0.00  0.00    +0.245 A 
ATOM     22  C   UNL     1      19.691   5.907  20.663  0.00  0.00    +0.204 A 
ENDROOT
BRANCH  22  24
ATOM      6  N   UNL     1      16.587   5.839  18.619  0.00  0.00    -0.221 NA
ATOM     23  C   UNL     1      15.866   6.776  19.274  0.00  0.00    +0.215 A 
ATOM     24  C   UNL     1      18.370   6.223  20.205  0.00  0.00    +0.041 A 
ATOM     25  C   UNL     1      16.321   7.469  20.384  0.00  0.00    +0.068 A 
ATOM     26  C   UNL     1      17.598   7.182  20.852  0.00  0.00    +0.018 A 
ATOM     27  C   UNL     1      17.824   5.587  19.102  0.00  0.00    +0.126 A 
BRANCH  23   1
ATOM      1  O   UNL     1      14.611   7.041  18.794  0.00  0.00    -0.473 OA
BRANCH   1  14
ATOM     14  C   UNL     1      13.686   7.623  19.706  0.00  0.00    +0.175 C 
ATOM     15  C   UNL     1      12.602   6.605  20.058  0.00  0.00    +0.044 C 
ATOM     16  C   UNL     1      13.089   8.890  19.093  0.00  0.00    +0.044 C 
ATOM     17  C   UNL     1      11.532   7.213  20.958  0.00  0.00    +0.004 C 
ATOM     18  C   UNL     1      12.018   9.498  19.993  0.00  0.00    +0.004 C 
ATOM     19  C   UNL     1      10.938   8.480  20.347  0.00  0.00    +0.000 C 
ENDBRANCH   1  14
ENDBRANCH  23   1
ENDBRANCH  22  24
BRANCH  13   7
ATOM      3  N   UNL     1      23.866   4.456  21.209  0.00  0.00    -0.291 NA
ATOM      7  C   UNL     1      22.534   3.818  21.204  0.00  0.00    +0.146 C 
ATOM      8  C   UNL     1      22.462   3.052  22.537  0.00  0.00    +0.030 C 
ATOM      9  C   UNL     1      24.728   3.605  22.029  0.00  0.00    +0.085 C 
ATOM     10  C   UNL     1      23.818   3.266  23.193  0.00  0.00    +0.017 C 
BRANCH   3  11
ATOM     11  C   UNL     1      24.409   4.662  19.872  0.00  0.00    +0.088 C 
BRANCH  11  12
ATOM     12  C   UNL     1      25.947   4.635  19.852  0.00  0.00    -0.003 C 
ATOM     20  C   UNL     1      26.555   5.999  19.518  0.00  0.00    +0.008 C 
ATOM     21  C   UNL     1      26.432   3.593  18.841  0.00  0.00    +0.008 C 
ENDBRANCH  11  12
ENDBRANCH   3  11
ENDBRANCH  13   7
TORSDOF 6
ENDMDL
MODEL 5
REMARK VINA RESULT:      -6.8      2.359      3.549
REMARK  Name = 45783584
REMARK  8 active torsions:
REMARK  status: ('A' for Active; 'I' for Inactive)
REMARK    1  A    between atoms: O_1  and  C_14
REMARK    2  A    between atoms: O_1  and  C_23
REMARK    3  A    between atoms: N_3  and  C_11
REMARK    4  A    between atoms: C_7  and  C_13
REMARK    5  A    between atoms: C_11  and  C_12
REMARK    6  A    between atoms: C_12  and  C_20
REMARK    7  A    between atoms: C_12  and  C_21
REMARK    8  A    between atoms: C_22  and  C_24
REMARK                            x       y       z     vdW  Elec       q    Type
REMARK                         _______ _______ _______ _____ _____    ______ ____
ROOT
ATOM      2  O   UNL     1      13.019   7.426  19.410  0.00  0.00    -0.336 OA
ATOM      4  N   UNL     1      14.931   8.061  18.432  0.00  0.00    -0.190 NA
ATOM      5  N   UNL     1      14.039   6.706  20.045  0.00  0.00    -0.056 NA
ATOM     13  C   UNL     1      13.630   8.199  18.474  0.00  0.00    +0.245 A 
ATOM     22  C   UNL     1      15.136   7.136  19.413  0.00  0.00    +0.204 A 
ENDROOT
BRANCH  22  24
ATOM      6  N   UNL     1      18.351   5.288  19.152  0.00  0.00    -0.221 NA
ATOM     23  C   UNL     1      18.945   5.708  20.292  0.00  0.00    +0.215 A 
ATOM     24  C   UNL     1      16.448   6.660  19.737  0.00  0.00    +0.041 A 
ATOM     25  C   UNL     1      18.363   6.587  21.190  0.00  0.00    +0.068 A 
ATOM     26  C   UNL     1      17.090   7.067  20.901  0.00  0.00    +0.018 A 
ATOM     27  C   UNL     1      17.115   5.776  18.903  0.00  0.00    +0.126 A 
BRANCH  23   1
ATOM      1  O   UNL     1      20.197   5.221  20.554  0.00  0.00    -0.473 OA
BRANCH   1  14
ATOM     14  C   UNL     1      21.036   6.023  21.378  0.00  0.00    +0.175 C 
ATOM     15  C   UNL     1      22.068   6.744  20.510  0.00  0.00    +0.044 C 
ATOM     16  C   UNL     1      21.707   5.146  22.435  0.00  0.00    +0.044 C 
ATOM     17  C   UNL     1      23.053   7.542  21.357  0.00  0.00    +0.004 C 
ATOM     18  C   UNL     1      22.693   5.944  23.283  0.00  0.00    +0.004 C 
ATOM     19  C   UNL     1      23.721   6.667  22.416  0.00  0.00    +0.000 C 
ENDBRANCH   1  14
ENDBRANCH  23   1
ENDBRANCH  22  24
BRANCH  13   7
ATOM      3  N   UNL     1      12.852   8.817  16.192  0.00  0.00    -0.291 NA
ATOM      7  C   UNL     1      12.730   9.085  17.639  0.00  0.00    +0.146 C 
ATOM      8  C   UNL     1      11.236   8.878  17.950  0.00  0.00    +0.030 C 
ATOM      9  C   UNL     1      11.555   9.145  15.600  0.00  0.00    +0.085 C 
ATOM     10  C   UNL     1      10.591   8.556  16.610  0.00  0.00    +0.017 C 
BRANCH   3  11
ATOM     11  C   UNL     1      13.944   9.548  15.562  0.00  0.00    +0.088 C 
BRANCH  11  12
ATOM     12  C   UNL     1      13.914  11.050  15.894  0.00  0.00    -0.003 C 
ATOM     20  C   UNL     1      13.808  11.926  14.643  0.00  0.00    +0.008 C 
ATOM     21  C   UNL     1      15.169  11.429  16.684  0.00  0.00    +0.008 C 
ENDBRANCH  11  12
ENDBRANCH   3  11
ENDBRANCH  13   7
TORSDOF 6
ENDMDL
MODEL 6
REMARK VINA RESULT:      -6.7      1.826     10.209
REMARK  Name = 45783584
REMARK  8 active torsions:
REMARK  status: ('A' for Active; 'I' for Inactive)
REMARK    1  A    between atoms: O_1  and  C_14
REMARK    2  A    between atoms: O_1  and  C_23
REMARK    3  A    between atoms: N_3  and  C_11
REMARK    4  A    between atoms: C_7  and  C_13
REMARK    5  A    between atoms: C_11  and  C_12
REMARK    6  A    between atoms: C_12  and  C_20
REMARK    7  A    between atoms: C_12  and  C_21
REMARK    8  A    between atoms: C_22  and  C_24
REMARK                            x       y       z     vdW  Elec       q    Type
REMARK                         _______ _______ _______ _____ _____    ______ ____
ROOT
ATOM      2  O   UNL     1      20.898   4.338  20.487  0.00  0.00    -0.336 OA
ATOM      4  N   UNL     1      20.437   6.231  21.593  0.00  0.00    -0.190 NA
ATOM      5  N   UNL     1      19.642   4.760  20.032  0.00  0.00    -0.056 NA
ATOM     13  C   UNL     1      21.294   5.259  21.405  0.00  0.00    +0.245 A 
ATOM     22  C   UNL     1      19.441   5.882  20.730  0.00  0.00    +0.204 A 
ENDROOT
BRANCH  22  24
ATOM      6  N   UNL     1      16.963   8.599  21.272  0.00  0.00    -0.221 NA
ATOM     23  C   UNL     1      16.019   8.225  20.379  0.00  0.00    +0.215 A 
ATOM     24  C   UNL     1      18.254   6.673  20.590  0.00  0.00    +0.041 A 
ATOM     25  C   UNL     1      16.119   7.105  19.570  0.00  0.00    +0.068 A 
ATOM     26  C   UNL     1      17.261   6.319  19.683  0.00  0.00    +0.018 A 
ATOM     27  C   UNL     1      18.058   7.812  21.355  0.00  0.00    +0.126 A 
BRANCH  23   1
ATOM      1  O   UNL     1      14.904   9.014  20.287  0.00  0.00    -0.473 OA
BRANCH   1  14
ATOM     14  C   UNL     1      13.648   8.346  20.238  0.00  0.00    +0.175 C 
ATOM     15  C   UNL     1      12.641   9.201  19.470  0.00  0.00    +0.044 C 
ATOM     16  C   UNL     1      13.168   8.054  21.660  0.00  0.00    +0.044 C 
ATOM     17  C   UNL     1      11.253   8.572  19.474  0.00  0.00    +0.004 C 
ATOM     18  C   UNL     1      11.778   7.425  21.665  0.00  0.00    +0.004 C 
ATOM     19  C   UNL     1      10.774   8.277  20.894  0.00  0.00    +0.000 C 
ENDBRANCH   1  14
ENDBRANCH  23   1
ENDBRANCH  22  24
BRANCH  13   7
ATOM      3  N   UNL     1      23.766   5.469  21.205  0.00  0.00    -0.291 NA
ATOM      7  C   UNL     1      22.642   5.027  22.055  0.00  0.00    +0.146 C 
ATOM      8  C   UNL     1      22.812   5.812  23.368  0.00  0.00    +0.030 C 
ATOM      9  C   UNL     1      24.843   5.859  22.115  0.00  0.00    +0.085 C 
ATOM     10  C   UNL     1      24.089   6.620  23.186  0.00  0.00    +0.017 C 
BRANCH   3  11
ATOM     11  C   UNL     1      24.195   4.457  20.248  0.00  0.00    +0.088 C 
BRANCH  11  12
ATOM     12  C   UNL     1      24.917   3.277  20.923  0.00  0.00    -0.003 C 
ATOM     20  C   UNL     1      26.307   3.024  20.334  0.00  0.00    +0.008 C 
ATOM     21  C   UNL     1      24.065   2.011  20.798  0.00  0.00    +0.008 C 
ENDBRANCH  11  12
ENDBRANCH   3  11
ENDBRANCH  13   7
TORSDOF 6
ENDMDL
MODEL 7
REMARK VINA RESULT:      -6.6     29.592     32.061
REMARK  Name = 45783584
REMARK  8 active torsions:
REMARK  status: ('A' for Active; 'I' for Inactive)
REMARK    1  A    between atoms: O_1  and  C_14
REMARK    2  A    between atoms: O_1  and  C_23
REMARK    3  A    between atoms: N_3  and  C_11
REMARK    4  A    between atoms: C_7  and  C_13
REMARK    5  A    between atoms: C_11  and  C_12
REMARK    6  A    between atoms: C_12  and  C_20
REMARK    7  A    between atoms: C_12  and  C_21
REMARK    8  A    between atoms: C_22  and  C_24
REMARK                            x       y       z     vdW  Elec       q    Type
REMARK                         _______ _______ _______ _____ _____    ______ ____
ROOT
ATOM      2  O   UNL     1     -13.388  -6.397  12.728  0.00  0.00    -0.336 OA
ATOM      4  N   UNL     1     -11.891  -5.568  14.174  0.00  0.00    -0.190 NA
ATOM      5  N   UNL     1     -12.877  -7.495  13.432  0.00  0.00    -0.056 NA
ATOM     13  C   UNL     1     -12.754  -5.302  13.226  0.00  0.00    +0.245 A 
ATOM     22  C   UNL     1     -12.001  -6.924  14.266  0.00  0.00    +0.204 A 
ENDROOT
BRANCH  22  24
ATOM      6  N   UNL     1     -10.369  -9.827  15.918  0.00  0.00    -0.221 NA
ATOM     23  C   UNL     1      -9.753  -9.187  16.938  0.00  0.00    +0.215 A 
ATOM     24  C   UNL     1     -11.220  -7.682  15.198  0.00  0.00    +0.041 A 
ATOM     25  C   UNL     1      -9.823  -7.821  17.151  0.00  0.00    +0.068 A 
ATOM     26  C   UNL     1     -10.573  -7.060  16.261  0.00  0.00    +0.018 A 
ATOM     27  C   UNL     1     -11.088  -9.056  15.073  0.00  0.00    +0.126 A 
BRANCH  23   1
ATOM      1  O   UNL     1      -9.021  -9.958  17.801  0.00  0.00    -0.473 OA
BRANCH   1  14
ATOM     14  C   UNL     1      -7.615  -9.733  17.826  0.00  0.00    +0.175 C 
ATOM     15  C   UNL     1      -7.050  -9.866  16.412  0.00  0.00    +0.044 C 
ATOM     16  C   UNL     1      -6.955 -10.719  18.789  0.00  0.00    +0.044 C 
ATOM     17  C   UNL     1      -5.531  -9.730  16.400  0.00  0.00    +0.004 C 
ATOM     18  C   UNL     1      -5.435 -10.583  18.778  0.00  0.00    +0.004 C 
ATOM     19  C   UNL     1      -4.871 -10.712  17.365  0.00  0.00    +0.000 C 
ENDBRANCH   1  14
ENDBRANCH  23   1
ENDBRANCH  22  24
BRANCH  13   7
ATOM      3  N   UNL     1     -13.116  -3.986  11.145  0.00  0.00    -0.291 NA
ATOM      7  C   UNL     1     -13.138  -3.968  12.622  0.00  0.00    +0.146 C 
ATOM      8  C   UNL     1     -14.571  -3.539  12.987  0.00  0.00    +0.030 C 
ATOM      9  C   UNL     1     -14.111  -3.008  10.706  0.00  0.00    +0.085 C 
ATOM     10  C   UNL     1     -15.260  -3.280  11.655  0.00  0.00    +0.017 C 
BRANCH   3  11
ATOM     11  C   UNL     1     -11.798  -3.717  10.587  0.00  0.00    +0.088 C 
BRANCH  11  12
ATOM     12  C   UNL     1     -11.483  -4.602   9.368  0.00  0.00    -0.003 C 
ATOM     20  C   UNL     1     -11.657  -6.093   9.663  0.00  0.00    +0.008 C 
ATOM     21  C   UNL     1     -10.054  -4.333   8.889  0.00  0.00    +0.008 C 
ENDBRANCH  11  12
ENDBRANCH   3  11
ENDBRANCH  13   7
TORSDOF 6
ENDMDL
MODEL 8
REMARK VINA RESULT:      -6.6     27.788     32.582
REMARK  Name = 45783584
REMARK  8 active torsions:
REMARK  status: ('A' for Active; 'I' for Inactive)
REMARK    1  A    between atoms: O_1  and  C_14
REMARK    2  A    between atoms: O_1  and  C_23
REMARK    3  A    between atoms: N_3  and  C_11
REMARK    4  A    between atoms: C_7  and  C_13
REMARK    5  A    between atoms: C_11  and  C_12
REMARK    6  A    between atoms: C_12  and  C_20
REMARK    7  A    between atoms: C_12  and  C_21
REMARK    8  A    between atoms: C_22  and  C_24
REMARK                            x       y       z     vdW  Elec       q    Type
REMARK                         _______ _______ _______ _____ _____    ______ ____
ROOT
ATOM      2  O   UNL     1      -8.738 -11.355  15.540  0.00  0.00    -0.336 OA
ATOM      4  N   UNL     1      -8.540  -9.348  16.516  0.00  0.00    -0.190 NA
ATOM      5  N   UNL     1      -9.741 -10.551  14.985  0.00  0.00    -0.056 NA
ATOM     13  C   UNL     1      -8.078 -10.570  16.433  0.00  0.00    +0.245 A 
ATOM     22  C   UNL     1      -9.559  -9.383  15.610  0.00  0.00    +0.204 A 
ENDROOT
BRANCH  22  24
ATOM      6  N   UNL     1     -12.068  -7.166  13.996  0.00  0.00    -0.221 NA
ATOM     23  C   UNL     1     -11.968  -6.086  14.805  0.00  0.00    +0.215 A 
ATOM     24  C   UNL     1     -10.379  -8.236  15.354  0.00  0.00    +0.041 A 
ATOM     25  C   UNL     1     -11.110  -6.008  15.890  0.00  0.00    +0.068 A 
ATOM     26  C   UNL     1     -10.303  -7.108  16.163  0.00  0.00    +0.018 A 
ATOM     27  C   UNL     1     -11.269  -8.214  14.292  0.00  0.00    +0.126 A 
BRANCH  23   1
ATOM      1  O   UNL     1     -12.772  -5.017  14.515  0.00  0.00    -0.473 OA
BRANCH   1  14
ATOM     14  C   UNL     1     -13.176  -4.869  13.158  0.00  0.00    +0.175 C 
ATOM     15  C   UNL     1     -12.267  -3.857  12.460  0.00  0.00    +0.044 C 
ATOM     16  C   UNL     1     -14.641  -4.439  13.103  0.00  0.00    +0.044 C 
ATOM     17  C   UNL     1     -12.720  -3.591  11.029  0.00  0.00    +0.004 C 
ATOM     18  C   UNL     1     -15.095  -4.172  11.671  0.00  0.00    +0.004 C 
ATOM     19  C   UNL     1     -14.185  -3.164  10.973  0.00  0.00    +0.000 C 
ENDBRANCH   1  14
ENDBRANCH  23   1
ENDBRANCH  22  24
BRANCH  13   7
ATOM      3  N   UNL     1      -5.794 -10.294  17.382  0.00  0.00    -0.291 NA
ATOM      7  C   UNL     1      -6.929 -11.216  17.179  0.00  0.00    +0.146 C 
ATOM      8  C   UNL     1      -7.322 -11.671  18.597  0.00  0.00    +0.030 C 
ATOM      9  C   UNL     1      -5.135 -10.717  18.618  0.00  0.00    +0.085 C 
ATOM     10  C   UNL     1      -6.316 -11.003  19.522  0.00  0.00    +0.017 C 
BRANCH   3  11
ATOM     11  C   UNL     1      -4.874 -10.258  16.253  0.00  0.00    +0.088 C 
BRANCH  11  12
ATOM     12  C   UNL     1      -3.726 -11.273  16.397  0.00  0.00    -0.003 C 
ATOM     20  C   UNL     1      -2.352 -10.643  16.160  0.00  0.00    +0.008 C 
ATOM     21  C   UNL     1      -3.937 -12.433  15.420  0.00  0.00    +0.008 C 
ENDBRANCH  11  12
ENDBRANCH   3  11
ENDBRANCH  13   7
TORSDOF 6
ENDMDL
MODEL 9
REMARK VINA RESULT:      -6.5     29.007     32.802
REMARK  Name = 45783584
REMARK  8 active torsions:
REMARK  status: ('A' for Active; 'I' for Inactive)
REMARK    1  A    between atoms: O_1  and  C_14
REMARK    2  A    between atoms: O_1  and  C_23
REMARK    3  A    between atoms: N_3  and  C_11
REMARK    4  A    between atoms: C_7  and  C_13
REMARK    5  A    between atoms: C_11  and  C_12
REMARK    6  A    between atoms: C_12  and  C_20
REMARK    7  A    between atoms: C_12  and  C_21
REMARK    8  A    between atoms: C_22  and  C_24
REMARK                            x       y       z     vdW  Elec       q    Type
REMARK                         _______ _______ _______ _____ _____    ______ ____
ROOT
ATOM      2  O   UNL     1      -7.645 -10.765  15.970  0.00  0.00    -0.336 OA
ATOM      4  N   UNL     1      -8.119  -8.864  17.057  0.00  0.00    -0.190 NA
ATOM      5  N   UNL     1      -8.789 -10.239  15.356  0.00  0.00    -0.056 NA
ATOM     13  C   UNL     1      -7.317  -9.894  16.961  0.00  0.00    +0.245 A 
ATOM     22  C   UNL     1      -9.006  -9.119  16.053  0.00  0.00    +0.204 A 
ENDROOT
BRANCH  22  24
ATOM      6  N   UNL     1     -12.036  -7.710  14.425  0.00  0.00    -0.221 NA
ATOM     23  C   UNL     1     -12.201  -6.600  15.179  0.00  0.00    +0.215 A 
ATOM     24  C   UNL     1     -10.100  -8.237  15.772  0.00  0.00    +0.041 A 
ATOM     25  C   UNL     1     -11.370  -6.245  16.228  0.00  0.00    +0.068 A 
ATOM     26  C   UNL     1     -10.300  -7.084  16.525  0.00  0.00    +0.018 A 
ATOM     27  C   UNL     1     -10.987  -8.501  14.742  0.00  0.00    +0.126 A 
BRANCH  23   1
ATOM      1  O   UNL     1     -13.260  -5.790  14.868  0.00  0.00    -0.473 OA
BRANCH   1  14
ATOM     14  C   UNL     1     -13.384  -5.393  13.506  0.00  0.00    +0.175 C 
ATOM     15  C   UNL     1     -12.305  -4.365  13.171  0.00  0.00    +0.044 C 
ATOM     16  C   UNL     1     -14.786  -4.836  13.260  0.00  0.00    +0.044 C 
ATOM     17  C   UNL     1     -12.456  -3.836  11.749  0.00  0.00    +0.004 C 
ATOM     18  C   UNL     1     -14.938  -4.307  11.838  0.00  0.00    +0.004 C 
ATOM     19  C   UNL     1     -13.858  -3.282  11.502  0.00  0.00    +0.000 C 
ENDBRANCH   1  14
ENDBRANCH  23   1
ENDBRANCH  22  24
BRANCH  13   7
ATOM      3  N   UNL     1      -6.174 -11.593  18.376  0.00  0.00    -0.291 NA
ATOM      7  C   UNL     1      -6.095 -10.241  17.786  0.00  0.00    +0.146 C 
ATOM      8  C   UNL     1      -4.799 -10.252  16.954  0.00  0.00    +0.030 C 
ATOM      9  C   UNL     1      -4.796 -12.069  18.502  0.00  0.00    +0.085 C 
ATOM     10  C   UNL     1      -4.189 -11.627  17.186  0.00  0.00    +0.017 C 
BRANCH   3  11
ATOM     11  C   UNL     1      -6.884 -11.624  19.647  0.00  0.00    +0.088 C 
BRANCH  11  12
ATOM     12  C   UNL     1      -8.193 -12.429  19.570  0.00  0.00    -0.003 C 
ATOM     20  C   UNL     1      -8.269 -13.310  18.320  0.00  0.00    +0.008 C 
ATOM     21  C   UNL     1      -9.389 -11.474  19.601  0.00  0.00    +0.008 C 
ENDBRANCH  11  12
ENDBRANCH   3  11
ENDBRANCH  13   7
TORSDOF 6
ENDMDL
MODEL 10
REMARK VINA RESULT:      -6.5      2.170      9.876
REMARK  Name = 45783584
REMARK  8 active torsions:
REMARK  status: ('A' for Active; 'I' for Inactive)
REMARK    1  A    between atoms: O_1  and  C_14
REMARK    2  A    between atoms: O_1  and  C_23
REMARK    3  A    between atoms: N_3  and  C_11
REMARK    4  A    between atoms: C_7  and  C_13
REMARK    5  A    between atoms: C_11  and  C_12
REMARK    6  A    between atoms: C_12  and  C_20
REMARK    7  A    between atoms: C_12  and  C_21
REMARK    8  A    between atoms: C_22  and  C_24
REMARK                            x       y       z     vdW  Elec       q    Type
REMARK                         _______ _______ _______ _____ _____    ______ ____
ROOT
ATOM      2  O   UNL     1      21.807   7.397  22.081  0.00  0.00    -0.336 OA
ATOM      4  N   UNL     1      20.042   6.129  22.623  0.00  0.00    -0.190 NA
ATOM      5  N   UNL     1      20.782   7.758  21.197  0.00  0.00    -0.056 NA
ATOM     13  C   UNL     1      21.288   6.433  22.885  0.00  0.00    +0.245 A 
ATOM     22  C   UNL     1      19.774   6.967  21.580  0.00  0.00    +0.204 A 
ENDROOT
BRANCH  22  24
ATOM      6  N   UNL     1      16.292   7.973  20.755  0.00  0.00    -0.221 NA
ATOM     23  C   UNL     1      16.029   7.084  19.771  0.00  0.00    +0.215 A 
ATOM     24  C   UNL     1      18.492   6.989  20.941  0.00  0.00    +0.041 A 
ATOM     25  C   UNL     1      16.930   6.132  19.325  0.00  0.00    +0.068 A 
ATOM     26  C   UNL     1      18.184   6.089  19.926  0.00  0.00    +0.018 A 
ATOM     27  C   UNL     1      17.520   7.902  21.316  0.00  0.00    +0.126 A 
BRANCH  23   1
ATOM      1  O   UNL     1      14.788   7.146  19.194  0.00  0.00    -0.473 OA
BRANCH   1  14
ATOM     14  C   UNL     1      13.743   7.706  19.983  0.00  0.00    +0.175 C 
ATOM     15  C   UNL     1      12.633   6.673  20.171  0.00  0.00    +0.044 C 
ATOM     16  C   UNL     1      13.221   8.977  19.314  0.00  0.00    +0.044 C 
ATOM     17  C   UNL     1      11.446   7.257  20.928  0.00  0.00    +0.004 C 
ATOM     18  C   UNL     1      12.032   9.562  20.071  0.00  0.00    +0.004 C 
ATOM     19  C   UNL     1      10.925   8.529  20.262  0.00  0.00    +0.000 C 
ENDBRANCH   1  14
ENDBRANCH  23   1
ENDBRANCH  22  24
BRANCH  13   7
ATOM      3  N   UNL     1      23.319   5.078  23.368  0.00  0.00    -0.291 NA
ATOM      7  C   UNL     1      22.212   5.868  23.944  0.00  0.00    +0.146 C 
ATOM      8  C   UNL     1      22.904   6.964  24.775  0.00  0.00    +0.030 C 
ATOM      9  C   UNL     1      24.441   5.201  24.299  0.00  0.00    +0.085 C 
ATOM     10  C   UNL     1      24.393   6.673  24.656  0.00  0.00    +0.017 C 
BRANCH   3  11
ATOM     11  C   UNL     1      22.963   3.687  23.118  0.00  0.00    +0.088 C 
BRANCH  11  12
ATOM     12  C   UNL     1      22.981   3.336  21.621  0.00  0.00    -0.003 C 
ATOM     20  C   UNL     1      23.805   4.325  20.794  0.00  0.00    +0.008 C 
ATOM     21  C   UNL     1      21.547   3.285  21.085  0.00  0.00    +0.008 C 
ENDBRANCH  11  12
ENDBRANCH   3  11
ENDBRANCH  13   7
TORSDOF 6
ENDMDL
