REMARK  Name = 28962290
REMARK  15 active torsions:
REMARK  status: ('A' for Active; 'I' for Inactive)
REMARK    1  A    between atoms: O_2  and  C_13
REMARK    2  A    between atoms: O_3  and  C_16
REMARK    3  A    between atoms: O_5  and  C_29
REMARK    4  A    between atoms: O_5  and  C_32
REMARK    5  A    between atoms: O_6  and  C_30
REMARK    6  A    between atoms: O_6  and  C_33
REMARK    7  A    between atoms: N_7  and  C_11
REMARK    8  A    between atoms: N_7  and  C_17
REMARK    9  A    between atoms: N_7  and  C_18
REMARK   10  A    between atoms: N_8  and  C_15
REMARK   11  A    between atoms: N_9  and  C_24
REMARK   12  A    between atoms: C_12  and  C_15
REMARK   13  A    between atoms: C_14  and  C_16
REMARK   14  A    between atoms: C_17  and  C_19
REMARK   15  A    between atoms: C_19  and  C_20
REMARK                            x       y       z     vdW  Elec       q    Type
REMARK                         _______ _______ _______ _____ _____    ______ ____
ROOT
ATOM      1  O   UNL     1      -2.900  -2.856  -0.711  0.00  0.00    -0.365 OA
ATOM     11  C   UNL     1      -3.686  -0.626  -0.431  0.00  0.00    +0.118 C 
ATOM     12  C   UNL     1      -2.445  -1.526  -0.375  0.00  0.00    +0.155 C 
ATOM     13  C   UNL     1      -4.825  -1.596  -0.154  0.00  0.00    +0.165 C 
ATOM     14  C   UNL     1      -4.329  -2.832  -0.895  0.00  0.00    +0.174 C 
ENDROOT
BRANCH  13   2
ATOM      2  O   UNL     1      -4.950  -1.869   1.236  0.00  0.00    -0.388 OA
ATOM     34  H   UNL     1      -5.753  -2.404   1.359  0.00  0.00    +0.210 HD
ENDBRANCH  13   2
BRANCH  11   7
ATOM      7  N   UNL     1      -3.660   0.556   0.412  0.00  0.00    -0.297 NA
ATOM     18  C   UNL     1      -5.016   1.071   0.631  0.00  0.00    +0.105 C 
BRANCH   7  17
ATOM     17  C   UNL     1      -2.816   1.600  -0.178  0.00  0.00    +0.090 C 
BRANCH  17  19
ATOM     19  C   UNL     1      -2.421   2.642   0.869  0.00  0.00    +0.071 C 
BRANCH  19  20
ATOM     10  N   UNL     1      -2.224   4.807  -0.228  0.00  0.00    -0.260 NA
ATOM     20  C   UNL     1      -1.571   3.733   0.270  0.00  0.00    +0.042 A 
ATOM     22  C   UNL     1      -0.193   3.590   0.257  0.00  0.00    +0.023 A 
ATOM     23  C   UNL     1       0.563   4.615  -0.301  0.00  0.00    +0.003 A 
ATOM     25  C   UNL     1      -1.456   5.783  -0.762  0.00  0.00    +0.111 A 
ATOM     26  C   UNL     1      -0.073   5.736  -0.823  0.00  0.00    +0.020 A 
ENDBRANCH  19  20
ENDBRANCH  17  19
ENDBRANCH   7  17
ENDBRANCH  11   7
BRANCH  12  15
ATOM     15  C   UNL     1      -1.728  -1.620   0.968  0.00  0.00    +0.139 C 
BRANCH  15   8
ATOM      4  O   UNL     1       0.600  -0.009   0.538  0.00  0.00    -0.253 OA
ATOM      8  N   UNL     1      -0.384  -2.085   0.803  0.00  0.00    -0.297 N 
ATOM      9  N   UNL     1       1.895  -1.966   0.470  0.00  0.00    -0.269 N 
ATOM     21  C   UNL     1       0.713  -1.231   0.595  0.00  0.00    +0.304 C 
ATOM     35  H   UNL     1      -0.217  -3.087   0.826  0.00  0.00    +0.150 HD
ATOM     37  H   UNL     1       1.813  -2.977   0.541  0.00  0.00    +0.156 HD
BRANCH   9  24
ATOM     24  C   UNL     1       3.203  -1.474   0.253  0.00  0.00    +0.042 A 
ATOM     27  C   UNL     1       4.274  -2.362   0.152  0.00  0.00    +0.069 A 
ATOM     28  C   UNL     1       3.423  -0.101   0.141  0.00  0.00    +0.069 A 
ATOM     29  C   UNL     1       4.714   0.383  -0.072  0.00  0.00    +0.125 A 
ATOM     30  C   UNL     1       5.565  -1.878  -0.061  0.00  0.00    +0.125 A 
ATOM     31  C   UNL     1       5.785  -0.505  -0.173  0.00  0.00    +0.091 A 
BRANCH  29   5
ATOM      5  O   UNL     1       4.928   1.723  -0.180  0.00  0.00    -0.495 OA
ATOM     32  C   UNL     1       3.789   2.574  -0.067  0.00  0.00    +0.277 C 
ENDBRANCH  29   5
BRANCH  30   6
ATOM      6  O   UNL     1       6.610  -2.744  -0.159  0.00  0.00    -0.495 OA
ATOM     33  C   UNL     1       7.902  -2.181  -0.377  0.00  0.00    +0.277 C 
ENDBRANCH  30   6
ENDBRANCH   9  24
ENDBRANCH  15   8
ENDBRANCH  12  15
BRANCH  14  16
ATOM     16  C   UNL     1      -4.916  -4.152  -0.431  0.00  0.00    +0.190 C 
BRANCH  16   3
ATOM      3  O   UNL     1      -4.370  -5.199  -1.217  0.00  0.00    -0.392 OA
ATOM     36  H   UNL     1      -4.764  -6.030  -0.902  0.00  0.00    +0.210 HD
ENDBRANCH  16   3
ENDBRANCH  14  16
TORSDOF 12
