REMARK  Name = 75367142
REMARK  5 active torsions:
REMARK  status: ('A' for Active; 'I' for Inactive)
REMARK    1  A    between atoms: O_3  and  C_16
REMARK    2  A    between atoms: N_4  and  C_6
REMARK    3  A    between atoms: C_6  and  C_9
REMARK    4  A    between atoms: C_9  and  C_10
REMARK    5  A    between atoms: C_12  and  C_13
REMARK                            x       y       z     vdW  Elec       q    Type
REMARK                         _______ _______ _______ _____ _____    ______ ____
ROOT
ATOM      2  O   UNL     1       0.180  -1.648   0.218  0.00  0.00    -0.354 OA
ATOM      5  N   UNL     1      -1.173  -1.599   0.530  0.00  0.00    -0.083 NA
ATOM     10  C   UNL     1      -1.409  -0.323   0.848  0.00  0.00    +0.086 A 
ATOM     11  C   UNL     1      -0.253   0.472   0.756  0.00  0.00    +0.076 A 
ATOM     12  C   UNL     1       0.717  -0.409   0.356  0.00  0.00    +0.168 A 
ENDROOT
BRANCH  12  13
ATOM     13  C   UNL     1       2.117  -0.301   0.064  0.00  0.00    +0.023 A 
ATOM     14  C   UNL     1       2.760   0.932   0.172  0.00  0.00    +0.057 A 
ATOM     15  C   UNL     1       2.835  -1.430  -0.330  0.00  0.00    +0.012 A 
ATOM     16  C   UNL     1       4.121   1.036  -0.114  0.00  0.00    +0.118 A 
ATOM     17  C   UNL     1       4.197  -1.325  -0.616  0.00  0.00    +0.004 A 
ATOM     18  C   UNL     1       4.840  -0.092  -0.508  0.00  0.00    +0.045 A 
BRANCH  16   3
ATOM      3  O   UNL     1       4.748   2.240  -0.009  0.00  0.00    -0.507 OA
ATOM     21  H   UNL     1       5.685   2.129  -0.244  0.00  0.00    +0.292 HD
ENDBRANCH  16   3
ENDBRANCH  12  13
BRANCH  10   9
ATOM      9  C   UNL     1      -2.800   0.111   1.249  0.00  0.00    +0.085 C 
BRANCH   9   6
ATOM      1  O   UNL     1      -5.234  -0.145  -1.136  0.00  0.00    -0.376 OA
ATOM      6  C   UNL     1      -3.587   0.543   0.038  0.00  0.00    +0.069 C 
ATOM      7  C   UNL     1      -3.815  -0.452  -1.107  0.00  0.00    +0.184 C 
ATOM      8  C   UNL     1      -5.119   0.578   0.118  0.00  0.00    +0.184 C 
BRANCH   6   4
ATOM      4  N   UNL     1      -3.124   1.812  -0.530  0.00  0.00    -0.321 NA
ATOM     19  H   UNL     1      -3.154   2.592   0.126  0.00  0.00    +0.119 HD
ATOM     20  H   UNL     1      -3.634   2.122  -1.357  0.00  0.00    +0.119 HD
ENDBRANCH   6   4
ENDBRANCH   9   6
ENDBRANCH  10   9
TORSDOF 5
