MODEL 1
REMARK VINA RESULT:      -8.6      0.000      0.000
REMARK  Name = 7142422
REMARK  3 active torsions:
REMARK  status: ('A' for Active; 'I' for Inactive)
REMARK    1  A    between atoms: C_18  and  C_22
REMARK    2  A    between atoms: C_21  and  C_24
REMARK    3  A    between atoms: C_31  and  C_35
REMARK                            x       y       z     vdW  Elec       q    Type
REMARK                         _______ _______ _______ _____ _____    ______ ____
ROOT
ATOM      4  O   UNL     1     -10.127 -10.848  20.550  0.00  0.00    -0.273 OA
ATOM      5  O   UNL     1      -8.388  -8.463  16.166  0.00  0.00    -0.270 OA
ATOM      6  O   UNL     1     -13.781 -12.172  19.386  0.00  0.00    -0.270 OA
ATOM      7  N   UNL     1      -9.739  -9.845  17.435  0.00  0.00    -0.283 N 
ATOM      8  N   UNL     1     -12.330 -10.587  18.525  0.00  0.00    -0.294 N 
ATOM      9  N   UNL     1      -8.022 -10.675  19.697  0.00  0.00    -0.283 N 
ATOM     10  C   UNL     1      -9.903 -11.098  18.159  0.00  0.00    +0.180 C 
ATOM     11  C   UNL     1     -11.349 -11.607  18.143  0.00  0.00    +0.140 C 
ATOM     12  C   UNL     1     -10.956  -9.111  17.081  0.00  0.00    +0.128 C 
ATOM     13  C   UNL     1     -12.004  -9.197  18.180  0.00  0.00    +0.127 C 
ATOM     14  C   UNL     1      -9.385 -10.835  19.564  0.00  0.00    +0.239 C 
ATOM     15  C   UNL     1      -8.514  -9.416  16.937  0.00  0.00    +0.249 C 
ATOM     16  C   UNL     1      -7.274 -10.113  17.374  0.00  0.00    +0.059 A 
ATOM     17  C   UNL     1      -7.052 -10.588  18.677  0.00  0.00    +0.046 A 
ATOM     18  C   UNL     1     -13.545 -10.994  19.112  0.00  0.00    +0.247 C 
ATOM     19  C   UNL     1      -6.216 -10.122  16.447  0.00  0.00    +0.023 A 
ATOM     20  C   UNL     1      -5.755 -10.993  19.042  0.00  0.00    +0.024 A 
ATOM     21  C   UNL     1      -4.948 -10.572  16.811  0.00  0.00    -0.017 A 
ATOM     23  C   UNL     1      -4.714 -10.995  18.113  0.00  0.00    +0.010 A 
ATOM     36  H   UNL     1      -7.667 -10.723  20.649  0.00  0.00    +0.155 HD
ENDROOT
BRANCH  18  22
ATOM     22  C   UNL     1     -14.540  -9.959  19.380  0.00  0.00    +0.037 A 
ATOM     25  C   UNL     1     -15.333  -9.475  18.343  0.00  0.00    +0.013 A 
ATOM     26  C   UNL     1     -14.691  -9.463  20.672  0.00  0.00    +0.013 A 
ATOM     29  C   UNL     1     -16.283  -8.488  18.599  0.00  0.00    +0.001 A 
ATOM     30  C   UNL     1     -15.642  -8.475  20.928  0.00  0.00    +0.001 A 
ATOM     32  C   UNL     1     -16.438  -7.987  19.892  0.00  0.00    +0.000 A 
ENDBRANCH  18  22
BRANCH  21  24
ATOM     24  C   UNL     1      -3.874 -10.577  15.843  0.00  0.00    -0.017 A 
ATOM     27  C   UNL     1      -4.163 -10.570  14.479  0.00  0.00    +0.021 A 
ATOM     28  C   UNL     1      -2.546 -10.590  16.274  0.00  0.00    +0.008 A 
ATOM     31  C   UNL     1      -3.127 -10.576  13.545  0.00  0.00    +0.055 A 
ATOM     33  C   UNL     1      -1.510 -10.596  15.341  0.00  0.00    +0.001 A 
ATOM     34  C   UNL     1      -1.800 -10.589  13.976  0.00  0.00    +0.012 A 
BRANCH  31  35
ATOM      1  F   UNL     1      -3.705 -11.808  11.579  0.00  0.00    -0.166 F 
ATOM      2  F   UNL     1      -2.421 -10.081  11.314  0.00  0.00    -0.166 F 
ATOM      3  F   UNL     1      -4.526  -9.804  11.784  0.00  0.00    -0.166 F 
ATOM     35  C   UNL     1      -3.436 -10.569  12.086  0.00  0.00    +0.417 C 
ENDBRANCH  31  35
ENDBRANCH  21  24
TORSDOF 3
ENDMDL
MODEL 2
REMARK VINA RESULT:      -8.0     29.316     34.159
REMARK  Name = 7142422
REMARK  3 active torsions:
REMARK  status: ('A' for Active; 'I' for Inactive)
REMARK    1  A    between atoms: C_18  and  C_22
REMARK    2  A    between atoms: C_21  and  C_24
REMARK    3  A    between atoms: C_31  and  C_35
REMARK                            x       y       z     vdW  Elec       q    Type
REMARK                         _______ _______ _______ _____ _____    ______ ____
ROOT
ATOM      4  O   UNL     1      22.045   5.663  21.555  0.00  0.00    -0.273 OA
ATOM      5  O   UNL     1      18.478   9.562  21.536  0.00  0.00    -0.270 OA
ATOM      6  O   UNL     1      23.312   5.710  25.409  0.00  0.00    -0.270 OA
ATOM      7  N   UNL     1      19.889   7.983  22.465  0.00  0.00    -0.283 N 
ATOM      8  N   UNL     1      22.174   7.246  24.104  0.00  0.00    -0.294 N 
ATOM      9  N   UNL     1      20.097   5.878  20.396  0.00  0.00    -0.283 N 
ATOM     10  C   UNL     1      20.165   6.584  22.758  0.00  0.00    +0.180 C 
ATOM     11  C   UNL     1      20.980   6.397  24.043  0.00  0.00    +0.140 C 
ATOM     12  C   UNL     1      20.651   8.987  23.210  0.00  0.00    +0.128 C 
ATOM     13  C   UNL     1      22.091   8.549  23.434  0.00  0.00    +0.127 C 
ATOM     14  C   UNL     1      20.869   6.033  21.528  0.00  0.00    +0.239 C 
ATOM     15  C   UNL     1      18.843   8.390  21.645  0.00  0.00    +0.249 C 
ATOM     16  C   UNL     1      18.133   7.372  20.823  0.00  0.00    +0.059 A 
ATOM     17  C   UNL     1      18.765   6.290  20.187  0.00  0.00    +0.046 A 
ATOM     18  C   UNL     1      23.282   6.813  24.860  0.00  0.00    +0.247 C 
ATOM     19  C   UNL     1      16.781   7.643  20.543  0.00  0.00    +0.023 A 
ATOM     20  C   UNL     1      18.046   5.549  19.232  0.00  0.00    +0.024 A 
ATOM     21  C   UNL     1      16.069   6.868  19.630  0.00  0.00    -0.017 A 
ATOM     23  C   UNL     1      16.705   5.828  18.964  0.00  0.00    +0.010 A 
ATOM     36  H   UNL     1      20.510   5.311  19.660  0.00  0.00    +0.155 HD
ENDROOT
BRANCH  18  22
ATOM     22  C   UNL     1      24.409   7.733  24.985  0.00  0.00    +0.037 A 
ATOM     25  C   UNL     1      25.442   7.693  24.052  0.00  0.00    +0.013 A 
ATOM     26  C   UNL     1      24.445   8.645  26.036  0.00  0.00    +0.013 A 
ATOM     29  C   UNL     1      26.518   8.572  24.171  0.00  0.00    +0.001 A 
ATOM     30  C   UNL     1      25.521   9.524  26.155  0.00  0.00    +0.001 A 
ATOM     32  C   UNL     1      26.558   9.487  25.223  0.00  0.00    +0.000 A 
ENDBRANCH  18  22
BRANCH  21  24
ATOM     24  C   UNL     1      14.679   7.159  19.359  0.00  0.00    -0.017 A 
ATOM     27  C   UNL     1      13.725   7.009  20.365  0.00  0.00    +0.021 A 
ATOM     28  C   UNL     1      14.291   7.590  18.089  0.00  0.00    +0.008 A 
ATOM     31  C   UNL     1      12.384   7.289  20.104  0.00  0.00    +0.055 A 
ATOM     33  C   UNL     1      12.950   7.870  17.827  0.00  0.00    +0.001 A 
ATOM     34  C   UNL     1      11.996   7.719  18.834  0.00  0.00    +0.012 A 
BRANCH  31  35
ATOM      1  F   UNL     1      11.732   7.687  22.370  0.00  0.00    -0.166 F 
ATOM      2  F   UNL     1      11.077   5.825  21.471  0.00  0.00    -0.166 F 
ATOM      3  F   UNL     1      10.168   7.703  20.858  0.00  0.00    -0.166 F 
ATOM     35  C   UNL     1      11.363   7.128  21.179  0.00  0.00    +0.417 C 
ENDBRANCH  31  35
ENDBRANCH  21  24
TORSDOF 3
ENDMDL
MODEL 3
REMARK VINA RESULT:      -7.7     28.970     33.691
REMARK  Name = 7142422
REMARK  3 active torsions:
REMARK  status: ('A' for Active; 'I' for Inactive)
REMARK    1  A    between atoms: C_18  and  C_22
REMARK    2  A    between atoms: C_21  and  C_24
REMARK    3  A    between atoms: C_31  and  C_35
REMARK                            x       y       z     vdW  Elec       q    Type
REMARK                         _______ _______ _______ _____ _____    ______ ____
ROOT
ATOM      4  O   UNL     1      21.639   6.941  23.125  0.00  0.00    -0.273 OA
ATOM      5  O   UNL     1      17.592   5.402  20.095  0.00  0.00    -0.270 OA
ATOM      6  O   UNL     1      24.818   5.448  21.093  0.00  0.00    -0.270 OA
ATOM      7  N   UNL     1      19.800   5.843  20.621  0.00  0.00    -0.283 N 
ATOM      8  N   UNL     1      22.549   4.991  21.030  0.00  0.00    -0.294 N 
ATOM      9  N   UNL     1      19.655   7.965  22.677  0.00  0.00    -0.283 N 
ATOM     10  C   UNL     1      20.851   6.825  20.846  0.00  0.00    +0.180 C 
ATOM     11  C   UNL     1      22.241   6.306  20.461  0.00  0.00    +0.140 C 
ATOM     12  C   UNL     1      20.216   4.461  20.377  0.00  0.00    +0.128 C 
ATOM     13  C   UNL     1      21.418   4.076  21.227  0.00  0.00    +0.127 C 
ATOM     14  C   UNL     1      20.751   7.211  22.313  0.00  0.00    +0.239 C 
ATOM     15  C   UNL     1      18.462   6.190  20.471  0.00  0.00    +0.249 C 
ATOM     16  C   UNL     1      18.034   7.574  20.809  0.00  0.00    +0.059 A 
ATOM     17  C   UNL     1      18.539   8.315  21.890  0.00  0.00    +0.046 A 
ATOM     18  C   UNL     1      23.896   4.650  21.272  0.00  0.00    +0.247 C 
ATOM     19  C   UNL     1      16.932   8.069  20.088  0.00  0.00    +0.023 A 
ATOM     20  C   UNL     1      17.881   9.500  22.268  0.00  0.00    +0.024 A 
ATOM     21  C   UNL     1      16.322   9.270  20.446  0.00  0.00    -0.017 A 
ATOM     23  C   UNL     1      16.788   9.980  21.545  0.00  0.00    +0.010 A 
ATOM     36  H   UNL     1      19.710   8.401  23.595  0.00  0.00    +0.155 HD
ENDROOT
BRANCH  18  22
ATOM     22  C   UNL     1      24.171   3.293  21.738  0.00  0.00    +0.037 A 
ATOM     25  C   UNL     1      24.271   2.253  20.819  0.00  0.00    +0.013 A 
ATOM     26  C   UNL     1      24.332   3.049  23.099  0.00  0.00    +0.013 A 
ATOM     29  C   UNL     1      24.534   0.958  21.264  0.00  0.00    +0.001 A 
ATOM     30  C   UNL     1      24.595   1.754  23.544  0.00  0.00    +0.001 A 
ATOM     32  C   UNL     1      24.696   0.708  22.627  0.00  0.00    +0.000 A 
ENDBRANCH  18  22
BRANCH  21  24
ATOM     24  C   UNL     1      15.193   9.764  19.690  0.00  0.00    -0.017 A 
ATOM     27  C   UNL     1      14.185   8.888  19.287  0.00  0.00    +0.021 A 
ATOM     28  C   UNL     1      15.111  11.118  19.363  0.00  0.00    +0.008 A 
ATOM     31  C   UNL     1      13.097   9.364  18.557  0.00  0.00    +0.055 A 
ATOM     33  C   UNL     1      14.023  11.596  18.633  0.00  0.00    +0.001 A 
ATOM     34  C   UNL     1      13.015  10.719  18.229  0.00  0.00    +0.012 A 
BRANCH  31  35
ATOM      1  F   UNL     1      12.416   7.122  18.080  0.00  0.00    -0.166 F 
ATOM      2  F   UNL     1      11.530   8.694  16.878  0.00  0.00    -0.166 F 
ATOM      3  F   UNL     1      10.937   8.454  18.956  0.00  0.00    -0.166 F 
ATOM     35  C   UNL     1      12.019   8.428  18.124  0.00  0.00    +0.417 C 
ENDBRANCH  31  35
ENDBRANCH  21  24
TORSDOF 3
ENDMDL
MODEL 4
REMARK VINA RESULT:      -7.5      7.008      9.532
REMARK  Name = 7142422
REMARK  3 active torsions:
REMARK  status: ('A' for Active; 'I' for Inactive)
REMARK    1  A    between atoms: C_18  and  C_22
REMARK    2  A    between atoms: C_21  and  C_24
REMARK    3  A    between atoms: C_31  and  C_35
REMARK                            x       y       z     vdW  Elec       q    Type
REMARK                         _______ _______ _______ _____ _____    ______ ____
ROOT
ATOM      4  O   UNL     1      -6.452  -9.715   7.165  0.00  0.00    -0.273 OA
ATOM      5  O   UNL     1      -7.641 -10.482  12.258  0.00  0.00    -0.270 OA
ATOM      6  O   UNL     1      -8.858  -6.591   6.208  0.00  0.00    -0.270 OA
ATOM      7  N   UNL     1      -7.564  -9.345  10.245  0.00  0.00    -0.283 N 
ATOM      8  N   UNL     1      -8.862  -8.107   7.958  0.00  0.00    -0.294 N 
ATOM      9  N   UNL     1      -5.145 -10.393   8.902  0.00  0.00    -0.283 N 
ATOM     10  C   UNL     1      -6.784  -8.589   9.275  0.00  0.00    +0.180 C 
ATOM     11  C   UNL     1      -7.624  -7.555   8.516  0.00  0.00    +0.140 C 
ATOM     12  C   UNL     1      -9.022  -9.253  10.151  0.00  0.00    +0.128 C 
ATOM     13  C   UNL     1      -9.491  -9.204   8.704  0.00  0.00    +0.127 C 
ATOM     14  C   UNL     1      -6.150  -9.622   8.357  0.00  0.00    +0.239 C 
ATOM     15  C   UNL     1      -6.989 -10.001  11.329  0.00  0.00    +0.249 C 
ATOM     16  C   UNL     1      -5.511 -10.167  11.369  0.00  0.00    +0.059 A 
ATOM     17  C   UNL     1      -4.716 -10.443  10.245  0.00  0.00    +0.046 A 
ATOM     18  C   UNL     1      -9.418  -7.512   6.807  0.00  0.00    +0.247 C 
ATOM     19  C   UNL     1      -4.935 -10.219  12.651  0.00  0.00    +0.023 A 
ATOM     20  C   UNL     1      -3.379 -10.836  10.438  0.00  0.00    +0.024 A 
ATOM     21  C   UNL     1      -3.595 -10.562  12.821  0.00  0.00    -0.017 A 
ATOM     23  C   UNL     1      -2.820 -10.884  11.715  0.00  0.00    +0.010 A 
ATOM     36  H   UNL     1      -4.584 -10.915   8.234  0.00  0.00    +0.155 HD
ENDROOT
BRANCH  18  22
ATOM     22  C   UNL     1     -10.706  -8.021   6.343  0.00  0.00    +0.037 A 
ATOM     25  C   UNL     1     -11.884  -7.424   6.782  0.00  0.00    +0.013 A 
ATOM     26  C   UNL     1     -10.748  -9.100   5.465  0.00  0.00    +0.013 A 
ATOM     29  C   UNL     1     -13.114  -7.909   6.339  0.00  0.00    +0.001 A 
ATOM     30  C   UNL     1     -11.978  -9.586   5.022  0.00  0.00    +0.001 A 
ATOM     32  C   UNL     1     -13.161  -8.991   5.459  0.00  0.00    +0.000 A 
ENDBRANCH  18  22
BRANCH  21  24
ATOM     24  C   UNL     1      -3.019 -10.606  14.147  0.00  0.00    -0.017 A 
ATOM     27  C   UNL     1      -3.807 -10.970  15.239  0.00  0.00    +0.021 A 
ATOM     28  C   UNL     1      -1.674 -10.284  14.335  0.00  0.00    +0.008 A 
ATOM     31  C   UNL     1      -3.252 -11.011  16.518  0.00  0.00    +0.055 A 
ATOM     33  C   UNL     1      -1.118 -10.325  15.613  0.00  0.00    +0.001 A 
ATOM     34  C   UNL     1      -1.907 -10.689  16.705  0.00  0.00    +0.012 A 
BRANCH  31  35
ATOM      1  F   UNL     1      -3.369 -11.792  18.775  0.00  0.00    -0.166 F 
ATOM      2  F   UNL     1      -4.942 -12.438  17.428  0.00  0.00    -0.166 F 
ATOM      3  F   UNL     1      -4.888 -10.378  18.122  0.00  0.00    -0.166 F 
ATOM     35  C   UNL     1      -4.094 -11.399  17.686  0.00  0.00    +0.417 C 
ENDBRANCH  31  35
ENDBRANCH  21  24
TORSDOF 3
ENDMDL
MODEL 5
REMARK VINA RESULT:      -7.5     20.706     23.563
REMARK  Name = 7142422
REMARK  3 active torsions:
REMARK  status: ('A' for Active; 'I' for Inactive)
REMARK    1  A    between atoms: C_18  and  C_22
REMARK    2  A    between atoms: C_21  and  C_24
REMARK    3  A    between atoms: C_31  and  C_35
REMARK                            x       y       z     vdW  Elec       q    Type
REMARK                         _______ _______ _______ _____ _____    ______ ____
ROOT
ATOM      4  O   UNL     1       7.038  -5.129  33.752  0.00  0.00    -0.273 OA
ATOM      5  O   UNL     1       5.742 -10.108  34.962  0.00  0.00    -0.270 OA
ATOM      6  O   UNL     1       9.357  -4.079  36.911  0.00  0.00    -0.270 OA
ATOM      7  N   UNL     1       6.936  -8.132  35.105  0.00  0.00    -0.283 N 
ATOM      8  N   UNL     1       7.834  -5.789  36.572  0.00  0.00    -0.294 N 
ATOM      9  N   UNL     1       6.700  -6.937  32.409  0.00  0.00    -0.283 N 
ATOM     10  C   UNL     1       7.927  -7.236  34.527  0.00  0.00    +0.180 C 
ATOM     11  C   UNL     1       8.700  -6.444  35.588  0.00  0.00    +0.140 C 
ATOM     12  C   UNL     1       6.600  -7.939  36.517  0.00  0.00    +0.128 C 
ATOM     13  C   UNL     1       6.571  -6.465  36.892  0.00  0.00    +0.127 C 
ATOM     14  C   UNL     1       7.165  -6.341  33.562  0.00  0.00    +0.239 C 
ATOM     15  C   UNL     1       6.431  -9.237  34.428  0.00  0.00    +0.249 C 
ATOM     16  C   UNL     1       6.704  -9.377  32.972  0.00  0.00    +0.059 A 
ATOM     17  C   UNL     1       6.720  -8.304  32.065  0.00  0.00    +0.046 A 
ATOM     18  C   UNL     1       8.288  -4.616  37.209  0.00  0.00    +0.247 C 
ATOM     19  C   UNL     1       6.769 -10.694  32.483  0.00  0.00    +0.023 A 
ATOM     20  C   UNL     1       6.729  -8.580  30.686  0.00  0.00    +0.024 A 
ATOM     21  C   UNL     1       6.826 -10.948  31.114  0.00  0.00    -0.017 A 
ATOM     23  C   UNL     1       6.793  -9.891  30.214  0.00  0.00    +0.010 A 
ATOM     36  H   UNL     1       6.394  -6.297  31.680  0.00  0.00    +0.155 HD
ENDROOT
BRANCH  18  22
ATOM     22  C   UNL     1       7.445  -4.053  38.259  0.00  0.00    +0.037 A 
ATOM     25  C   UNL     1       7.696  -4.367  39.592  0.00  0.00    +0.013 A 
ATOM     26  C   UNL     1       6.394  -3.205  37.922  0.00  0.00    +0.013 A 
ATOM     29  C   UNL     1       6.891  -3.829  40.595  0.00  0.00    +0.001 A 
ATOM     30  C   UNL     1       5.589  -2.666  38.925  0.00  0.00    +0.001 A 
ATOM     32  C   UNL     1       5.836  -2.978  40.262  0.00  0.00    +0.000 A 
ENDBRANCH  18  22
BRANCH  21  24
ATOM     24  C   UNL     1       6.897 -12.310  30.631  0.00  0.00    -0.017 A 
ATOM     27  C   UNL     1       5.802 -12.876  29.977  0.00  0.00    +0.021 A 
ATOM     28  C   UNL     1       8.060 -13.058  30.819  0.00  0.00    +0.008 A 
ATOM     31  C   UNL     1       5.870 -14.189  29.512  0.00  0.00    +0.055 A 
ATOM     33  C   UNL     1       8.128 -14.371  30.355  0.00  0.00    +0.001 A 
ATOM     34  C   UNL     1       7.033 -14.937  29.701  0.00  0.00    +0.012 A 
BRANCH  31  35
ATOM      1  F   UNL     1       3.628 -13.955  28.714  0.00  0.00    -0.166 F 
ATOM      2  F   UNL     1       4.218 -15.917  29.426  0.00  0.00    -0.166 F 
ATOM      3  F   UNL     1       4.991 -15.173  27.534  0.00  0.00    -0.166 F 
ATOM     35  C   UNL     1       4.700 -14.796  28.813  0.00  0.00    +0.417 C 
ENDBRANCH  31  35
ENDBRANCH  21  24
TORSDOF 3
ENDMDL
MODEL 6
REMARK VINA RESULT:      -7.5      5.419     10.917
REMARK  Name = 7142422
REMARK  3 active torsions:
REMARK  status: ('A' for Active; 'I' for Inactive)
REMARK    1  A    between atoms: C_18  and  C_22
REMARK    2  A    between atoms: C_21  and  C_24
REMARK    3  A    between atoms: C_31  and  C_35
REMARK                            x       y       z     vdW  Elec       q    Type
REMARK                         _______ _______ _______ _____ _____    ______ ____
ROOT
ATOM      4  O   UNL     1      -7.051 -13.428  17.837  0.00  0.00    -0.273 OA
ATOM      5  O   UNL     1     -10.134  -9.144  17.566  0.00  0.00    -0.270 OA
ATOM      6  O   UNL     1      -3.425 -11.797  18.645  0.00  0.00    -0.270 OA
ATOM      7  N   UNL     1      -8.241 -10.365  18.089  0.00  0.00    -0.283 N 
ATOM      8  N   UNL     1      -5.400 -10.919  17.817  0.00  0.00    -0.294 N 
ATOM      9  N   UNL     1      -9.227 -13.133  18.438  0.00  0.00    -0.283 N 
ATOM     10  C   UNL     1      -7.597 -11.353  18.944  0.00  0.00    +0.180 C 
ATOM     11  C   UNL     1      -6.091 -11.113  19.095  0.00  0.00    +0.140 C 
ATOM     12  C   UNL     1      -7.371  -9.515  17.275  0.00  0.00    +0.128 C 
ATOM     13  C   UNL     1      -6.171 -10.283  16.741  0.00  0.00    +0.127 C 
ATOM     14  C   UNL     1      -7.921 -12.706  18.331  0.00  0.00    +0.239 C 
ATOM     15  C   UNL     1      -9.605 -10.098  18.139  0.00  0.00    +0.249 C 
ATOM     16  C   UNL     1     -10.493 -11.021  18.897  0.00  0.00    +0.059 A 
ATOM     17  C   UNL     1     -10.340 -12.417  18.926  0.00  0.00    +0.046 A 
ATOM     18  C   UNL     1      -4.037 -11.265  17.717  0.00  0.00    +0.247 C 
ATOM     19  C   UNL     1     -11.645 -10.441  19.459  0.00  0.00    +0.023 A 
ATOM     20  C   UNL     1     -11.380 -13.203  19.454  0.00  0.00    +0.024 A 
ATOM     21  C   UNL     1     -12.644 -11.233  20.022  0.00  0.00    -0.017 A 
ATOM     23  C   UNL     1     -12.518 -12.615  20.008  0.00  0.00    +0.010 A 
ATOM     36  H   UNL     1      -9.385 -14.116  18.230  0.00  0.00    +0.155 HD
ENDROOT
BRANCH  18  22
ATOM     22  C   UNL     1      -3.357 -10.957  16.462  0.00  0.00    +0.037 A 
ATOM     25  C   UNL     1      -4.072 -10.966  15.267  0.00  0.00    +0.013 A 
ATOM     26  C   UNL     1      -1.998 -10.656  16.467  0.00  0.00    +0.013 A 
ATOM     29  C   UNL     1      -3.423 -10.672  14.069  0.00  0.00    +0.001 A 
ATOM     30  C   UNL     1      -1.349 -10.361  15.268  0.00  0.00    +0.001 A 
ATOM     32  C   UNL     1      -2.061 -10.369  14.069  0.00  0.00    +0.000 A 
ENDBRANCH  18  22
BRANCH  21  24
ATOM     24  C   UNL     1     -13.819 -10.618  20.598  0.00  0.00    -0.017 A 
ATOM     27  C   UNL     1     -14.539 -11.283  21.590  0.00  0.00    +0.021 A 
ATOM     28  C   UNL     1     -14.233  -9.359  20.161  0.00  0.00    +0.008 A 
ATOM     31  C   UNL     1     -15.673 -10.690  22.146  0.00  0.00    +0.055 A 
ATOM     33  C   UNL     1     -15.367  -8.765  20.715  0.00  0.00    +0.001 A 
ATOM     34  C   UNL     1     -16.087  -9.431  21.708  0.00  0.00    +0.012 A 
BRANCH  31  35
ATOM      1  F   UNL     1     -16.707 -12.707  22.908  0.00  0.00    -0.166 F 
ATOM      2  F   UNL     1     -17.663 -10.841  23.464  0.00  0.00    -0.166 F 
ATOM      3  F   UNL     1     -15.791 -11.422  24.405  0.00  0.00    -0.166 F 
ATOM     35  C   UNL     1     -16.444 -11.400  23.207  0.00  0.00    +0.417 C 
ENDBRANCH  31  35
ENDBRANCH  21  24
TORSDOF 3
ENDMDL
MODEL 7
REMARK VINA RESULT:      -7.4      2.236      3.311
REMARK  Name = 7142422
REMARK  3 active torsions:
REMARK  status: ('A' for Active; 'I' for Inactive)
REMARK    1  A    between atoms: C_18  and  C_22
REMARK    2  A    between atoms: C_21  and  C_24
REMARK    3  A    between atoms: C_31  and  C_35
REMARK                            x       y       z     vdW  Elec       q    Type
REMARK                         _______ _______ _______ _____ _____    ______ ____
ROOT
ATOM      4  O   UNL     1     -12.042 -10.489  17.407  0.00  0.00    -0.273 OA
ATOM      5  O   UNL     1      -7.534 -12.999  18.554  0.00  0.00    -0.270 OA
ATOM      6  O   UNL     1     -13.402  -9.488  21.096  0.00  0.00    -0.270 OA
ATOM      7  N   UNL     1      -9.366 -11.641  18.945  0.00  0.00    -0.283 N 
ATOM      8  N   UNL     1     -11.829 -11.018  20.356  0.00  0.00    -0.294 N 
ATOM      9  N   UNL     1     -10.065 -10.566  16.279  0.00  0.00    -0.283 N 
ATOM     10  C   UNL     1     -10.031 -10.363  18.736  0.00  0.00    +0.180 C 
ATOM     11  C   UNL     1     -10.917  -9.956  19.919  0.00  0.00    +0.140 C 
ATOM     12  C   UNL     1      -9.848 -12.476  20.047  0.00  0.00    +0.128 C 
ATOM     13  C   UNL     1     -11.361 -12.399  20.191  0.00  0.00    +0.127 C 
ATOM     14  C   UNL     1     -10.809 -10.508  17.438  0.00  0.00    +0.239 C 
ATOM     15  C   UNL     1      -8.214 -12.014  18.259  0.00  0.00    +0.249 C 
ATOM     16  C   UNL     1      -7.783 -11.209  17.085  0.00  0.00    +0.059 A 
ATOM     17  C   UNL     1      -8.664 -10.645  16.146  0.00  0.00    +0.046 A 
ATOM     18  C   UNL     1     -13.044 -10.662  20.976  0.00  0.00    +0.247 C 
ATOM     19  C   UNL     1      -6.399 -11.181  16.835  0.00  0.00    +0.023 A 
ATOM     20  C   UNL     1      -8.140 -10.132  14.946  0.00  0.00    +0.024 A 
ATOM     21  C   UNL     1      -5.893 -10.625  15.661  0.00  0.00    -0.017 A 
ATOM     23  C   UNL     1      -6.765 -10.112  14.710  0.00  0.00    +0.010 A 
ATOM     36  H   UNL     1     -10.589 -10.439  15.417  0.00  0.00    +0.155 HD
ENDROOT
BRANCH  18  22
ATOM     22  C   UNL     1     -13.876 -11.745  21.493  0.00  0.00    +0.037 A 
ATOM     25  C   UNL     1     -13.646 -12.245  22.771  0.00  0.00    +0.013 A 
ATOM     26  C   UNL     1     -14.895 -12.271  20.704  0.00  0.00    +0.013 A 
ATOM     29  C   UNL     1     -14.441 -13.279  23.265  0.00  0.00    +0.001 A 
ATOM     30  C   UNL     1     -15.690 -13.305  21.198  0.00  0.00    +0.001 A 
ATOM     32  C   UNL     1     -15.463 -13.810  22.478  0.00  0.00    +0.000 A 
ENDBRANCH  18  22
BRANCH  21  24
ATOM     24  C   UNL     1      -4.467 -10.602  15.424  0.00  0.00    -0.017 A 
ATOM     27  C   UNL     1      -3.977 -10.570  14.119  0.00  0.00    +0.021 A 
ATOM     28  C   UNL     1      -3.580 -10.614  16.502  0.00  0.00    +0.008 A 
ATOM     31  C   UNL     1      -2.601 -10.549  13.890  0.00  0.00    +0.055 A 
ATOM     33  C   UNL     1      -2.205 -10.593  16.274  0.00  0.00    +0.001 A 
ATOM     34  C   UNL     1      -1.714 -10.561  14.968  0.00  0.00    +0.012 A 
BRANCH  31  35
ATOM      1  F   UNL     1      -1.137  -9.545  12.288  0.00  0.00    -0.166 F 
ATOM      2  F   UNL     1      -3.038 -10.286  11.553  0.00  0.00    -0.166 F 
ATOM      3  F   UNL     1      -1.478 -11.688  12.130  0.00  0.00    -0.166 F 
ATOM     35  C   UNL     1      -2.076 -10.516  12.494  0.00  0.00    +0.417 C 
ENDBRANCH  31  35
ENDBRANCH  21  24
TORSDOF 3
ENDMDL
MODEL 8
REMARK VINA RESULT:      -7.3     29.342     34.495
REMARK  Name = 7142422
REMARK  3 active torsions:
REMARK  status: ('A' for Active; 'I' for Inactive)
REMARK    1  A    between atoms: C_18  and  C_22
REMARK    2  A    between atoms: C_21  and  C_24
REMARK    3  A    between atoms: C_31  and  C_35
REMARK                            x       y       z     vdW  Elec       q    Type
REMARK                         _______ _______ _______ _____ _____    ______ ____
ROOT
ATOM      4  O   UNL     1      22.090   8.113  22.835  0.00  0.00    -0.273 OA
ATOM      5  O   UNL     1      18.978   4.834  20.099  0.00  0.00    -0.270 OA
ATOM      6  O   UNL     1      25.588   7.839  20.797  0.00  0.00    -0.270 OA
ATOM      7  N   UNL     1      20.829   6.161  20.500  0.00  0.00    -0.283 N 
ATOM      8  N   UNL     1      23.691   6.513  20.861  0.00  0.00    -0.294 N 
ATOM      9  N   UNL     1      19.859   8.220  22.390  0.00  0.00    -0.283 N 
ATOM     10  C   UNL     1      21.400   7.496  20.605  0.00  0.00    +0.180 C 
ATOM     11  C   UNL     1      22.879   7.542  20.206  0.00  0.00    +0.140 C 
ATOM     12  C   UNL     1      21.761   5.043  20.346  0.00  0.00    +0.128 C 
ATOM     13  C   UNL     1      23.022   5.244  21.173  0.00  0.00    +0.127 C 
ATOM     14  C   UNL     1      21.163   7.936  22.042  0.00  0.00    +0.239 C 
ATOM     15  C   UNL     1      19.462   5.932  20.378  0.00  0.00    +0.249 C 
ATOM     16  C   UNL     1      18.519   7.055  20.625  0.00  0.00    +0.059 A 
ATOM     17  C   UNL     1      18.691   8.027  21.625  0.00  0.00    +0.046 A 
ATOM     18  C   UNL     1      25.063   6.758  21.074  0.00  0.00    +0.247 C 
ATOM     19  C   UNL     1      17.306   7.006  19.913  0.00  0.00    +0.023 A 
ATOM     20  C   UNL     1      17.617   8.880  21.936  0.00  0.00    +0.024 A 
ATOM     21  C   UNL     1      16.269   7.891  20.202  0.00  0.00    -0.017 A 
ATOM     23  C   UNL     1      16.419   8.820  21.223  0.00  0.00    +0.010 A 
ATOM     36  H   UNL     1      19.741   8.719  23.269  0.00  0.00    +0.155 HD
ENDROOT
BRANCH  18  22
ATOM     22  C   UNL     1      25.861   5.669  21.632  0.00  0.00    +0.037 A 
ATOM     25  C   UNL     1      26.046   5.582  23.009  0.00  0.00    +0.013 A 
ATOM     26  C   UNL     1      26.431   4.725  20.783  0.00  0.00    +0.013 A 
ATOM     29  C   UNL     1      26.807   4.542  23.541  0.00  0.00    +0.001 A 
ATOM     30  C   UNL     1      27.192   3.685  21.316  0.00  0.00    +0.001 A 
ATOM     32  C   UNL     1      27.381   3.593  22.694  0.00  0.00    +0.000 A 
ENDBRANCH  18  22
BRANCH  21  24
ATOM     24  C   UNL     1      15.031   7.827  19.457  0.00  0.00    -0.017 A 
ATOM     27  C   UNL     1      13.825   8.149  20.078  0.00  0.00    +0.021 A 
ATOM     28  C   UNL     1      15.044   7.442  18.115  0.00  0.00    +0.008 A 
ATOM     31  C   UNL     1      12.631   8.086  19.359  0.00  0.00    +0.055 A 
ATOM     33  C   UNL     1      13.851   7.379  17.396  0.00  0.00    +0.001 A 
ATOM     34  C   UNL     1      12.644   7.701  18.018  0.00  0.00    +0.012 A 
BRANCH  31  35
ATOM      1  F   UNL     1      10.902   7.473  20.894  0.00  0.00    -0.166 F 
ATOM      2  F   UNL     1      10.308   8.615  19.148  0.00  0.00    -0.166 F 
ATOM      3  F   UNL     1      11.415   9.582  20.751  0.00  0.00    -0.166 F 
ATOM     35  C   UNL     1      11.340   8.430  20.023  0.00  0.00    +0.417 C 
ENDBRANCH  31  35
ENDBRANCH  21  24
TORSDOF 3
ENDMDL
MODEL 9
REMARK VINA RESULT:      -7.3      5.250     10.934
REMARK  Name = 7142422
REMARK  3 active torsions:
REMARK  status: ('A' for Active; 'I' for Inactive)
REMARK    1  A    between atoms: C_18  and  C_22
REMARK    2  A    between atoms: C_21  and  C_24
REMARK    3  A    between atoms: C_31  and  C_35
REMARK                            x       y       z     vdW  Elec       q    Type
REMARK                         _______ _______ _______ _____ _____    ______ ____
ROOT
ATOM      4  O   UNL     1      -8.754 -13.052  19.616  0.00  0.00    -0.273 OA
ATOM      5  O   UNL     1     -11.829  -9.333  17.460  0.00  0.00    -0.270 OA
ATOM      6  O   UNL     1      -5.127 -11.235  19.622  0.00  0.00    -0.270 OA
ATOM      7  N   UNL     1      -9.939 -10.196  18.476  0.00  0.00    -0.283 N 
ATOM      8  N   UNL     1      -7.099 -10.815  18.485  0.00  0.00    -0.294 N 
ATOM      9  N   UNL     1     -10.931 -12.518  20.018  0.00  0.00    -0.283 N 
ATOM     10  C   UNL     1      -9.299 -10.701  19.682  0.00  0.00    +0.180 C 
ATOM     11  C   UNL     1      -7.792 -10.420  19.715  0.00  0.00    +0.140 C 
ATOM     12  C   UNL     1      -9.067  -9.798  17.370  0.00  0.00    +0.128 C 
ATOM     13  C   UNL     1      -7.867 -10.724  17.238  0.00  0.00    +0.127 C 
ATOM     14  C   UNL     1      -9.623 -12.185  19.735  0.00  0.00    +0.239 C 
ATOM     15  C   UNL     1     -11.303  -9.933  18.399  0.00  0.00    +0.249 C 
ATOM     16  C   UNL     1     -12.193 -10.422  19.486  0.00  0.00    +0.059 A 
ATOM     17  C   UNL     1     -12.044 -11.659  20.134  0.00  0.00    +0.046 A 
ATOM     18  C   UNL     1      -5.737 -11.170  18.553  0.00  0.00    +0.247 C 
ATOM     19  C   UNL     1     -13.345  -9.652  19.729  0.00  0.00    +0.023 A 
ATOM     20  C   UNL     1     -13.086 -12.128  20.954  0.00  0.00    +0.024 A 
ATOM     21  C   UNL     1     -14.347 -10.109  20.583  0.00  0.00    -0.017 A 
ATOM     23  C   UNL     1     -14.224 -11.354  21.186  0.00  0.00    +0.010 A 
ATOM     36  H   UNL     1     -11.090 -13.491  20.269  0.00  0.00    +0.155 HD
ENDROOT
BRANCH  18  22
ATOM     22  C   UNL     1      -5.054 -11.454  17.293  0.00  0.00    +0.037 A 
ATOM     25  C   UNL     1      -4.367 -10.439  16.634  0.00  0.00    +0.013 A 
ATOM     26  C   UNL     1      -5.094 -12.739  16.760  0.00  0.00    +0.013 A 
ATOM     29  C   UNL     1      -3.715 -10.710  15.432  0.00  0.00    +0.001 A 
ATOM     30  C   UNL     1      -4.441 -13.010  15.557  0.00  0.00    +0.001 A 
ATOM     32  C   UNL     1      -3.752 -11.996  14.893  0.00  0.00    +0.000 A 
ENDBRANCH  18  22
BRANCH  21  24
ATOM     24  C   UNL     1     -15.522  -9.301  20.823  0.00  0.00    -0.017 A 
ATOM     27  C   UNL     1     -15.391  -8.021  21.360  0.00  0.00    +0.021 A 
ATOM     28  C   UNL     1     -16.788  -9.803  20.518  0.00  0.00    +0.008 A 
ATOM     31  C   UNL     1     -16.524  -7.242  21.593  0.00  0.00    +0.055 A 
ATOM     33  C   UNL     1     -17.922  -9.025  20.750  0.00  0.00    +0.001 A 
ATOM     34  C   UNL     1     -17.790  -7.743  21.287  0.00  0.00    +0.012 A 
BRANCH  31  35
ATOM      1  F   UNL     1     -17.516  -5.423  22.787  0.00  0.00    -0.166 F 
ATOM      2  F   UNL     1     -16.083  -4.918  21.240  0.00  0.00    -0.166 F 
ATOM      3  F   UNL     1     -15.397  -5.796  23.107  0.00  0.00    -0.166 F 
ATOM     35  C   UNL     1     -16.385  -5.872  22.168  0.00  0.00    +0.417 C 
ENDBRANCH  31  35
ENDBRANCH  21  24
TORSDOF 3
ENDMDL
MODEL 10
REMARK VINA RESULT:      -7.1      6.754     10.412
REMARK  Name = 7142422
REMARK  3 active torsions:
REMARK  status: ('A' for Active; 'I' for Inactive)
REMARK    1  A    between atoms: C_18  and  C_22
REMARK    2  A    between atoms: C_21  and  C_24
REMARK    3  A    between atoms: C_31  and  C_35
REMARK                            x       y       z     vdW  Elec       q    Type
REMARK                         _______ _______ _______ _____ _____    ______ ____
ROOT
ATOM      4  O   UNL     1      -9.759  -9.456   9.091  0.00  0.00    -0.273 OA
ATOM      5  O   UNL     1      -4.676  -8.642  10.289  0.00  0.00    -0.270 OA
ATOM      6  O   UNL     1      -9.485 -11.215   5.445  0.00  0.00    -0.270 OA
ATOM      7  N   UNL     1      -6.466  -9.556   9.144  0.00  0.00    -0.283 N 
ATOM      8  N   UNL     1      -8.000  -9.968   6.710  0.00  0.00    -0.294 N 
ATOM      9  N   UNL     1      -8.686  -9.514  11.099  0.00  0.00    -0.283 N 
ATOM     10  C   UNL     1      -7.579 -10.494   9.125  0.00  0.00    +0.180 C 
ATOM     11  C   UNL     1      -7.883 -11.025   7.719  0.00  0.00    +0.140 C 
ATOM     12  C   UNL     1      -6.014  -9.025   7.857  0.00  0.00    +0.128 C 
ATOM     13  C   UNL     1      -7.180  -8.768   6.914  0.00  0.00    +0.127 C 
ATOM     14  C   UNL     1      -8.755  -9.754   9.743  0.00  0.00    +0.239 C 
ATOM     15  C   UNL     1      -5.730  -9.281  10.292  0.00  0.00    +0.249 C 
ATOM     16  C   UNL     1      -6.245  -9.749  11.607  0.00  0.00    +0.059 A 
ATOM     17  C   UNL     1      -7.602  -9.746  11.971  0.00  0.00    +0.046 A 
ATOM     18  C   UNL     1      -8.811 -10.191   5.579  0.00  0.00    +0.247 C 
ATOM     19  C   UNL     1      -5.271 -10.036  12.581  0.00  0.00    +0.023 A 
ATOM     20  C   UNL     1      -7.946  -9.961  13.317  0.00  0.00    +0.024 A 
ATOM     21  C   UNL     1      -5.633 -10.295  13.901  0.00  0.00    -0.017 A 
ATOM     23  C   UNL     1      -6.970 -10.245  14.273  0.00  0.00    +0.010 A 
ATOM     36  H   UNL     1      -9.558  -9.225  11.536  0.00  0.00    +0.155 HD
ENDROOT
BRANCH  18  22
ATOM     22  C   UNL     1      -8.818  -9.160   4.545  0.00  0.00    +0.037 A 
ATOM     25  C   UNL     1      -7.913  -9.231   3.490  0.00  0.00    +0.013 A 
ATOM     26  C   UNL     1      -9.732  -8.112   4.620  0.00  0.00    +0.013 A 
ATOM     29  C   UNL     1      -7.921  -8.246   2.502  0.00  0.00    +0.001 A 
ATOM     30  C   UNL     1      -9.740  -7.127   3.632  0.00  0.00    +0.001 A 
ATOM     32  C   UNL     1      -8.834  -7.194   2.574  0.00  0.00    +0.000 A 
ENDBRANCH  18  22
BRANCH  21  24
ATOM     24  C   UNL     1      -4.617 -10.593  14.887  0.00  0.00    -0.017 A 
ATOM     27  C   UNL     1      -4.986 -10.931  16.189  0.00  0.00    +0.021 A 
ATOM     28  C   UNL     1      -3.267 -10.540  14.536  0.00  0.00    +0.008 A 
ATOM     31  C   UNL     1      -4.006 -11.218  17.140  0.00  0.00    +0.055 A 
ATOM     33  C   UNL     1      -2.287 -10.826  15.486  0.00  0.00    +0.001 A 
ATOM     34  C   UNL     1      -2.656 -11.165  16.789  0.00  0.00    +0.012 A 
BRANCH  31  35
ATOM      1  F   UNL     1      -3.335 -11.800  19.360  0.00  0.00    -0.166 F 
ATOM      2  F   UNL     1      -5.153 -12.715  18.610  0.00  0.00    -0.166 F 
ATOM      3  F   UNL     1      -5.139 -10.606  19.138  0.00  0.00    -0.166 F 
ATOM     35  C   UNL     1      -4.399 -11.580  18.532  0.00  0.00    +0.417 C 
ENDBRANCH  31  35
ENDBRANCH  21  24
TORSDOF 3
ENDMDL
