MODEL 1
REMARK VINA RESULT:      -7.4      0.000      0.000
REMARK  Name = 11867502
REMARK  8 active torsions:
REMARK  status: ('A' for Active; 'I' for Inactive)
REMARK    1  A    between atoms: O_3  and  C_14
REMARK    2  A    between atoms: O_3  and  C_18
REMARK    3  A    between atoms: N_5  and  C_13
REMARK    4  A    between atoms: N_9  and  C_22
REMARK    5  A    between atoms: N_10  and  C_25
REMARK    6  A    between atoms: N_10  and  C_32
REMARK    7  A    between atoms: N_10  and  C_33
REMARK    8  A    between atoms: C_17  and  C_19
REMARK                            x       y       z     vdW  Elec       q    Type
REMARK                         _______ _______ _______ _____ _____    ______ ____
ROOT
ATOM      1  O   UNL     1      -6.896 -11.517  16.773  0.00  0.00    -0.368 OA
ATOM      2  O   UNL     1      -6.635 -10.960  19.802  0.00  0.00    -0.368 OA
ATOM     11  C   UNL     1      -7.107 -10.148  18.704  0.00  0.00    +0.177 C 
ATOM     12  C   UNL     1      -6.232 -10.478  17.510  0.00  0.00    +0.192 C 
ATOM     13  C   UNL     1      -8.495 -10.602  18.296  0.00  0.00    +0.168 C 
ATOM     14  C   UNL     1      -4.962 -10.976  18.156  0.00  0.00    +0.235 C 
ATOM     15  C   UNL     1      -8.203 -11.738  17.321  0.00  0.00    +0.190 C 
ATOM     16  C   UNL     1      -5.488 -11.702  19.371  0.00  0.00    +0.207 C 
ENDROOT
BRANCH  13   5
ATOM      5  N   UNL     1      -9.308  -9.508  17.760  0.00  0.00    -0.217 N 
ATOM      6  N   UNL     1      -8.763  -8.585  16.961  0.00  0.00    -0.043 NA
ATOM      7  N   UNL     1     -10.929  -8.161  17.275  0.00  0.00    -0.108 NA
ATOM      8  N   UNL     1      -9.762  -7.762  16.666  0.00  0.00    -0.023 NA
ATOM     17  C   UNL     1     -10.624  -9.247  17.948  0.00  0.00    +0.182 A 
BRANCH  17  19
ATOM     19  C   UNL     1     -11.511 -10.046  18.755  0.00  0.00    +0.021 A 
ATOM     20  C   UNL     1     -12.017 -11.248  18.256  0.00  0.00    +0.013 A 
ATOM     21  C   UNL     1     -11.867  -9.619  20.035  0.00  0.00    +0.013 A 
ATOM     23  C   UNL     1     -12.876 -12.022  19.036  0.00  0.00    +0.024 A 
ATOM     24  C   UNL     1     -12.728 -10.393  20.815  0.00  0.00    +0.024 A 
ATOM     25  C   UNL     1     -13.232 -11.594  20.316  0.00  0.00    +0.029 A 
BRANCH  25  10
ATOM     10  N   UNL     1     -14.100 -12.376  21.104  0.00  0.00    -0.336 N 
ATOM     32  C   UNL     1     -15.190 -13.108  20.490  0.00  0.00    +0.129 C 
ATOM     33  C   UNL     1     -13.924 -12.448  22.541  0.00  0.00    +0.129 C 
ENDBRANCH  25  10
ENDBRANCH  17  19
ENDBRANCH  13   5
BRANCH  14   3
ATOM      3  O   UNL     1      -4.198 -11.817  17.321  0.00  0.00    -0.442 OA
BRANCH   3  18
ATOM      4  O   UNL     1      -2.496 -10.520  16.517  0.00  0.00    -0.226 OA
ATOM      9  N   UNL     1      -4.063 -11.515  15.091  0.00  0.00    -0.251 N 
ATOM     18  C   UNL     1      -3.485 -11.211  16.308  0.00  0.00    +0.405 C 
ATOM     37  H   UNL     1      -4.880 -12.109  15.155  0.00  0.00    +0.158 HD
BRANCH   9  22
ATOM     22  C   UNL     1      -3.650 -11.100  13.804  0.00  0.00    +0.044 A 
ATOM     26  C   UNL     1      -4.501 -10.372  12.968  0.00  0.00    +0.003 A 
ATOM     27  C   UNL     1      -2.365 -11.449  13.410  0.00  0.00    +0.024 A 
ATOM     28  C   UNL     1      -4.032  -9.983  11.691  0.00  0.00    -0.016 A 
ATOM     29  C   UNL     1      -5.801 -10.015  13.360  0.00  0.00    +0.010 A 
ATOM     30  C   UNL     1      -1.904 -11.068  12.154  0.00  0.00    +0.002 A 
ATOM     31  C   UNL     1      -2.731 -10.340  11.297  0.00  0.00    +0.008 A 
ATOM     34  C   UNL     1      -4.878  -9.251  10.841  0.00  0.00    +0.008 A 
ATOM     35  C   UNL     1      -6.628  -9.287  12.505  0.00  0.00    +0.001 A 
ATOM     36  C   UNL     1      -6.168  -8.906  11.247  0.00  0.00    +0.001 A 
ENDBRANCH   9  22
ENDBRANCH   3  18
ENDBRANCH  14   3
TORSDOF 6
ENDMDL
MODEL 2
REMARK VINA RESULT:      -7.4      2.421      3.864
REMARK  Name = 11867502
REMARK  8 active torsions:
REMARK  status: ('A' for Active; 'I' for Inactive)
REMARK    1  A    between atoms: O_3  and  C_14
REMARK    2  A    between atoms: O_3  and  C_18
REMARK    3  A    between atoms: N_5  and  C_13
REMARK    4  A    between atoms: N_9  and  C_22
REMARK    5  A    between atoms: N_10  and  C_25
REMARK    6  A    between atoms: N_10  and  C_32
REMARK    7  A    between atoms: N_10  and  C_33
REMARK    8  A    between atoms: C_17  and  C_19
REMARK                            x       y       z     vdW  Elec       q    Type
REMARK                         _______ _______ _______ _____ _____    ______ ____
ROOT
ATOM      1  O   UNL     1      -6.220 -10.399  17.144  0.00  0.00    -0.368 OA
ATOM      2  O   UNL     1      -7.833 -12.455  15.493  0.00  0.00    -0.368 OA
ATOM     11  C   UNL     1      -7.890 -12.069  16.884  0.00  0.00    +0.177 C 
ATOM     12  C   UNL     1      -6.464 -11.804  17.323  0.00  0.00    +0.192 C 
ATOM     13  C   UNL     1      -8.583 -10.726  17.011  0.00  0.00    +0.168 C 
ATOM     14  C   UNL     1      -5.658 -12.638  16.356  0.00  0.00    +0.235 C 
ATOM     15  C   UNL     1      -7.442  -9.738  16.792  0.00  0.00    +0.190 C 
ATOM     16  C   UNL     1      -6.461 -12.512  15.083  0.00  0.00    +0.207 C 
ENDROOT
BRANCH  13   5
ATOM      5  N   UNL     1      -9.302 -10.584  18.280  0.00  0.00    -0.217 N 
ATOM      6  N   UNL     1      -8.929 -11.286  19.354  0.00  0.00    -0.043 NA
ATOM      7  N   UNL     1     -10.681  -9.995  19.838  0.00  0.00    -0.108 NA
ATOM      8  N   UNL     1      -9.778 -10.921  20.307  0.00  0.00    -0.023 NA
ATOM     17  C   UNL     1     -10.366  -9.800  18.578  0.00  0.00    +0.182 A 
BRANCH  17  19
ATOM     19  C   UNL     1     -11.019  -8.915  17.648  0.00  0.00    +0.021 A 
ATOM     20  C   UNL     1     -12.226  -9.290  17.055  0.00  0.00    +0.013 A 
ATOM     21  C   UNL     1     -10.446  -7.681  17.337  0.00  0.00    +0.013 A 
ATOM     23  C   UNL     1     -12.858  -8.434  16.154  0.00  0.00    +0.024 A 
ATOM     24  C   UNL     1     -11.078  -6.824  16.435  0.00  0.00    +0.024 A 
ATOM     25  C   UNL     1     -12.284  -7.201  15.843  0.00  0.00    +0.029 A 
BRANCH  25  10
ATOM     10  N   UNL     1     -12.923  -6.335  14.933  0.00  0.00    -0.336 N 
ATOM     32  C   UNL     1     -14.361  -6.391  14.752  0.00  0.00    +0.129 C 
ATOM     33  C   UNL     1     -12.150  -5.388  14.154  0.00  0.00    +0.129 C 
ENDBRANCH  25  10
ENDBRANCH  17  19
ENDBRANCH  13   5
BRANCH  14   3
ATOM      3  O   UNL     1      -4.331 -12.189  16.195  0.00  0.00    -0.442 OA
BRANCH   3  18
ATOM      4  O   UNL     1      -3.400 -13.174  14.354  0.00  0.00    -0.226 OA
ATOM      9  N   UNL     1      -3.900 -10.888  14.404  0.00  0.00    -0.251 N 
ATOM     18  C   UNL     1      -3.829 -12.171  14.910  0.00  0.00    +0.405 C 
ATOM     37  H   UNL     1      -4.296 -10.209  15.044  0.00  0.00    +0.158 HD
BRANCH   9  22
ATOM     22  C   UNL     1      -3.495 -10.431  13.129  0.00  0.00    +0.044 A 
ATOM     26  C   UNL     1      -4.419  -9.921  12.213  0.00  0.00    +0.003 A 
ATOM     27  C   UNL     1      -2.141 -10.514  12.829  0.00  0.00    +0.024 A 
ATOM     28  C   UNL     1      -3.955  -9.479  10.951  0.00  0.00    -0.016 A 
ATOM     29  C   UNL     1      -5.789  -9.834  12.509  0.00  0.00    +0.010 A 
ATOM     30  C   UNL     1      -1.685 -10.080  11.589  0.00  0.00    +0.002 A 
ATOM     31  C   UNL     1      -2.584  -9.565  10.654  0.00  0.00    +0.008 A 
ATOM     34  C   UNL     1      -4.874  -8.963  10.022  0.00  0.00    +0.008 A 
ATOM     35  C   UNL     1      -6.688  -9.320  11.575  0.00  0.00    +0.001 A 
ATOM     36  C   UNL     1      -6.231  -8.885  10.334  0.00  0.00    +0.001 A 
ENDBRANCH   9  22
ENDBRANCH   3  18
ENDBRANCH  14   3
TORSDOF 6
ENDMDL
MODEL 3
REMARK VINA RESULT:      -7.3      5.010      8.908
REMARK  Name = 11867502
REMARK  8 active torsions:
REMARK  status: ('A' for Active; 'I' for Inactive)
REMARK    1  A    between atoms: O_3  and  C_14
REMARK    2  A    between atoms: O_3  and  C_18
REMARK    3  A    between atoms: N_5  and  C_13
REMARK    4  A    between atoms: N_9  and  C_22
REMARK    5  A    between atoms: N_10  and  C_25
REMARK    6  A    between atoms: N_10  and  C_32
REMARK    7  A    between atoms: N_10  and  C_33
REMARK    8  A    between atoms: C_17  and  C_19
REMARK                            x       y       z     vdW  Elec       q    Type
REMARK                         _______ _______ _______ _____ _____    ______ ____
ROOT
ATOM      1  O   UNL     1     -11.136 -10.111  16.256  0.00  0.00    -0.368 OA
ATOM      2  O   UNL     1      -8.548  -9.859  14.584  0.00  0.00    -0.368 OA
ATOM     11  C   UNL     1      -8.801  -9.750  16.003  0.00  0.00    +0.177 C 
ATOM     12  C   UNL     1     -10.148  -9.072  16.156  0.00  0.00    +0.192 C 
ATOM     13  C   UNL     1      -9.002 -11.133  16.591  0.00  0.00    +0.168 C 
ATOM     14  C   UNL     1     -10.281  -8.300  14.866  0.00  0.00    +0.235 C 
ATOM     15  C   UNL     1     -10.487 -11.387  16.353  0.00  0.00    +0.190 C 
ATOM     16  C   UNL     1      -9.619  -9.225  13.872  0.00  0.00    +0.207 C 
ENDROOT
BRANCH  13   5
ATOM      5  N   UNL     1      -8.566 -11.219  17.986  0.00  0.00    -0.217 N 
ATOM      6  N   UNL     1      -9.458 -11.171  18.980  0.00  0.00    -0.043 NA
ATOM      7  N   UNL     1      -7.395 -11.383  19.797  0.00  0.00    -0.108 NA
ATOM      8  N   UNL     1      -8.735 -11.273  20.089  0.00  0.00    -0.023 NA
ATOM     17  C   UNL     1      -7.313 -11.348  18.486  0.00  0.00    +0.182 A 
BRANCH  17  19
ATOM     19  C   UNL     1      -6.116 -11.430  17.689  0.00  0.00    +0.021 A 
ATOM     20  C   UNL     1      -5.723 -12.654  17.144  0.00  0.00    +0.013 A 
ATOM     21  C   UNL     1      -5.349 -10.288  17.458  0.00  0.00    +0.013 A 
ATOM     23  C   UNL     1      -4.564 -12.735  16.373  0.00  0.00    +0.024 A 
ATOM     24  C   UNL     1      -4.189 -10.369  16.687  0.00  0.00    +0.024 A 
ATOM     25  C   UNL     1      -3.797 -11.592  16.144  0.00  0.00    +0.029 A 
BRANCH  25  10
ATOM     10  N   UNL     1      -2.626 -11.675  15.363  0.00  0.00    -0.336 N 
ATOM     32  C   UNL     1      -2.521 -12.650  14.296  0.00  0.00    +0.129 C 
ATOM     33  C   UNL     1      -1.505 -10.793  15.627  0.00  0.00    +0.129 C 
ENDBRANCH  25  10
ENDBRANCH  17  19
ENDBRANCH  13   5
BRANCH  14   3
ATOM      3  O   UNL     1     -11.616  -8.010  14.516  0.00  0.00    -0.442 OA
BRANCH   3  18
ATOM      4  O   UNL     1     -11.532  -5.781  15.014  0.00  0.00    -0.226 OA
ATOM      9  N   UNL     1     -12.726  -6.584  13.168  0.00  0.00    -0.251 N 
ATOM     18  C   UNL     1     -11.930  -6.686  14.291  0.00  0.00    +0.405 C 
ATOM     37  H   UNL     1     -12.931  -7.470  12.721  0.00  0.00    +0.158 HD
BRANCH   9  22
ATOM     22  C   UNL     1     -13.268  -5.414  12.589  0.00  0.00    +0.044 A 
ATOM     26  C   UNL     1     -12.803  -4.927  11.365  0.00  0.00    +0.003 A 
ATOM     27  C   UNL     1     -14.281  -4.773  13.291  0.00  0.00    +0.024 A 
ATOM     28  C   UNL     1     -13.385  -3.751  10.834  0.00  0.00    -0.016 A 
ATOM     29  C   UNL     1     -11.780  -5.569  10.650  0.00  0.00    +0.010 A 
ATOM     30  C   UNL     1     -14.853  -3.617  12.770  0.00  0.00    +0.002 A 
ATOM     31  C   UNL     1     -14.409  -3.107  11.549  0.00  0.00    +0.008 A 
ATOM     34  C   UNL     1     -12.926  -3.251   9.604  0.00  0.00    +0.008 A 
ATOM     35  C   UNL     1     -11.336  -5.060   9.429  0.00  0.00    +0.001 A 
ATOM     36  C   UNL     1     -11.908  -3.903   8.907  0.00  0.00    +0.001 A 
ENDBRANCH   9  22
ENDBRANCH   3  18
ENDBRANCH  14   3
TORSDOF 6
ENDMDL
MODEL 4
REMARK VINA RESULT:      -7.2     18.993     22.695
REMARK  Name = 11867502
REMARK  8 active torsions:
REMARK  status: ('A' for Active; 'I' for Inactive)
REMARK    1  A    between atoms: O_3  and  C_14
REMARK    2  A    between atoms: O_3  and  C_18
REMARK    3  A    between atoms: N_5  and  C_13
REMARK    4  A    between atoms: N_9  and  C_22
REMARK    5  A    between atoms: N_10  and  C_25
REMARK    6  A    between atoms: N_10  and  C_32
REMARK    7  A    between atoms: N_10  and  C_33
REMARK    8  A    between atoms: C_17  and  C_19
REMARK                            x       y       z     vdW  Elec       q    Type
REMARK                         _______ _______ _______ _____ _____    ______ ____
ROOT
ATOM      1  O   UNL     1      -8.063 -11.261  38.635  0.00  0.00    -0.368 OA
ATOM      2  O   UNL     1      -5.136 -10.430  39.179  0.00  0.00    -0.368 OA
ATOM     11  C   UNL     1      -6.277  -9.695  38.683  0.00  0.00    +0.177 C 
ATOM     12  C   UNL     1      -7.062 -10.648  37.805  0.00  0.00    +0.192 C 
ATOM     13  C   UNL     1      -7.213  -9.375  39.831  0.00  0.00    +0.168 C 
ATOM     14  C   UNL     1      -6.013 -11.643  37.370  0.00  0.00    +0.235 C 
ATOM     15  C   UNL     1      -8.073 -10.631  39.923  0.00  0.00    +0.190 C 
ATOM     16  C   UNL     1      -5.141 -11.741  38.600  0.00  0.00    +0.207 C 
ENDROOT
BRANCH  13   5
ATOM      5  N   UNL     1      -7.948  -8.125  39.624  0.00  0.00    -0.217 N 
ATOM      6  N   UNL     1      -9.196  -8.142  39.146  0.00  0.00    -0.043 NA
ATOM      7  N   UNL     1      -8.537  -6.047  39.522  0.00  0.00    -0.108 NA
ATOM      8  N   UNL     1      -9.552  -6.865  39.085  0.00  0.00    -0.023 NA
ATOM     17  C   UNL     1      -7.551  -6.850  39.852  0.00  0.00    +0.182 A 
BRANCH  17  19
ATOM     19  C   UNL     1      -6.260  -6.473  40.369  0.00  0.00    +0.021 A 
ATOM     20  C   UNL     1      -6.119  -6.136  41.717  0.00  0.00    +0.013 A 
ATOM     21  C   UNL     1      -5.150  -6.443  39.525  0.00  0.00    +0.013 A 
ATOM     23  C   UNL     1      -4.871  -5.770  42.218  0.00  0.00    +0.024 A 
ATOM     24  C   UNL     1      -3.901  -6.077  40.027  0.00  0.00    +0.024 A 
ATOM     25  C   UNL     1      -3.760  -5.740  41.373  0.00  0.00    +0.029 A 
BRANCH  25  10
ATOM     10  N   UNL     1      -2.498  -5.371  41.880  0.00  0.00    -0.336 N 
ATOM     32  C   UNL     1      -1.395  -6.311  41.861  0.00  0.00    +0.129 C 
ATOM     33  C   UNL     1      -2.290  -4.050  42.440  0.00  0.00    +0.129 C 
ENDBRANCH  25  10
ENDBRANCH  17  19
ENDBRANCH  13   5
BRANCH  14   3
ATOM      3  O   UNL     1      -6.544 -12.893  36.992  0.00  0.00    -0.442 OA
BRANCH   3  18
ATOM      4  O   UNL     1      -7.113 -12.537  34.807  0.00  0.00    -0.226 OA
ATOM      9  N   UNL     1      -8.654 -13.371  36.358  0.00  0.00    -0.251 N 
ATOM     18  C   UNL     1      -7.427 -12.902  35.933  0.00  0.00    +0.405 C 
ATOM     37  H   UNL     1      -8.687 -13.618  37.340  0.00  0.00    +0.158 HD
BRANCH   9  22
ATOM     22  C   UNL     1      -9.833 -13.540  35.597  0.00  0.00    +0.044 A 
ATOM     26  C   UNL     1     -10.898 -12.641  35.698  0.00  0.00    +0.003 A 
ATOM     27  C   UNL     1      -9.884 -14.638  34.747  0.00  0.00    +0.024 A 
ATOM     28  C   UNL     1     -12.053 -12.861  34.910  0.00  0.00    -0.016 A 
ATOM     29  C   UNL     1     -10.853 -11.529  36.554  0.00  0.00    +0.010 A 
ATOM     30  C   UNL     1     -11.020 -14.855  33.973  0.00  0.00    +0.002 A 
ATOM     31  C   UNL     1     -12.099 -13.973  34.053  0.00  0.00    +0.008 A 
ATOM     34  C   UNL     1     -13.130 -11.965  35.003  0.00  0.00    +0.008 A 
ATOM     35  C   UNL     1     -11.932 -10.648  36.634  0.00  0.00    +0.001 A 
ATOM     36  C   UNL     1     -13.068 -10.865  35.860  0.00  0.00    +0.001 A 
ENDBRANCH   9  22
ENDBRANCH   3  18
ENDBRANCH  14   3
TORSDOF 6
ENDMDL
MODEL 5
REMARK VINA RESULT:      -7.2      5.950      9.723
REMARK  Name = 11867502
REMARK  8 active torsions:
REMARK  status: ('A' for Active; 'I' for Inactive)
REMARK    1  A    between atoms: O_3  and  C_14
REMARK    2  A    between atoms: O_3  and  C_18
REMARK    3  A    between atoms: N_5  and  C_13
REMARK    4  A    between atoms: N_9  and  C_22
REMARK    5  A    between atoms: N_10  and  C_25
REMARK    6  A    between atoms: N_10  and  C_32
REMARK    7  A    between atoms: N_10  and  C_33
REMARK    8  A    between atoms: C_17  and  C_19
REMARK                            x       y       z     vdW  Elec       q    Type
REMARK                         _______ _______ _______ _____ _____    ______ ____
ROOT
ATOM      1  O   UNL     1      -5.417 -10.916   8.859  0.00  0.00    -0.368 OA
ATOM      2  O   UNL     1      -5.723  -8.037   9.941  0.00  0.00    -0.368 OA
ATOM     11  C   UNL     1      -5.678  -8.569   8.599  0.00  0.00    +0.177 C 
ATOM     12  C   UNL     1      -4.679  -9.708   8.613  0.00  0.00    +0.192 C 
ATOM     13  C   UNL     1      -7.003  -9.228   8.269  0.00  0.00    +0.168 C 
ATOM     14  C   UNL     1      -3.786  -9.353   9.778  0.00  0.00    +0.235 C 
ATOM     15  C   UNL     1      -6.824 -10.638   8.825  0.00  0.00    +0.190 C 
ATOM     16  C   UNL     1      -4.763  -8.731  10.748  0.00  0.00    +0.207 C 
ENDROOT
BRANCH  13   5
ATOM      5  N   UNL     1      -7.328  -9.153   6.843  0.00  0.00    -0.217 N 
ATOM      6  N   UNL     1      -6.684  -9.920   5.958  0.00  0.00    -0.043 NA
ATOM      7  N   UNL     1      -8.190  -8.640   4.927  0.00  0.00    -0.108 NA
ATOM      8  N   UNL     1      -7.217  -9.602   4.784  0.00  0.00    -0.023 NA
ATOM     17  C   UNL     1      -8.243  -8.376   6.212  0.00  0.00    +0.182 A 
BRANCH  17  19
ATOM     19  C   UNL     1      -9.110  -7.433   6.870  0.00  0.00    +0.021 A 
ATOM     20  C   UNL     1      -8.568  -6.432   7.680  0.00  0.00    +0.013 A 
ATOM     21  C   UNL     1     -10.493  -7.517   6.700  0.00  0.00    +0.013 A 
ATOM     23  C   UNL     1      -9.407  -5.519   8.317  0.00  0.00    +0.024 A 
ATOM     24  C   UNL     1     -11.332  -6.603   7.338  0.00  0.00    +0.024 A 
ATOM     25  C   UNL     1     -10.790  -5.604   8.147  0.00  0.00    +0.029 A 
BRANCH  25  10
ATOM     10  N   UNL     1     -11.637  -4.680   8.791  0.00  0.00    -0.336 N 
ATOM     32  C   UNL     1     -11.090  -3.490   9.411  0.00  0.00    +0.129 C 
ATOM     33  C   UNL     1     -13.066  -4.916   8.855  0.00  0.00    +0.129 C 
ENDBRANCH  25  10
ENDBRANCH  17  19
ENDBRANCH  13   5
BRANCH  14   3
ATOM      3  O   UNL     1      -3.117 -10.463  10.334  0.00  0.00    -0.442 OA
BRANCH   3  18
ATOM      4  O   UNL     1      -1.402  -9.725  11.653  0.00  0.00    -0.226 OA
ATOM      9  N   UNL     1      -3.284 -10.780  12.560  0.00  0.00    -0.251 N 
ATOM     18  C   UNL     1      -2.493 -10.271  11.549  0.00  0.00    +0.405 C 
ATOM     37  H   UNL     1      -4.155 -11.190  12.242  0.00  0.00    +0.158 HD
BRANCH   9  22
ATOM     22  C   UNL     1      -3.022 -10.791  13.949  0.00  0.00    +0.044 A 
ATOM     26  C   UNL     1      -4.036 -10.558  14.882  0.00  0.00    +0.003 A 
ATOM     27  C   UNL     1      -1.713 -11.041  14.343  0.00  0.00    +0.024 A 
ATOM     28  C   UNL     1      -3.714 -10.582  16.260  0.00  0.00    -0.016 A 
ATOM     29  C   UNL     1      -5.361 -10.305  14.491  0.00  0.00    +0.010 A 
ATOM     30  C   UNL     1      -1.396 -11.063  15.697  0.00  0.00    +0.002 A 
ATOM     31  C   UNL     1      -2.389 -10.835  16.652  0.00  0.00    +0.008 A 
ATOM     34  C   UNL     1      -4.725 -10.350  17.207  0.00  0.00    +0.008 A 
ATOM     35  C   UNL     1      -6.353 -10.078  15.445  0.00  0.00    +0.001 A 
ATOM     36  C   UNL     1      -6.036 -10.100  16.800  0.00  0.00    +0.001 A 
ENDBRANCH   9  22
ENDBRANCH   3  18
ENDBRANCH  14   3
TORSDOF 6
ENDMDL
MODEL 6
REMARK VINA RESULT:      -7.0      2.532      8.647
REMARK  Name = 11867502
REMARK  8 active torsions:
REMARK  status: ('A' for Active; 'I' for Inactive)
REMARK    1  A    between atoms: O_3  and  C_14
REMARK    2  A    between atoms: O_3  and  C_18
REMARK    3  A    between atoms: N_5  and  C_13
REMARK    4  A    between atoms: N_9  and  C_22
REMARK    5  A    between atoms: N_10  and  C_25
REMARK    6  A    between atoms: N_10  and  C_32
REMARK    7  A    between atoms: N_10  and  C_33
REMARK    8  A    between atoms: C_17  and  C_19
REMARK                            x       y       z     vdW  Elec       q    Type
REMARK                         _______ _______ _______ _____ _____    ______ ____
ROOT
ATOM      1  O   UNL     1      -5.668 -12.631  16.055  0.00  0.00    -0.368 OA
ATOM      2  O   UNL     1      -4.360  -9.916  16.740  0.00  0.00    -0.368 OA
ATOM     11  C   UNL     1      -3.901 -11.045  15.965  0.00  0.00    +0.177 C 
ATOM     12  C   UNL     1      -4.411 -12.290  16.663  0.00  0.00    +0.192 C 
ATOM     13  C   UNL     1      -4.595 -11.052  14.617  0.00  0.00    +0.168 C 
ATOM     14  C   UNL     1      -4.589 -11.824  18.088  0.00  0.00    +0.235 C 
ATOM     15  C   UNL     1      -5.895 -11.794  14.913  0.00  0.00    +0.190 C 
ATOM     16  C   UNL     1      -5.051 -10.398  17.900  0.00  0.00    +0.207 C 
ENDROOT
BRANCH  13   5
ATOM      5  N   UNL     1      -3.765 -11.637  13.562  0.00  0.00    -0.217 N 
ATOM      6  N   UNL     1      -2.716 -12.407  13.870  0.00  0.00    -0.043 NA
ATOM      7  N   UNL     1      -2.918 -12.218  11.659  0.00  0.00    -0.108 NA
ATOM      8  N   UNL     1      -2.200 -12.761  12.699  0.00  0.00    -0.023 NA
ATOM     17  C   UNL     1      -3.884 -11.525  12.217  0.00  0.00    +0.182 A 
BRANCH  17  19
ATOM     19  C   UNL     1      -4.908 -10.767  11.545  0.00  0.00    +0.021 A 
ATOM     20  C   UNL     1      -4.661  -9.449  11.156  0.00  0.00    +0.013 A 
ATOM     21  C   UNL     1      -6.149 -11.348  11.281  0.00  0.00    +0.013 A 
ATOM     23  C   UNL     1      -5.652  -8.714  10.506  0.00  0.00    +0.024 A 
ATOM     24  C   UNL     1      -7.141 -10.613  10.631  0.00  0.00    +0.024 A 
ATOM     25  C   UNL     1      -6.893  -9.296  10.244  0.00  0.00    +0.029 A 
BRANCH  25  10
ATOM     10  N   UNL     1      -7.894  -8.553   9.587  0.00  0.00    -0.336 N 
ATOM     32  C   UNL     1      -7.537  -7.539   8.614  0.00  0.00    +0.129 C 
ATOM     33  C   UNL     1      -9.294  -8.784   9.885  0.00  0.00    +0.129 C 
ENDBRANCH  25  10
ENDBRANCH  17  19
ENDBRANCH  13   5
BRANCH  14   3
ATOM      3  O   UNL     1      -5.518 -12.592  18.820  0.00  0.00    -0.442 OA
BRANCH   3  18
ATOM      4  O   UNL     1      -6.426 -11.335  20.500  0.00  0.00    -0.226 OA
ATOM      9  N   UNL     1      -7.684 -11.994  18.640  0.00  0.00    -0.251 N 
ATOM     18  C   UNL     1      -6.552 -11.910  19.426  0.00  0.00    +0.405 C 
ATOM     37  H   UNL     1      -7.559 -12.523  17.785  0.00  0.00    +0.158 HD
BRANCH   9  22
ATOM     22  C   UNL     1      -8.960 -11.438  18.888  0.00  0.00    +0.044 A 
ATOM     26  C   UNL     1      -9.398 -10.295  18.214  0.00  0.00    +0.003 A 
ATOM     27  C   UNL     1      -9.754 -12.077  19.831  0.00  0.00    +0.024 A 
ATOM     28  C   UNL     1     -10.686  -9.784  18.504  0.00  0.00    -0.016 A 
ATOM     29  C   UNL     1      -8.601  -9.644  17.259  0.00  0.00    +0.010 A 
ATOM     30  C   UNL     1     -11.020 -11.574  20.117  0.00  0.00    +0.002 A 
ATOM     31  C   UNL     1     -11.485 -10.435  19.459  0.00  0.00    +0.008 A 
ATOM     34  C   UNL     1     -11.137  -8.636  17.832  0.00  0.00    +0.008 A 
ATOM     35  C   UNL     1      -9.065  -8.505  16.601  0.00  0.00    +0.001 A 
ATOM     36  C   UNL     1     -10.331  -8.002  16.887  0.00  0.00    +0.001 A 
ENDBRANCH   9  22
ENDBRANCH   3  18
ENDBRANCH  14   3
TORSDOF 6
ENDMDL
MODEL 7
REMARK VINA RESULT:      -7.0     27.995     32.089
REMARK  Name = 11867502
REMARK  8 active torsions:
REMARK  status: ('A' for Active; 'I' for Inactive)
REMARK    1  A    between atoms: O_3  and  C_14
REMARK    2  A    between atoms: O_3  and  C_18
REMARK    3  A    between atoms: N_5  and  C_13
REMARK    4  A    between atoms: N_9  and  C_22
REMARK    5  A    between atoms: N_10  and  C_25
REMARK    6  A    between atoms: N_10  and  C_32
REMARK    7  A    between atoms: N_10  and  C_33
REMARK    8  A    between atoms: C_17  and  C_19
REMARK                            x       y       z     vdW  Elec       q    Type
REMARK                         _______ _______ _______ _____ _____    ______ ____
ROOT
ATOM      1  O   UNL     1      12.850   8.737   5.442  0.00  0.00    -0.368 OA
ATOM      2  O   UNL     1      13.993   7.769   2.738  0.00  0.00    -0.368 OA
ATOM     11  C   UNL     1      13.387   7.063   3.843  0.00  0.00    +0.177 C 
ATOM     12  C   UNL     1      13.847   7.757   5.110  0.00  0.00    +0.192 C 
ATOM     13  C   UNL     1      11.885   7.273   3.818  0.00  0.00    +0.168 C 
ATOM     14  C   UNL     1      15.144   8.402   4.684  0.00  0.00    +0.235 C 
ATOM     15  C   UNL     1      11.717   8.586   4.576  0.00  0.00    +0.190 C 
ATOM     16  C   UNL     1      14.847   8.797   3.256  0.00  0.00    +0.207 C 
ENDROOT
BRANCH  13   5
ATOM      5  N   UNL     1      11.150   6.132   4.370  0.00  0.00    -0.217 N 
ATOM      6  N   UNL     1      10.699   6.159   5.627  0.00  0.00    -0.043 NA
ATOM      7  N   UNL     1      10.161   4.230   4.649  0.00  0.00    -0.108 NA
ATOM      8  N   UNL     1      10.093   4.989   5.794  0.00  0.00    -0.023 NA
ATOM     17  C   UNL     1      10.821   4.958   3.778  0.00  0.00    +0.182 A 
BRANCH  17  19
ATOM     19  C   UNL     1      11.153   4.602   2.422  0.00  0.00    +0.021 A 
ATOM     20  C   UNL     1      12.329   3.898   2.153  0.00  0.00    +0.013 A 
ATOM     21  C   UNL     1      10.301   4.958   1.376  0.00  0.00    +0.013 A 
ATOM     23  C   UNL     1      12.652   3.553   0.841  0.00  0.00    +0.024 A 
ATOM     24  C   UNL     1      10.625   4.613   0.064  0.00  0.00    +0.024 A 
ATOM     25  C   UNL     1      11.799   3.911  -0.204  0.00  0.00    +0.029 A 
BRANCH  25  10
ATOM     10  N   UNL     1      12.126   3.562  -1.530  0.00  0.00    -0.336 N 
ATOM     32  C   UNL     1      11.154   2.897  -2.376  0.00  0.00    +0.129 C 
ATOM     33  C   UNL     1      13.444   3.851  -2.062  0.00  0.00    +0.129 C 
ENDBRANCH  25  10
ENDBRANCH  17  19
ENDBRANCH  13   5
BRANCH  14   3
ATOM      3  O   UNL     1      15.510   9.509   5.477  0.00  0.00    -0.442 OA
BRANCH   3  18
ATOM      4  O   UNL     1      17.291  10.924   5.707  0.00  0.00    -0.226 OA
ATOM      9  N   UNL     1      17.577   8.610   5.511  0.00  0.00    -0.251 N 
ATOM     18  C   UNL     1      16.858   9.786   5.578  0.00  0.00    +0.405 C 
ATOM     37  H   UNL     1      17.008   7.778   5.404  0.00  0.00    +0.158 HD
BRANCH   9  22
ATOM     22  C   UNL     1      18.980   8.442   5.575  0.00  0.00    +0.044 A 
ATOM     26  C   UNL     1      19.735   8.199   4.425  0.00  0.00    +0.003 A 
ATOM     27  C   UNL     1      19.569   8.529   6.829  0.00  0.00    +0.024 A 
ATOM     28  C   UNL     1      21.136   8.041   4.550  0.00  0.00    -0.016 A 
ATOM     29  C   UNL     1      19.146   8.111   3.154  0.00  0.00    +0.010 A 
ATOM     30  C   UNL     1      20.946   8.373   6.953  0.00  0.00    +0.002 A 
ATOM     31  C   UNL     1      21.727   8.130   5.822  0.00  0.00    +0.008 A 
ATOM     34  C   UNL     1      21.906   7.797   3.402  0.00  0.00    +0.008 A 
ATOM     35  C   UNL     1      19.926   7.868   2.023  0.00  0.00    +0.001 A 
ATOM     36  C   UNL     1      21.303   7.711   2.146  0.00  0.00    +0.001 A 
ENDBRANCH   9  22
ENDBRANCH   3  18
ENDBRANCH  14   3
TORSDOF 6
ENDMDL
MODEL 8
REMARK VINA RESULT:      -6.9      2.184      9.680
REMARK  Name = 11867502
REMARK  8 active torsions:
REMARK  status: ('A' for Active; 'I' for Inactive)
REMARK    1  A    between atoms: O_3  and  C_14
REMARK    2  A    between atoms: O_3  and  C_18
REMARK    3  A    between atoms: N_5  and  C_13
REMARK    4  A    between atoms: N_9  and  C_22
REMARK    5  A    between atoms: N_10  and  C_25
REMARK    6  A    between atoms: N_10  and  C_32
REMARK    7  A    between atoms: N_10  and  C_33
REMARK    8  A    between atoms: C_17  and  C_19
REMARK                            x       y       z     vdW  Elec       q    Type
REMARK                         _______ _______ _______ _____ _____    ______ ____
ROOT
ATOM      1  O   UNL     1      -5.481 -12.034  17.406  0.00  0.00    -0.368 OA
ATOM      2  O   UNL     1      -6.520  -9.565  15.863  0.00  0.00    -0.368 OA
ATOM     11  C   UNL     1      -5.202  -9.936  16.325  0.00  0.00    +0.177 C 
ATOM     12  C   UNL     1      -5.386 -10.623  17.664  0.00  0.00    +0.192 C 
ATOM     13  C   UNL     1      -4.630 -11.010  15.421  0.00  0.00    +0.168 C 
ATOM     14  C   UNL     1      -6.697 -10.056  18.152  0.00  0.00    +0.235 C 
ATOM     15  C   UNL     1      -5.194 -12.293  16.025  0.00  0.00    +0.190 C 
ATOM     16  C   UNL     1      -7.480  -9.917  16.868  0.00  0.00    +0.207 C 
ENDROOT
BRANCH  13   5
ATOM      5  N   UNL     1      -3.169 -10.949  15.331  0.00  0.00    -0.217 N 
ATOM      6  N   UNL     1      -2.429 -10.749  16.426  0.00  0.00    -0.043 NA
ATOM      7  N   UNL     1      -1.123 -10.946  14.630  0.00  0.00    -0.108 NA
ATOM      8  N   UNL     1      -1.175 -10.748  15.990  0.00  0.00    -0.023 NA
ATOM     17  C   UNL     1      -2.372 -11.068  14.242  0.00  0.00    +0.182 A 
BRANCH  17  19
ATOM     19  C   UNL     1      -2.846 -11.292  12.900  0.00  0.00    +0.021 A 
ATOM     20  C   UNL     1      -2.935 -10.225  12.003  0.00  0.00    +0.013 A 
ATOM     21  C   UNL     1      -3.216 -12.575  12.493  0.00  0.00    +0.013 A 
ATOM     23  C   UNL     1      -3.394 -10.440  10.704  0.00  0.00    +0.024 A 
ATOM     24  C   UNL     1      -3.676 -12.790  11.193  0.00  0.00    +0.024 A 
ATOM     25  C   UNL     1      -3.765 -11.723  10.299  0.00  0.00    +0.029 A 
BRANCH  25  10
ATOM     10  N   UNL     1      -4.228 -11.941   8.986  0.00  0.00    -0.336 N 
ATOM     32  C   UNL     1      -4.217 -13.273   8.414  0.00  0.00    +0.129 C 
ATOM     33  C   UNL     1      -4.711 -10.833   8.185  0.00  0.00    +0.129 C 
ENDBRANCH  25  10
ENDBRANCH  17  19
ENDBRANCH  13   5
BRANCH  14   3
ATOM      3  O   UNL     1      -7.354 -10.881  19.089  0.00  0.00    -0.442 OA
BRANCH   3  18
ATOM      4  O   UNL     1      -8.973 -12.231  18.203  0.00  0.00    -0.226 OA
ATOM      9  N   UNL     1      -9.505 -10.251  19.332  0.00  0.00    -0.251 N 
ATOM     18  C   UNL     1      -8.664 -11.216  18.815  0.00  0.00    +0.405 C 
ATOM     37  H   UNL     1      -9.028  -9.493  19.805  0.00  0.00    +0.158 HD
BRANCH   9  22
ATOM     22  C   UNL     1     -10.917 -10.206  19.276  0.00  0.00    +0.044 A 
ATOM     26  C   UNL     1     -11.582  -9.480  18.284  0.00  0.00    +0.003 A 
ATOM     27  C   UNL     1     -11.610 -10.915  20.249  0.00  0.00    +0.024 A 
ATOM     28  C   UNL     1     -12.997  -9.473  18.278  0.00  0.00    -0.016 A 
ATOM     29  C   UNL     1     -10.887  -8.763  17.297  0.00  0.00    +0.010 A 
ATOM     30  C   UNL     1     -13.001 -10.907  20.243  0.00  0.00    +0.002 A 
ATOM     31  C   UNL     1     -13.693 -10.191  19.265  0.00  0.00    +0.008 A 
ATOM     34  C   UNL     1     -13.677  -8.747  17.286  0.00  0.00    +0.008 A 
ATOM     35  C   UNL     1     -11.578  -8.047  16.319  0.00  0.00    +0.001 A 
ATOM     36  C   UNL     1     -12.970  -8.039  16.313  0.00  0.00    +0.001 A 
ENDBRANCH   9  22
ENDBRANCH   3  18
ENDBRANCH  14   3
TORSDOF 6
ENDMDL
MODEL 9
REMARK VINA RESULT:      -6.9     27.168     31.925
REMARK  Name = 11867502
REMARK  8 active torsions:
REMARK  status: ('A' for Active; 'I' for Inactive)
REMARK    1  A    between atoms: O_3  and  C_14
REMARK    2  A    between atoms: O_3  and  C_18
REMARK    3  A    between atoms: N_5  and  C_13
REMARK    4  A    between atoms: N_9  and  C_22
REMARK    5  A    between atoms: N_10  and  C_25
REMARK    6  A    between atoms: N_10  and  C_32
REMARK    7  A    between atoms: N_10  and  C_33
REMARK    8  A    between atoms: C_17  and  C_19
REMARK                            x       y       z     vdW  Elec       q    Type
REMARK                         _______ _______ _______ _____ _____    ______ ____
ROOT
ATOM      1  O   UNL     1      15.305   5.357   0.646  0.00  0.00    -0.368 OA
ATOM      2  O   UNL     1      14.324   6.835   3.177  0.00  0.00    -0.368 OA
ATOM     11  C   UNL     1      13.657   6.467   1.949  0.00  0.00    +0.177 C 
ATOM     12  C   UNL     1      14.671   6.633   0.835  0.00  0.00    +0.192 C 
ATOM     13  C   UNL     1      13.347   4.983   1.964  0.00  0.00    +0.168 C 
ATOM     14  C   UNL     1      15.629   7.652   1.404  0.00  0.00    +0.235 C 
ATOM     15  C   UNL     1      14.638   4.365   1.438  0.00  0.00    +0.190 C 
ATOM     16  C   UNL     1      15.651   7.282   2.869  0.00  0.00    +0.207 C 
ENDROOT
BRANCH  13   5
ATOM      5  N   UNL     1      12.139   4.655   1.203  0.00  0.00    -0.217 N 
ATOM      6  N   UNL     1      12.229   4.185  -0.045  0.00  0.00    -0.043 NA
ATOM      7  N   UNL     1      10.093   4.349   0.572  0.00  0.00    -0.108 NA
ATOM      8  N   UNL     1      10.971   3.999  -0.427  0.00  0.00    -0.023 NA
ATOM     17  C   UNL     1      10.839   4.754   1.574  0.00  0.00    +0.182 A 
BRANCH  17  19
ATOM     19  C   UNL     1      10.387   5.225   2.858  0.00  0.00    +0.021 A 
ATOM     20  C   UNL     1      10.464   4.391   3.976  0.00  0.00    +0.013 A 
ATOM     21  C   UNL     1       9.870   6.515   2.988  0.00  0.00    +0.013 A 
ATOM     23  C   UNL     1      10.026   4.846   5.219  0.00  0.00    +0.024 A 
ATOM     24  C   UNL     1       9.431   6.970   4.232  0.00  0.00    +0.024 A 
ATOM     25  C   UNL     1       9.509   6.136   5.347  0.00  0.00    +0.029 A 
BRANCH  25  10
ATOM     10  N   UNL     1       9.066   6.596   6.604  0.00  0.00    -0.336 N 
ATOM     32  C   UNL     1       9.445   5.897   7.816  0.00  0.00    +0.129 C 
ATOM     33  C   UNL     1       8.214   7.765   6.700  0.00  0.00    +0.129 C 
ENDBRANCH  25  10
ENDBRANCH  17  19
ENDBRANCH  13   5
BRANCH  14   3
ATOM      3  O   UNL     1      16.913   7.604   0.824  0.00  0.00    -0.442 OA
BRANCH   3  18
ATOM      4  O   UNL     1      17.901   9.568   1.455  0.00  0.00    -0.226 OA
ATOM      9  N   UNL     1      18.837   7.492   1.994  0.00  0.00    -0.251 N 
ATOM     18  C   UNL     1      17.903   8.343   1.438  0.00  0.00    +0.405 C 
ATOM     37  H   UNL     1      18.637   6.508   1.859  0.00  0.00    +0.158 HD
BRANCH   9  22
ATOM     22  C   UNL     1      20.007   7.832   2.712  0.00  0.00    +0.044 A 
ATOM     26  C   UNL     1      19.957   8.154   4.071  0.00  0.00    +0.003 A 
ATOM     27  C   UNL     1      21.203   7.832   2.006  0.00  0.00    +0.024 A 
ATOM     28  C   UNL     1      21.161   8.486   4.737  0.00  0.00    -0.016 A 
ATOM     29  C   UNL     1      18.752   8.156   4.791  0.00  0.00    +0.010 A 
ATOM     30  C   UNL     1      22.386   8.159   2.661  0.00  0.00    +0.002 A 
ATOM     31  C   UNL     1      22.368   8.485   4.018  0.00  0.00    +0.008 A 
ATOM     34  C   UNL     1      21.124   8.812   6.103  0.00  0.00    +0.008 A 
ATOM     35  C   UNL     1      18.732   8.481   6.147  0.00  0.00    +0.001 A 
ATOM     36  C   UNL     1      19.916   8.808   6.802  0.00  0.00    +0.001 A 
ENDBRANCH   9  22
ENDBRANCH   3  18
ENDBRANCH  14   3
TORSDOF 6
ENDMDL
MODEL 10
REMARK VINA RESULT:      -6.8      2.648      9.351
REMARK  Name = 11867502
REMARK  8 active torsions:
REMARK  status: ('A' for Active; 'I' for Inactive)
REMARK    1  A    between atoms: O_3  and  C_14
REMARK    2  A    between atoms: O_3  and  C_18
REMARK    3  A    between atoms: N_5  and  C_13
REMARK    4  A    between atoms: N_9  and  C_22
REMARK    5  A    between atoms: N_10  and  C_25
REMARK    6  A    between atoms: N_10  and  C_32
REMARK    7  A    between atoms: N_10  and  C_33
REMARK    8  A    between atoms: C_17  and  C_19
REMARK                            x       y       z     vdW  Elec       q    Type
REMARK                         _______ _______ _______ _____ _____    ______ ____
ROOT
ATOM      1  O   UNL     1      -4.871 -12.447  15.826  0.00  0.00    -0.368 OA
ATOM      2  O   UNL     1      -5.993  -9.578  16.075  0.00  0.00    -0.368 OA
ATOM     11  C   UNL     1      -4.709 -10.083  15.649  0.00  0.00    +0.177 C 
ATOM     12  C   UNL     1      -4.399 -11.282  16.523  0.00  0.00    +0.192 C 
ATOM     13  C   UNL     1      -4.825 -10.653  14.248  0.00  0.00    +0.168 C 
ATOM     14  C   UNL     1      -5.212 -11.008  17.765  0.00  0.00    +0.235 C 
ATOM     15  C   UNL     1      -5.293 -12.082  14.505  0.00  0.00    +0.190 C 
ATOM     16  C   UNL     1      -6.446 -10.347  17.196  0.00  0.00    +0.207 C 
ENDROOT
BRANCH  13   5
ATOM      5  N   UNL     1      -3.581 -10.527  13.486  0.00  0.00    -0.217 N 
ATOM      6  N   UNL     1      -2.397 -10.639  14.096  0.00  0.00    -0.043 NA
ATOM      7  N   UNL     1      -2.117 -10.263  11.917  0.00  0.00    -0.108 NA
ATOM      8  N   UNL     1      -1.502 -10.476  13.129  0.00  0.00    -0.023 NA
ATOM     17  C   UNL     1      -3.406 -10.299  12.162  0.00  0.00    +0.182 A 
BRANCH  17  19
ATOM     19  C   UNL     1      -4.476 -10.130  11.211  0.00  0.00    +0.021 A 
ATOM     20  C   UNL     1      -4.877 -11.204  10.413  0.00  0.00    +0.013 A 
ATOM     21  C   UNL     1      -5.112  -8.895  11.086  0.00  0.00    +0.013 A 
ATOM     23  C   UNL     1      -5.911 -11.042   9.492  0.00  0.00    +0.024 A 
ATOM     24  C   UNL     1      -6.146  -8.732  10.164  0.00  0.00    +0.024 A 
ATOM     25  C   UNL     1      -6.547  -9.805   9.367  0.00  0.00    +0.029 A 
BRANCH  25  10
ATOM     10  N   UNL     1      -7.592  -9.641   8.436  0.00  0.00    -0.336 N 
ATOM     32  C   UNL     1      -8.967  -9.550   8.885  0.00  0.00    +0.129 C 
ATOM     33  C   UNL     1      -7.307  -9.575   7.016  0.00  0.00    +0.129 C 
ENDBRANCH  25  10
ENDBRANCH  17  19
ENDBRANCH  13   5
BRANCH  14   3
ATOM      3  O   UNL     1      -5.522 -12.168  18.504  0.00  0.00    -0.442 OA
BRANCH   3  18
ATOM      4  O   UNL     1      -6.354 -11.363  20.475  0.00  0.00    -0.226 OA
ATOM      9  N   UNL     1      -7.596 -12.807  19.115  0.00  0.00    -0.251 N 
ATOM     18  C   UNL     1      -6.498 -12.050  19.472  0.00  0.00    +0.405 C 
ATOM     37  H   UNL     1      -7.495 -13.298  18.234  0.00  0.00    +0.158 HD
BRANCH   9  22
ATOM     22  C   UNL     1      -8.810 -12.966  19.822  0.00  0.00    +0.044 A 
ATOM     26  C   UNL     1      -9.829 -12.013  19.739  0.00  0.00    +0.003 A 
ATOM     27  C   UNL     1      -8.943 -14.108  20.600  0.00  0.00    +0.024 A 
ATOM     28  C   UNL     1     -11.023 -12.226  20.469  0.00  0.00    -0.016 A 
ATOM     29  C   UNL     1      -9.702 -10.856  18.954  0.00  0.00    +0.010 A 
ATOM     30  C   UNL     1     -10.116 -14.318  21.318  0.00  0.00    +0.002 A 
ATOM     31  C   UNL     1     -11.151 -13.384  21.254  0.00  0.00    +0.008 A 
ATOM     34  C   UNL     1     -12.054 -11.276  20.393  0.00  0.00    +0.008 A 
ATOM     35  C   UNL     1     -10.736  -9.922  18.890  0.00  0.00    +0.001 A 
ATOM     36  C   UNL     1     -11.910 -10.131  19.608  0.00  0.00    +0.001 A 
ENDBRANCH   9  22
ENDBRANCH   3  18
ENDBRANCH  14   3
TORSDOF 6
ENDMDL
