MODEL 1
REMARK VINA RESULT:      -7.7      0.000      0.000
REMARK  Name = 7051381
REMARK  7 active torsions:
REMARK  status: ('A' for Active; 'I' for Inactive)
REMARK    1  A    between atoms: S_1  and  N_10
REMARK    2  A    between atoms: S_1  and  C_24
REMARK    3  A    between atoms: O_6  and  C_30
REMARK    4  A    between atoms: O_6  and  C_36
REMARK    5  A    between atoms: N_9  and  C_23
REMARK    6  A    between atoms: N_10  and  C_21
REMARK    7  A    between atoms: C_24  and  C_27
REMARK                            x       y       z     vdW  Elec       q    Type
REMARK                         _______ _______ _______ _____ _____    ______ ____
ROOT
ATOM      2  O   UNL     1      16.968  10.003  20.537  0.00  0.00    -0.266 OA
ATOM      3  O   UNL     1      11.691   8.038  22.348  0.00  0.00    -0.252 OA
ATOM      7  N   UNL     1      12.138   8.597  20.147  0.00  0.00    -0.284 N 
ATOM      8  N   UNL     1      15.322   8.547  19.728  0.00  0.00    -0.310 N 
ATOM      9  N   UNL     1      11.684  10.277  21.741  0.00  0.00    -0.269 N 
ATOM     11  C   UNL     1      13.466   9.285  18.131  0.00  0.00    +0.027 C 
ATOM     12  C   UNL     1      13.547   6.957  18.906  0.00  0.00    +0.054 C 
ATOM     13  C   UNL     1      13.475   7.837  17.662  0.00  0.00    +0.018 C 
ATOM     14  C   UNL     1      12.256   9.565  19.045  0.00  0.00    +0.114 C 
ATOM     15  C   UNL     1      14.796   9.585  18.834  0.00  0.00    +0.130 C 
ATOM     16  C   UNL     1      12.291   7.188  19.764  0.00  0.00    +0.119 C 
ATOM     17  C   UNL     1      14.791   7.250  19.724  0.00  0.00    +0.027 A 
ATOM     18  C   UNL     1      15.361   6.279  20.462  0.00  0.00    +0.024 A 
ATOM     19  C   UNL     1      16.448   8.889  20.506  0.00  0.00    +0.274 A 
ATOM     20  C   UNL     1      11.833   8.914  21.490  0.00  0.00    +0.306 C 
ATOM     21  C   UNL     1      17.015   7.783  21.316  0.00  0.00    +0.112 A 
ATOM     22  C   UNL     1      16.507   6.551  21.286  0.00  0.00    +0.031 A 
ATOM     37  H   UNL     1      11.358  10.870  20.986  0.00  0.00    +0.156 HD
ENDROOT
BRANCH   9  23
ATOM     23  C   UNL     1      11.958  10.962  22.950  0.00  0.00    +0.035 A 
ATOM     25  C   UNL     1      10.936  11.176  23.877  0.00  0.00    +0.027 A 
ATOM     26  C   UNL     1      13.248  11.420  23.217  0.00  0.00    +0.027 A 
ATOM     28  C   UNL     1      11.205  11.849  25.068  0.00  0.00    +0.047 A 
ATOM     29  C   UNL     1      13.517  12.093  24.408  0.00  0.00    +0.047 A 
ATOM     30  C   UNL     1      12.496  12.308  25.334  0.00  0.00    +0.120 A 
BRANCH  30   6
ATOM      6  O   UNL     1      12.759  12.963  26.497  0.00  0.00    -0.495 OA
ATOM     36  C   UNL     1      14.131  13.114  26.861  0.00  0.00    +0.277 C 
ENDBRANCH  30   6
ENDBRANCH   9  23
BRANCH  21  10
ATOM     10  N   UNL     1      18.132   8.010  22.140  0.00  0.00    -0.215 N 
ATOM     38  H   UNL     1      18.026   7.592  23.074  0.00  0.00    +0.173 HD
BRANCH  10   1
ATOM      1  S   UNL     1      19.647   7.713  21.417  0.00  0.00    +0.047 S 
ATOM      4  O   UNL     1      19.484   6.818  20.287  0.00  0.00    -0.155 OA
ATOM      5  O   UNL     1      20.370   8.963  21.286  0.00  0.00    -0.155 OA
BRANCH   1  24
ATOM     24  C   UNL     1      20.420   6.782  22.717  0.00  0.00    +0.223 C 
BRANCH  24  27
ATOM     27  C   UNL     1      21.525   5.976  22.108  0.00  0.00    -0.025 A 
ATOM     31  C   UNL     1      22.670   6.612  21.629  0.00  0.00    +0.005 A 
ATOM     32  C   UNL     1      21.408   4.589  22.018  0.00  0.00    +0.005 A 
ATOM     33  C   UNL     1      23.699   5.861  21.062  0.00  0.00    +0.000 A 
ATOM     34  C   UNL     1      22.438   3.838  21.450  0.00  0.00    +0.000 A 
ATOM     35  C   UNL     1      23.584   4.474  20.972  0.00  0.00    +0.000 A 
ENDBRANCH  24  27
ENDBRANCH   1  24
ENDBRANCH  10   1
ENDBRANCH  21  10
TORSDOF 6
ENDMDL
MODEL 2
REMARK VINA RESULT:      -7.5     28.177     30.798
REMARK  Name = 7051381
REMARK  7 active torsions:
REMARK  status: ('A' for Active; 'I' for Inactive)
REMARK    1  A    between atoms: S_1  and  N_10
REMARK    2  A    between atoms: S_1  and  C_24
REMARK    3  A    between atoms: O_6  and  C_30
REMARK    4  A    between atoms: O_6  and  C_36
REMARK    5  A    between atoms: N_9  and  C_23
REMARK    6  A    between atoms: N_10  and  C_21
REMARK    7  A    between atoms: C_24  and  C_27
REMARK                            x       y       z     vdW  Elec       q    Type
REMARK                         _______ _______ _______ _____ _____    ______ ____
ROOT
ATOM      2  O   UNL     1      -4.942 -13.714  15.191  0.00  0.00    -0.266 OA
ATOM      3  O   UNL     1      -8.171  -8.893  16.340  0.00  0.00    -0.252 OA
ATOM      7  N   UNL     1      -8.520 -10.922  17.396  0.00  0.00    -0.284 N 
ATOM      8  N   UNL     1      -5.853 -12.684  17.088  0.00  0.00    -0.310 N 
ATOM      9  N   UNL     1      -9.349 -10.547  15.219  0.00  0.00    -0.269 N 
ATOM     11  C   UNL     1      -8.133 -13.312  18.060  0.00  0.00    +0.027 C 
ATOM     12  C   UNL     1      -6.813 -11.527  19.110  0.00  0.00    +0.054 C 
ATOM     13  C   UNL     1      -7.552 -12.834  19.383  0.00  0.00    +0.018 C 
ATOM     14  C   UNL     1      -9.105 -12.270  17.472  0.00  0.00    +0.114 C 
ATOM     15  C   UNL     1      -6.980 -13.624  17.098  0.00  0.00    +0.130 C 
ATOM     16  C   UNL     1      -7.815 -10.475  18.605  0.00  0.00    +0.119 C 
ATOM     17  C   UNL     1      -5.705 -11.717  18.091  0.00  0.00    +0.027 A 
ATOM     18  C   UNL     1      -4.606 -10.941  18.133  0.00  0.00    +0.024 A 
ATOM     19  C   UNL     1      -4.878 -12.872  16.085  0.00  0.00    +0.274 A 
ATOM     20  C   UNL     1      -8.641 -10.033  16.304  0.00  0.00    +0.306 C 
ATOM     21  C   UNL     1      -3.702 -11.972  16.170  0.00  0.00    +0.112 A 
ATOM     22  C   UNL     1      -3.572 -11.068  17.143  0.00  0.00    +0.031 A 
ATOM     37  H   UNL     1     -10.067 -11.240  15.401  0.00  0.00    +0.156 HD
ENDROOT
BRANCH   9  23
ATOM     23  C   UNL     1      -9.173 -10.228  13.851  0.00  0.00    +0.035 A 
ATOM     25  C   UNL     1      -7.900 -10.279  13.281  0.00  0.00    +0.027 A 
ATOM     26  C   UNL     1     -10.271  -9.864  13.072  0.00  0.00    +0.027 A 
ATOM     28  C   UNL     1      -7.726  -9.966  11.933  0.00  0.00    +0.047 A 
ATOM     29  C   UNL     1     -10.097  -9.550  11.724  0.00  0.00    +0.047 A 
ATOM     30  C   UNL     1      -8.826  -9.601  11.154  0.00  0.00    +0.120 A 
BRANCH  30   6
ATOM      6  O   UNL     1      -8.657  -9.297   9.839  0.00  0.00    -0.495 OA
ATOM     36  C   UNL     1      -7.579  -8.422   9.507  0.00  0.00    +0.277 C 
ENDBRANCH  30   6
ENDBRANCH   9  23
BRANCH  21  10
ATOM     10  N   UNL     1      -2.672 -12.060  15.218  0.00  0.00    -0.215 N 
ATOM     38  H   UNL     1      -2.587 -13.001  14.812  0.00  0.00    +0.173 HD
BRANCH  10   1
ATOM      1  S   UNL     1      -2.629 -10.802  14.067  0.00  0.00    +0.047 S 
ATOM      4  O   UNL     1      -3.966 -10.278  13.864  0.00  0.00    -0.155 OA
ATOM      5  O   UNL     1      -1.514  -9.922  14.358  0.00  0.00    -0.155 OA
BRANCH   1  24
ATOM     24  C   UNL     1      -2.207 -11.739  12.619  0.00  0.00    +0.223 C 
BRANCH  24  27
ATOM     27  C   UNL     1      -2.873 -11.091  11.445  0.00  0.00    -0.025 A 
ATOM     31  C   UNL     1      -2.540  -9.784  11.089  0.00  0.00    +0.005 A 
ATOM     32  C   UNL     1      -3.826 -11.794  10.708  0.00  0.00    +0.005 A 
ATOM     33  C   UNL     1      -3.161  -9.180   9.995  0.00  0.00    +0.000 A 
ATOM     34  C   UNL     1      -4.446 -11.189   9.614  0.00  0.00    +0.000 A 
ATOM     35  C   UNL     1      -4.114  -9.883   9.257  0.00  0.00    +0.000 A 
ENDBRANCH  24  27
ENDBRANCH   1  24
ENDBRANCH  10   1
ENDBRANCH  21  10
TORSDOF 6
ENDMDL
MODEL 3
REMARK VINA RESULT:      -7.4     28.955     30.600
REMARK  Name = 7051381
REMARK  7 active torsions:
REMARK  status: ('A' for Active; 'I' for Inactive)
REMARK    1  A    between atoms: S_1  and  N_10
REMARK    2  A    between atoms: S_1  and  C_24
REMARK    3  A    between atoms: O_6  and  C_30
REMARK    4  A    between atoms: O_6  and  C_36
REMARK    5  A    between atoms: N_9  and  C_23
REMARK    6  A    between atoms: N_10  and  C_21
REMARK    7  A    between atoms: C_24  and  C_27
REMARK                            x       y       z     vdW  Elec       q    Type
REMARK                         _______ _______ _______ _____ _____    ______ ____
ROOT
ATOM      2  O   UNL     1      -1.729 -11.640  12.616  0.00  0.00    -0.266 OA
ATOM      3  O   UNL     1      -7.621 -11.119  12.518  0.00  0.00    -0.252 OA
ATOM      7  N   UNL     1      -6.218  -9.777  11.259  0.00  0.00    -0.284 N 
ATOM      8  N   UNL     1      -3.381 -11.259  10.999  0.00  0.00    -0.310 N 
ATOM      9  N   UNL     1      -6.554  -9.338  13.553  0.00  0.00    -0.269 N 
ATOM     11  C   UNL     1      -4.087  -8.919  10.247  0.00  0.00    +0.027 C 
ATOM     12  C   UNL     1      -5.187 -10.890   9.280  0.00  0.00    +0.054 C 
ATOM     13  C   UNL     1      -4.456  -9.596   8.935  0.00  0.00    +0.018 C 
ATOM     14  C   UNL     1      -5.345  -8.606  11.082  0.00  0.00    +0.114 C 
ATOM     15  C   UNL     1      -3.104  -9.818  11.007  0.00  0.00    +0.130 C 
ATOM     16  C   UNL     1      -6.482 -10.552  10.040  0.00  0.00    +0.119 C 
ATOM     17  C   UNL     1      -4.322 -11.811  10.119  0.00  0.00    +0.027 A 
ATOM     18  C   UNL     1      -4.479 -13.145  10.040  0.00  0.00    +0.024 A 
ATOM     19  C   UNL     1      -2.582 -12.064  11.837  0.00  0.00    +0.274 A 
ATOM     20  C   UNL     1      -6.852 -10.155  12.464  0.00  0.00    +0.306 C 
ATOM     21  C   UNL     1      -2.819 -13.525  11.723  0.00  0.00    +0.112 A 
ATOM     22  C   UNL     1      -3.707 -14.033  10.868  0.00  0.00    +0.031 A 
ATOM     37  H   UNL     1      -6.326  -8.366  13.375  0.00  0.00    +0.156 HD
ENDROOT
BRANCH   9  23
ATOM     23  C   UNL     1      -6.508  -9.712  14.919  0.00  0.00    +0.035 A 
ATOM     25  C   UNL     1      -7.692  -9.868  15.639  0.00  0.00    +0.027 A 
ATOM     26  C   UNL     1      -5.279  -9.926  15.542  0.00  0.00    +0.027 A 
ATOM     28  C   UNL     1      -7.647 -10.237  16.984  0.00  0.00    +0.047 A 
ATOM     29  C   UNL     1      -5.234 -10.296  16.887  0.00  0.00    +0.047 A 
ATOM     30  C   UNL     1      -6.418 -10.451  17.608  0.00  0.00    +0.120 A 
BRANCH  30   6
ATOM      6  O   UNL     1      -6.373 -10.812  18.918  0.00  0.00    -0.495 OA
ATOM     36  C   UNL     1      -5.184 -11.456  19.375  0.00  0.00    +0.277 C 
ENDBRANCH  30   6
ENDBRANCH   9  23
BRANCH  21  10
ATOM     10  N   UNL     1      -2.089 -14.425  12.519  0.00  0.00    -0.215 N 
ATOM     38  H   UNL     1      -1.134 -14.097  12.714  0.00  0.00    +0.173 HD
BRANCH  10   1
ATOM      1  S   UNL     1      -2.910 -15.021  13.890  0.00  0.00    +0.047 S 
ATOM      4  O   UNL     1      -4.148 -15.656  13.482  0.00  0.00    -0.155 OA
ATOM      5  O   UNL     1      -1.967 -15.702  14.755  0.00  0.00    -0.155 OA
BRANCH   1  24
ATOM     24  C   UNL     1      -3.339 -13.485  14.671  0.00  0.00    +0.223 C 
BRANCH  24  27
ATOM     27  C   UNL     1      -4.716 -13.632  15.240  0.00  0.00    -0.025 A 
ATOM     31  C   UNL     1      -5.831 -13.345  14.452  0.00  0.00    +0.005 A 
ATOM     32  C   UNL     1      -4.884 -14.055  16.558  0.00  0.00    +0.005 A 
ATOM     33  C   UNL     1      -7.114 -13.482  14.982  0.00  0.00    +0.000 A 
ATOM     34  C   UNL     1      -6.168 -14.192  17.088  0.00  0.00    +0.000 A 
ATOM     35  C   UNL     1      -7.283 -13.905  16.301  0.00  0.00    +0.000 A 
ENDBRANCH  24  27
ENDBRANCH   1  24
ENDBRANCH  10   1
ENDBRANCH  21  10
TORSDOF 6
ENDMDL
MODEL 4
REMARK VINA RESULT:      -7.3     15.327     18.292
REMARK  Name = 7051381
REMARK  7 active torsions:
REMARK  status: ('A' for Active; 'I' for Inactive)
REMARK    1  A    between atoms: S_1  and  N_10
REMARK    2  A    between atoms: S_1  and  C_24
REMARK    3  A    between atoms: O_6  and  C_30
REMARK    4  A    between atoms: O_6  and  C_36
REMARK    5  A    between atoms: N_9  and  C_23
REMARK    6  A    between atoms: N_10  and  C_21
REMARK    7  A    between atoms: C_24  and  C_27
REMARK                            x       y       z     vdW  Elec       q    Type
REMARK                         _______ _______ _______ _____ _____    ______ ____
ROOT
ATOM      2  O   UNL     1      13.696   6.867   7.339  0.00  0.00    -0.266 OA
ATOM      3  O   UNL     1      10.291   7.166   2.511  0.00  0.00    -0.252 OA
ATOM      7  N   UNL     1       9.520   6.385   4.548  0.00  0.00    -0.284 N 
ATOM      8  N   UNL     1      11.486   7.467   6.845  0.00  0.00    -0.310 N 
ATOM      9  N   UNL     1      10.808   4.995   3.143  0.00  0.00    -0.269 N 
ATOM     11  C   UNL     1       9.527   5.830   6.996  0.00  0.00    +0.027 C 
ATOM     12  C   UNL     1       9.126   8.142   6.273  0.00  0.00    +0.054 C 
ATOM     13  C   UNL     1       8.685   7.069   7.264  0.00  0.00    +0.018 C 
ATOM     14  C   UNL     1       9.330   5.326   5.553  0.00  0.00    +0.114 C 
ATOM     15  C   UNL     1      10.996   6.158   7.293  0.00  0.00    +0.130 C 
ATOM     16  C   UNL     1       8.844   7.655   4.841  0.00  0.00    +0.119 C 
ATOM     17  C   UNL     1      10.600   8.468   6.426  0.00  0.00    +0.027 A 
ATOM     18  C   UNL     1      11.055   9.700   6.132  0.00  0.00    +0.024 A 
ATOM     19  C   UNL     1      12.873   7.699   6.960  0.00  0.00    +0.274 A 
ATOM     20  C   UNL     1      10.227   6.247   3.332  0.00  0.00    +0.306 C 
ATOM     21  C   UNL     1      13.317   9.067   6.599  0.00  0.00    +0.112 A 
ATOM     22  C   UNL     1      12.456  10.013   6.218  0.00  0.00    +0.031 A 
ATOM     37  H   UNL     1      10.366   4.190   3.574  0.00  0.00    +0.156 HD
ENDROOT
BRANCH   9  23
ATOM     23  C   UNL     1      11.988   4.697   2.417  0.00  0.00    +0.035 A 
ATOM     25  C   UNL     1      13.048   5.604   2.407  0.00  0.00    +0.027 A 
ATOM     26  C   UNL     1      12.090   3.497   1.714  0.00  0.00    +0.027 A 
ATOM     28  C   UNL     1      14.210   5.311   1.694  0.00  0.00    +0.047 A 
ATOM     29  C   UNL     1      13.253   3.204   1.000  0.00  0.00    +0.047 A 
ATOM     30  C   UNL     1      14.312   4.110   0.990  0.00  0.00    +0.120 A 
BRANCH  30   6
ATOM      6  O   UNL     1      15.446   3.823   0.295  0.00  0.00    -0.495 OA
ATOM     36  C   UNL     1      15.537   4.329  -1.036  0.00  0.00    +0.277 C 
ENDBRANCH  30   6
ENDBRANCH   9  23
BRANCH  21  10
ATOM     10  N   UNL     1      14.678   9.411   6.663  0.00  0.00    -0.215 N 
ATOM     38  H   UNL     1      15.115   9.132   7.552  0.00  0.00    +0.173 HD
BRANCH  10   1
ATOM      1  S   UNL     1      15.599   9.016   5.284  0.00  0.00    +0.047 S 
ATOM      4  O   UNL     1      16.042   7.637   5.369  0.00  0.00    -0.155 OA
ATOM      5  O   UNL     1      14.931   9.517   4.099  0.00  0.00    -0.155 OA
BRANCH   1  24
ATOM     24  C   UNL     1      17.020  10.042   5.571  0.00  0.00    +0.223 C 
BRANCH  24  27
ATOM     27  C   UNL     1      18.238   9.180   5.454  0.00  0.00    -0.025 A 
ATOM     31  C   UNL     1      18.994   8.883   6.588  0.00  0.00    +0.005 A 
ATOM     32  C   UNL     1      18.617   8.673   4.211  0.00  0.00    +0.005 A 
ATOM     33  C   UNL     1      20.128   8.079   6.480  0.00  0.00    +0.000 A 
ATOM     34  C   UNL     1      19.753   7.869   4.103  0.00  0.00    +0.000 A 
ATOM     35  C   UNL     1      20.508   7.572   5.237  0.00  0.00    +0.000 A 
ENDBRANCH  24  27
ENDBRANCH   1  24
ENDBRANCH  10   1
ENDBRANCH  21  10
TORSDOF 6
ENDMDL
MODEL 5
REMARK VINA RESULT:      -7.2     15.865     19.735
REMARK  Name = 7051381
REMARK  7 active torsions:
REMARK  status: ('A' for Active; 'I' for Inactive)
REMARK    1  A    between atoms: S_1  and  N_10
REMARK    2  A    between atoms: S_1  and  C_24
REMARK    3  A    between atoms: O_6  and  C_30
REMARK    4  A    between atoms: O_6  and  C_36
REMARK    5  A    between atoms: N_9  and  C_23
REMARK    6  A    between atoms: N_10  and  C_21
REMARK    7  A    between atoms: C_24  and  C_27
REMARK                            x       y       z     vdW  Elec       q    Type
REMARK                         _______ _______ _______ _____ _____    ______ ____
ROOT
ATOM      2  O   UNL     1      10.791   7.165   2.143  0.00  0.00    -0.266 OA
ATOM      3  O   UNL     1      13.457   6.295   7.352  0.00  0.00    -0.252 OA
ATOM      7  N   UNL     1      11.511   7.526   7.124  0.00  0.00    -0.284 N 
ATOM      8  N   UNL     1      10.128   6.709   4.343  0.00  0.00    -0.310 N 
ATOM      9  N   UNL     1      13.601   8.483   6.594  0.00  0.00    -0.269 N 
ATOM     11  C   UNL     1       9.496   8.535   6.018  0.00  0.00    +0.027 C 
ATOM     12  C   UNL     1       9.452   6.180   6.713  0.00  0.00    +0.054 C 
ATOM     13  C   UNL     1       8.626   7.462   6.658  0.00  0.00    +0.018 C 
ATOM     14  C   UNL     1      10.780   8.770   6.838  0.00  0.00    +0.114 C 
ATOM     15  C   UNL     1       9.806   8.122   4.574  0.00  0.00    +0.130 C 
ATOM     16  C   UNL     1      10.685   6.410   7.604  0.00  0.00    +0.119 C 
ATOM     17  C   UNL     1       9.890   5.741   5.328  0.00  0.00    +0.027 A 
ATOM     18  C   UNL     1      10.079   4.436   5.060  0.00  0.00    +0.024 A 
ATOM     19  C   UNL     1      10.582   6.364   3.053  0.00  0.00    +0.274 A 
ATOM     20  C   UNL     1      12.911   7.356   7.036  0.00  0.00    +0.306 C 
ATOM     21  C   UNL     1      10.795   4.913   2.826  0.00  0.00    +0.112 A 
ATOM     22  C   UNL     1      10.548   4.005   3.771  0.00  0.00    +0.031 A 
ATOM     37  H   UNL     1      13.205   9.396   6.793  0.00  0.00    +0.156 HD
ENDROOT
BRANCH   9  23
ATOM     23  C   UNL     1      14.814   8.515   5.864  0.00  0.00    +0.035 A 
ATOM     25  C   UNL     1      14.994   7.663   4.773  0.00  0.00    +0.027 A 
ATOM     26  C   UNL     1      15.828   9.399   6.232  0.00  0.00    +0.027 A 
ATOM     28  C   UNL     1      16.187   7.695   4.052  0.00  0.00    +0.047 A 
ATOM     29  C   UNL     1      17.021   9.431   5.511  0.00  0.00    +0.047 A 
ATOM     30  C   UNL     1      17.202   8.579   4.421  0.00  0.00    +0.120 A 
BRANCH  30   6
ATOM      6  O   UNL     1      18.366   8.611   3.718  0.00  0.00    -0.495 OA
ATOM     36  C   UNL     1      19.435   7.795   4.193  0.00  0.00    +0.277 C 
ENDBRANCH  30   6
ENDBRANCH   9  23
BRANCH  21  10
ATOM     10  N   UNL     1      11.258   4.451   1.582  0.00  0.00    -0.215 N 
ATOM     38  H   UNL     1      10.833   4.952   0.790  0.00  0.00    +0.173 HD
BRANCH  10   1
ATOM      1  S   UNL     1      12.948   4.262   1.453  0.00  0.00    +0.047 S 
ATOM      4  O   UNL     1      13.613   5.169   2.369  0.00  0.00    -0.155 OA
ATOM      5  O   UNL     1      13.273   2.850   1.427  0.00  0.00    -0.155 OA
BRANCH   1  24
ATOM     24  C   UNL     1      13.195   4.898  -0.187  0.00  0.00    +0.223 C 
BRANCH  24  27
ATOM     27  C   UNL     1      12.342   4.095  -1.120  0.00  0.00    -0.025 A 
ATOM     31  C   UNL     1      12.718   2.797  -1.466  0.00  0.00    +0.005 A 
ATOM     32  C   UNL     1      11.173   4.646  -1.645  0.00  0.00    +0.005 A 
ATOM     33  C   UNL     1      11.924   2.050  -2.336  0.00  0.00    +0.000 A 
ATOM     34  C   UNL     1      10.379   3.898  -2.515  0.00  0.00    +0.000 A 
ATOM     35  C   UNL     1      10.755   2.600  -2.860  0.00  0.00    +0.000 A 
ENDBRANCH  24  27
ENDBRANCH   1  24
ENDBRANCH  10   1
ENDBRANCH  21  10
TORSDOF 6
ENDMDL
MODEL 6
REMARK VINA RESULT:      -7.2     16.873     20.505
REMARK  Name = 7051381
REMARK  7 active torsions:
REMARK  status: ('A' for Active; 'I' for Inactive)
REMARK    1  A    between atoms: S_1  and  N_10
REMARK    2  A    between atoms: S_1  and  C_24
REMARK    3  A    between atoms: O_6  and  C_30
REMARK    4  A    between atoms: O_6  and  C_36
REMARK    5  A    between atoms: N_9  and  C_23
REMARK    6  A    between atoms: N_10  and  C_21
REMARK    7  A    between atoms: C_24  and  C_27
REMARK                            x       y       z     vdW  Elec       q    Type
REMARK                         _______ _______ _______ _____ _____    ______ ____
ROOT
ATOM      2  O   UNL     1      10.315   4.856   2.915  0.00  0.00    -0.266 OA
ATOM      3  O   UNL     1       9.584  10.236   5.265  0.00  0.00    -0.252 OA
ATOM      7  N   UNL     1       9.410   8.287   6.502  0.00  0.00    -0.284 N 
ATOM      8  N   UNL     1      10.914   5.945   4.901  0.00  0.00    -0.310 N 
ATOM      9  N   UNL     1       7.621   9.007   5.143  0.00  0.00    -0.269 N 
ATOM     11  C   UNL     1       9.508   5.836   7.033  0.00  0.00    +0.027 C 
ATOM     12  C   UNL     1      11.575   7.160   7.008  0.00  0.00    +0.054 C 
ATOM     13  C   UNL     1      10.827   6.061   7.758  0.00  0.00    +0.018 C 
ATOM     14  C   UNL     1       8.662   7.125   7.007  0.00  0.00    +0.114 C 
ATOM     15  C   UNL     1       9.801   5.315   5.621  0.00  0.00    +0.130 C 
ATOM     16  C   UNL     1      10.755   8.460   7.065  0.00  0.00    +0.119 C 
ATOM     17  C   UNL     1      11.830   6.773   5.563  0.00  0.00    +0.027 A 
ATOM     18  C   UNL     1      12.911   7.247   4.916  0.00  0.00    +0.024 A 
ATOM     19  C   UNL     1      11.074   5.591   3.545  0.00  0.00    +0.274 A 
ATOM     20  C   UNL     1       8.916   9.253   5.596  0.00  0.00    +0.306 C 
ATOM     21  C   UNL     1      12.270   6.164   2.879  0.00  0.00    +0.112 A 
ATOM     22  C   UNL     1      13.140   6.937   3.531  0.00  0.00    +0.031 A 
ATOM     37  H   UNL     1       6.987   8.502   5.753  0.00  0.00    +0.156 HD
ENDROOT
BRANCH   9  23
ATOM     23  C   UNL     1       7.067   9.367   3.890  0.00  0.00    +0.035 A 
ATOM     25  C   UNL     1       5.872  10.085   3.836  0.00  0.00    +0.027 A 
ATOM     26  C   UNL     1       7.718   9.008   2.710  0.00  0.00    +0.027 A 
ATOM     28  C   UNL     1       5.327  10.442   2.603  0.00  0.00    +0.047 A 
ATOM     29  C   UNL     1       7.173   9.364   1.476  0.00  0.00    +0.047 A 
ATOM     30  C   UNL     1       5.978  10.081   1.422  0.00  0.00    +0.120 A 
BRANCH  30   6
ATOM      6  O   UNL     1       5.448  10.430   0.219  0.00  0.00    -0.495 OA
ATOM     36  C   UNL     1       4.501   9.531  -0.359  0.00  0.00    +0.277 C 
ENDBRANCH  30   6
ENDBRANCH   9  23
BRANCH  21  10
ATOM     10  N   UNL     1      12.527   5.890   1.525  0.00  0.00    -0.215 N 
ATOM     38  H   UNL     1      12.812   6.727   0.999  0.00  0.00    +0.173 HD
BRANCH  10   1
ATOM      1  S   UNL     1      13.497   4.520   1.226  0.00  0.00    +0.047 S 
ATOM      4  O   UNL     1      14.755   4.647   1.937  0.00  0.00    -0.155 OA
ATOM      5  O   UNL     1      12.687   3.323   1.341  0.00  0.00    -0.155 OA
BRANCH   1  24
ATOM     24  C   UNL     1      13.841   4.770  -0.499  0.00  0.00    +0.223 C 
BRANCH  24  27
ATOM     27  C   UNL     1      12.744   4.118  -1.282  0.00  0.00    -0.025 A 
ATOM     31  C   UNL     1      11.561   4.811  -1.535  0.00  0.00    +0.005 A 
ATOM     32  C   UNL     1      12.906   2.817  -1.759  0.00  0.00    +0.005 A 
ATOM     33  C   UNL     1      10.539   4.204  -2.265  0.00  0.00    +0.000 A 
ATOM     34  C   UNL     1      11.884   2.210  -2.489  0.00  0.00    +0.000 A 
ATOM     35  C   UNL     1      10.700   2.903  -2.742  0.00  0.00    +0.000 A 
ENDBRANCH  24  27
ENDBRANCH   1  24
ENDBRANCH  10   1
ENDBRANCH  21  10
TORSDOF 6
ENDMDL
MODEL 7
REMARK VINA RESULT:      -7.1     15.677     19.206
REMARK  Name = 7051381
REMARK  7 active torsions:
REMARK  status: ('A' for Active; 'I' for Inactive)
REMARK    1  A    between atoms: S_1  and  N_10
REMARK    2  A    between atoms: S_1  and  C_24
REMARK    3  A    between atoms: O_6  and  C_30
REMARK    4  A    between atoms: O_6  and  C_36
REMARK    5  A    between atoms: N_9  and  C_23
REMARK    6  A    between atoms: N_10  and  C_21
REMARK    7  A    between atoms: C_24  and  C_27
REMARK                            x       y       z     vdW  Elec       q    Type
REMARK                         _______ _______ _______ _____ _____    ______ ____
ROOT
ATOM      2  O   UNL     1      10.700   7.236   2.216  0.00  0.00    -0.266 OA
ATOM      3  O   UNL     1      13.556   6.331   7.318  0.00  0.00    -0.252 OA
ATOM      7  N   UNL     1      11.660   7.648   7.153  0.00  0.00    -0.284 N 
ATOM      8  N   UNL     1      10.116   6.850   4.452  0.00  0.00    -0.310 N 
ATOM      9  N   UNL     1      13.766   8.496   6.513  0.00  0.00    -0.269 N 
ATOM     11  C   UNL     1       9.646   8.732   6.118  0.00  0.00    +0.027 C 
ATOM     12  C   UNL     1       9.525   6.394   6.859  0.00  0.00    +0.054 C 
ATOM     13  C   UNL     1       8.757   7.713   6.816  0.00  0.00    +0.018 C 
ATOM     14  C   UNL     1      10.975   8.921   6.876  0.00  0.00    +0.114 C 
ATOM     15  C   UNL     1       9.872   8.281   4.670  0.00  0.00    +0.130 C 
ATOM     16  C   UNL     1      10.806   6.581   7.690  0.00  0.00    +0.119 C 
ATOM     17  C   UNL     1       9.879   5.912   5.465  0.00  0.00    +0.027 A 
ATOM     18  C   UNL     1       9.995   4.595   5.214  0.00  0.00    +0.024 A 
ATOM     19  C   UNL     1      10.496   6.462   3.150  0.00  0.00    +0.274 A 
ATOM     20  C   UNL     1      13.045   7.410   7.006  0.00  0.00    +0.306 C 
ATOM     21  C   UNL     1      10.631   4.999   2.941  0.00  0.00    +0.112 A 
ATOM     22  C   UNL     1      10.384   4.120   3.914  0.00  0.00    +0.031 A 
ATOM     37  H   UNL     1      13.423   9.430   6.711  0.00  0.00    +0.156 HD
ENDROOT
BRANCH   9  23
ATOM     23  C   UNL     1      14.945   8.458   5.729  0.00  0.00    +0.035 A 
ATOM     25  C   UNL     1      16.096   9.113   6.168  0.00  0.00    +0.027 A 
ATOM     26  C   UNL     1      14.957   7.764   4.519  0.00  0.00    +0.027 A 
ATOM     28  C   UNL     1      17.258   9.075   5.396  0.00  0.00    +0.047 A 
ATOM     29  C   UNL     1      16.119   7.726   3.748  0.00  0.00    +0.047 A 
ATOM     30  C   UNL     1      17.269   8.381   4.186  0.00  0.00    +0.120 A 
BRANCH  30   6
ATOM      6  O   UNL     1      18.402   8.342   3.434  0.00  0.00    -0.495 OA
ATOM     36  C   UNL     1      19.563   7.770   4.036  0.00  0.00    +0.277 C 
ENDBRANCH  30   6
ENDBRANCH   9  23
BRANCH  21  10
ATOM     10  N   UNL     1      11.015   4.495   1.687  0.00  0.00    -0.215 N 
ATOM     38  H   UNL     1      10.583   5.005   0.905  0.00  0.00    +0.173 HD
BRANCH  10   1
ATOM      1  S   UNL     1      12.686   4.215   1.491  0.00  0.00    +0.047 S 
ATOM      4  O   UNL     1      13.439   5.238   2.191  0.00  0.00    -0.155 OA
ATOM      5  O   UNL     1      12.965   2.807   1.694  0.00  0.00    -0.155 OA
BRANCH   1  24
ATOM     24  C   UNL     1      12.840   4.546  -0.247  0.00  0.00    +0.223 C 
BRANCH  24  27
ATOM     27  C   UNL     1      14.245   4.997  -0.503  0.00  0.00    -0.025 A 
ATOM     31  C   UNL     1      15.285   4.067  -0.517  0.00  0.00    +0.005 A 
ATOM     32  C   UNL     1      14.514   6.347  -0.727  0.00  0.00    +0.005 A 
ATOM     33  C   UNL     1      16.593   4.487  -0.756  0.00  0.00    +0.000 A 
ATOM     34  C   UNL     1      15.823   6.767  -0.966  0.00  0.00    +0.000 A 
ATOM     35  C   UNL     1      16.863   5.837  -0.980  0.00  0.00    +0.000 A 
ENDBRANCH  24  27
ENDBRANCH   1  24
ENDBRANCH  10   1
ENDBRANCH  21  10
TORSDOF 6
ENDMDL
MODEL 8
REMARK VINA RESULT:      -7.0      2.863      5.706
REMARK  Name = 7051381
REMARK  7 active torsions:
REMARK  status: ('A' for Active; 'I' for Inactive)
REMARK    1  A    between atoms: S_1  and  N_10
REMARK    2  A    between atoms: S_1  and  C_24
REMARK    3  A    between atoms: O_6  and  C_30
REMARK    4  A    between atoms: O_6  and  C_36
REMARK    5  A    between atoms: N_9  and  C_23
REMARK    6  A    between atoms: N_10  and  C_21
REMARK    7  A    between atoms: C_24  and  C_27
REMARK                            x       y       z     vdW  Elec       q    Type
REMARK                         _______ _______ _______ _____ _____    ______ ____
ROOT
ATOM      2  O   UNL     1      16.622   6.902  19.303  0.00  0.00    -0.266 OA
ATOM      3  O   UNL     1      13.329  11.803  18.938  0.00  0.00    -0.252 OA
ATOM      7  N   UNL     1      12.433   9.713  19.370  0.00  0.00    -0.284 N 
ATOM      8  N   UNL     1      14.790   7.814  20.442  0.00  0.00    -0.310 N 
ATOM      9  N   UNL     1      13.005  10.339  17.168  0.00  0.00    -0.269 N 
ATOM     11  C   UNL     1      12.364   7.253  19.861  0.00  0.00    +0.027 C 
ATOM     12  C   UNL     1      12.844   8.843  21.670  0.00  0.00    +0.054 C 
ATOM     13  C   UNL     1      12.080   7.568  21.323  0.00  0.00    +0.018 C 
ATOM     14  C   UNL     1      11.907   8.406  18.946  0.00  0.00    +0.114 C 
ATOM     15  C   UNL     1      13.859   6.953  19.702  0.00  0.00    +0.130 C 
ATOM     16  C   UNL     1      12.316  10.000  20.805  0.00  0.00    +0.119 C 
ATOM     17  C   UNL     1      14.336   8.674  21.451  0.00  0.00    +0.027 A 
ATOM     18  C   UNL     1      15.213   9.368  22.200  0.00  0.00    +0.024 A 
ATOM     19  C   UNL     1      16.163   7.653  20.162  0.00  0.00    +0.274 A 
ATOM     20  C   UNL     1      12.963  10.704  18.512  0.00  0.00    +0.306 C 
ATOM     21  C   UNL     1      17.079   8.463  21.003  0.00  0.00    +0.112 A 
ATOM     22  C   UNL     1      16.628   9.263  21.971  0.00  0.00    +0.031 A 
ATOM     37  H   UNL     1      12.312   9.681  16.828  0.00  0.00    +0.156 HD
ENDROOT
BRANCH   9  23
ATOM     23  C   UNL     1      13.936  10.769  16.191  0.00  0.00    +0.035 A 
ATOM     25  C   UNL     1      14.630   9.830  15.427  0.00  0.00    +0.027 A 
ATOM     26  C   UNL     1      14.158  12.131  15.991  0.00  0.00    +0.027 A 
ATOM     28  C   UNL     1      15.546  10.253  14.464  0.00  0.00    +0.047 A 
ATOM     29  C   UNL     1      15.075  12.555  15.028  0.00  0.00    +0.047 A 
ATOM     30  C   UNL     1      15.768  11.616  14.264  0.00  0.00    +0.120 A 
BRANCH  30   6
ATOM      6  O   UNL     1      16.660  12.030  13.324  0.00  0.00    -0.495 OA
ATOM     36  C   UNL     1      16.170  12.203  11.995  0.00  0.00    +0.277 C 
ENDBRANCH  30   6
ENDBRANCH   9  23
BRANCH  21  10
ATOM     10  N   UNL     1      18.469   8.393  20.807  0.00  0.00    -0.215 N 
ATOM     38  H   UNL     1      18.894   9.318  20.654  0.00  0.00    +0.173 HD
BRANCH  10   1
ATOM      1  S   UNL     1      19.318   7.417  21.918  0.00  0.00    +0.047 S 
ATOM      4  O   UNL     1      19.807   8.233  23.013  0.00  0.00    -0.155 OA
ATOM      5  O   UNL     1      18.564   6.203  22.165  0.00  0.00    -0.155 OA
BRANCH   1  24
ATOM     24  C   UNL     1      20.721   6.982  20.920  0.00  0.00    +0.223 C 
BRANCH  24  27
ATOM     27  C   UNL     1      21.236   5.663  21.407  0.00  0.00    -0.025 A 
ATOM     31  C   UNL     1      21.928   5.588  22.615  0.00  0.00    +0.005 A 
ATOM     32  C   UNL     1      21.025   4.510  20.651  0.00  0.00    +0.005 A 
ATOM     33  C   UNL     1      22.408   4.360  23.069  0.00  0.00    +0.000 A 
ATOM     34  C   UNL     1      21.506   3.281  21.106  0.00  0.00    +0.000 A 
ATOM     35  C   UNL     1      22.197   3.206  22.314  0.00  0.00    +0.000 A 
ENDBRANCH  24  27
ENDBRANCH   1  24
ENDBRANCH  10   1
ENDBRANCH  21  10
TORSDOF 6
ENDMDL
MODEL 9
REMARK VINA RESULT:      -7.0     29.633     32.403
REMARK  Name = 7051381
REMARK  7 active torsions:
REMARK  status: ('A' for Active; 'I' for Inactive)
REMARK    1  A    between atoms: S_1  and  N_10
REMARK    2  A    between atoms: S_1  and  C_24
REMARK    3  A    between atoms: O_6  and  C_30
REMARK    4  A    between atoms: O_6  and  C_36
REMARK    5  A    between atoms: N_9  and  C_23
REMARK    6  A    between atoms: N_10  and  C_21
REMARK    7  A    between atoms: C_24  and  C_27
REMARK                            x       y       z     vdW  Elec       q    Type
REMARK                         _______ _______ _______ _____ _____    ______ ____
ROOT
ATOM      2  O   UNL     1     -10.766 -10.068  13.782  0.00  0.00    -0.266 OA
ATOM      3  O   UNL     1     -11.921  -4.431  12.412  0.00  0.00    -0.252 OA
ATOM      7  N   UNL     1     -13.574  -5.963  12.936  0.00  0.00    -0.284 N 
ATOM      8  N   UNL     1     -12.218  -8.393  14.539  0.00  0.00    -0.310 N 
ATOM      9  N   UNL     1     -12.606  -5.936  10.785  0.00  0.00    -0.269 N 
ATOM     11  C   UNL     1     -14.611  -8.125  13.679  0.00  0.00    +0.027 C 
ATOM     12  C   UNL     1     -13.739  -6.555  15.353  0.00  0.00    +0.054 C 
ATOM     13  C   UNL     1     -14.891  -7.506  15.041  0.00  0.00    +0.018 C 
ATOM     14  C   UNL     1     -14.512  -7.042  12.586  0.00  0.00    +0.114 C 
ATOM     15  C   UNL     1     -13.331  -8.964  13.771  0.00  0.00    +0.130 C 
ATOM     16  C   UNL     1     -13.708  -5.434  14.299  0.00  0.00    +0.119 C 
ATOM     17  C   UNL     1     -12.407  -7.282  15.371  0.00  0.00    +0.027 A 
ATOM     18  C   UNL     1     -11.407  -6.843  16.158  0.00  0.00    +0.024 A 
ATOM     19  C   UNL     1     -10.987  -9.079  14.479  0.00  0.00    +0.274 A 
ATOM     20  C   UNL     1     -12.633  -5.376  12.061  0.00  0.00    +0.306 C 
ATOM     21  C   UNL     1      -9.917  -8.533  15.350  0.00  0.00    +0.112 A 
ATOM     22  C   UNL     1     -10.121  -7.485  16.149  0.00  0.00    +0.031 A 
ATOM     37  H   UNL     1     -13.461  -6.344  10.422  0.00  0.00    +0.156 HD
ENDROOT
BRANCH   9  23
ATOM     23  C   UNL     1     -11.494  -6.027   9.911  0.00  0.00    +0.035 A 
ATOM     25  C   UNL     1     -10.961  -4.871   9.339  0.00  0.00    +0.027 A 
ATOM     26  C   UNL     1     -10.932  -7.270   9.625  0.00  0.00    +0.027 A 
ATOM     28  C   UNL     1      -9.866  -4.960   8.480  0.00  0.00    +0.047 A 
ATOM     29  C   UNL     1      -9.836  -7.359   8.766  0.00  0.00    +0.047 A 
ATOM     30  C   UNL     1      -9.303  -6.205   8.193  0.00  0.00    +0.120 A 
BRANCH  30   6
ATOM      6  O   UNL     1      -8.234  -6.292   7.356  0.00  0.00    -0.495 OA
ATOM     36  C   UNL     1      -8.250  -7.341   6.389  0.00  0.00    +0.277 C 
ENDBRANCH  30   6
ENDBRANCH   9  23
BRANCH  21  10
ATOM     10  N   UNL     1      -8.643  -9.128  15.365  0.00  0.00    -0.215 N 
ATOM     38  H   UNL     1      -7.886  -8.446  15.228  0.00  0.00    +0.173 HD
BRANCH  10   1
ATOM      1  S   UNL     1      -8.363 -10.226  16.639  0.00  0.00    +0.047 S 
ATOM      4  O   UNL     1      -9.551 -10.333  17.464  0.00  0.00    -0.155 OA
ATOM      5  O   UNL     1      -7.701 -11.407  16.119  0.00  0.00    -0.155 OA
BRANCH   1  24
ATOM     24  C   UNL     1      -7.161  -9.305  17.567  0.00  0.00    +0.223 C 
BRANCH  24  27
ATOM     27  C   UNL     1      -6.163 -10.278  18.114  0.00  0.00    -0.025 A 
ATOM     31  C   UNL     1      -6.427 -10.951  19.307  0.00  0.00    +0.005 A 
ATOM     32  C   UNL     1      -4.969 -10.511  17.432  0.00  0.00    +0.005 A 
ATOM     33  C   UNL     1      -5.498 -11.857  19.817  0.00  0.00    +0.000 A 
ATOM     34  C   UNL     1      -4.040 -11.418  17.943  0.00  0.00    +0.000 A 
ATOM     35  C   UNL     1      -4.303 -12.090  19.135  0.00  0.00    +0.000 A 
ENDBRANCH  24  27
ENDBRANCH   1  24
ENDBRANCH  10   1
ENDBRANCH  21  10
TORSDOF 6
ENDMDL
MODEL 10
REMARK VINA RESULT:      -6.8     28.756     32.172
REMARK  Name = 7051381
REMARK  7 active torsions:
REMARK  status: ('A' for Active; 'I' for Inactive)
REMARK    1  A    between atoms: S_1  and  N_10
REMARK    2  A    between atoms: S_1  and  C_24
REMARK    3  A    between atoms: O_6  and  C_30
REMARK    4  A    between atoms: O_6  and  C_36
REMARK    5  A    between atoms: N_9  and  C_23
REMARK    6  A    between atoms: N_10  and  C_21
REMARK    7  A    between atoms: C_24  and  C_27
REMARK                            x       y       z     vdW  Elec       q    Type
REMARK                         _______ _______ _______ _____ _____    ______ ____
ROOT
ATOM      2  O   UNL     1      -8.189  -9.003  15.939  0.00  0.00    -0.266 OA
ATOM      3  O   UNL     1      -4.442 -13.323  14.425  0.00  0.00    -0.252 OA
ATOM      7  N   UNL     1      -4.414 -12.303  16.502  0.00  0.00    -0.284 N 
ATOM      8  N   UNL     1      -7.262 -10.894  16.966  0.00  0.00    -0.310 N 
ATOM      9  N   UNL     1      -3.424 -11.250  14.638  0.00  0.00    -0.269 N 
ATOM     11  C   UNL     1      -5.138 -10.811  18.387  0.00  0.00    +0.027 C 
ATOM     12  C   UNL     1      -6.276 -12.957  18.026  0.00  0.00    +0.054 C 
ATOM     13  C   UNL     1      -5.726 -12.022  19.099  0.00  0.00    +0.018 C 
ATOM     14  C   UNL     1      -4.010 -11.229  17.423  0.00  0.00    +0.114 C 
ATOM     15  C   UNL     1      -6.266 -10.069  17.661  0.00  0.00    +0.130 C 
ATOM     16  C   UNL     1      -5.122 -13.429  17.125  0.00  0.00    +0.119 C 
ATOM     17  C   UNL     1      -7.341 -12.275  17.186  0.00  0.00    +0.027 A 
ATOM     18  C   UNL     1      -8.333 -12.997  16.634  0.00  0.00    +0.024 A 
ATOM     19  C   UNL     1      -8.195 -10.214  16.155  0.00  0.00    +0.274 A 
ATOM     20  C   UNL     1      -4.120 -12.356  15.121  0.00  0.00    +0.306 C 
ATOM     21  C   UNL     1      -9.250 -11.067  15.555  0.00  0.00    +0.112 A 
ATOM     22  C   UNL     1      -9.319 -12.378  15.790  0.00  0.00    +0.031 A 
ATOM     37  H   UNL     1      -2.811 -10.753  15.275  0.00  0.00    +0.156 HD
ENDROOT
BRANCH   9  23
ATOM     23  C   UNL     1      -3.481 -10.703  13.332  0.00  0.00    +0.035 A 
ATOM     25  C   UNL     1      -2.314 -10.568  12.581  0.00  0.00    +0.027 A 
ATOM     26  C   UNL     1      -4.705 -10.303  12.796  0.00  0.00    +0.027 A 
ATOM     28  C   UNL     1      -2.370 -10.031  11.294  0.00  0.00    +0.047 A 
ATOM     29  C   UNL     1      -4.761  -9.766  11.510  0.00  0.00    +0.047 A 
ATOM     30  C   UNL     1      -3.594  -9.630  10.759  0.00  0.00    +0.120 A 
BRANCH  30   6
ATOM      6  O   UNL     1      -3.650  -9.107   9.504  0.00  0.00    -0.495 OA
ATOM     36  C   UNL     1      -4.885  -9.235   8.801  0.00  0.00    +0.277 C 
ENDBRANCH  30   6
ENDBRANCH   9  23
BRANCH  21  10
ATOM     10  N   UNL     1     -10.229 -10.502  14.719  0.00  0.00    -0.215 N 
ATOM     38  H   UNL     1     -10.214 -10.896  13.769  0.00  0.00    +0.173 HD
BRANCH  10   1
ATOM      1  S   UNL     1     -11.790 -10.383  15.396  0.00  0.00    +0.047 S 
ATOM      4  O   UNL     1     -12.741 -10.002  14.369  0.00  0.00    -0.155 OA
ATOM      5  O   UNL     1     -12.030 -11.527  16.254  0.00  0.00    -0.155 OA
BRANCH   1  24
ATOM     24  C   UNL     1     -11.553  -8.969  16.443  0.00  0.00    +0.223 C 
BRANCH  24  27
ATOM     27  C   UNL     1     -11.839  -9.391  17.851  0.00  0.00    -0.025 A 
ATOM     31  C   UNL     1     -13.157  -9.496  18.294  0.00  0.00    +0.005 A 
ATOM     32  C   UNL     1     -10.787  -9.679  18.721  0.00  0.00    +0.005 A 
ATOM     33  C   UNL     1     -13.424  -9.889  19.605  0.00  0.00    +0.000 A 
ATOM     34  C   UNL     1     -11.054 -10.072  20.033  0.00  0.00    +0.000 A 
ATOM     35  C   UNL     1     -12.372 -10.177  20.475  0.00  0.00    +0.000 A 
ENDBRANCH  24  27
ENDBRANCH   1  24
ENDBRANCH  10   1
ENDBRANCH  21  10
TORSDOF 6
ENDMDL
