MODEL 1
REMARK VINA RESULT:      -7.4      0.000      0.000
REMARK  Name = 45784201
REMARK  4 active torsions:
REMARK  status: ('A' for Active; 'I' for Inactive)
REMARK    1  A    between atoms: N_3  and  C_9
REMARK    2  A    between atoms: C_5  and  C_10
REMARK    3  A    between atoms: C_9  and  C_11
REMARK    4  A    between atoms: C_19  and  C_25
REMARK                            x       y       z     vdW  Elec       q    Type
REMARK                         _______ _______ _______ _____ _____    ______ ____
ROOT
ATOM      3  N   UNL     1      11.677   7.956  18.486  0.00  0.00    -0.294 NA
ATOM      5  C   UNL     1      13.284   6.887  19.819  0.00  0.00    +0.090 C 
ATOM      6  C   UNL     1      12.413   7.801  20.697  0.00  0.00    +0.029 C 
ATOM      7  C   UNL     1      13.006   7.348  18.382  0.00  0.00    +0.097 C 
ATOM      8  C   UNL     1      11.717   8.740  19.721  0.00  0.00    +0.085 C 
ENDROOT
BRANCH   5  10
ATOM      1  O   UNL     1      15.557   6.138  19.358  0.00  0.00    -0.439 OA
ATOM      4  N   UNL     1      15.365   7.522  21.143  0.00  0.00    -0.213 NA
ATOM     10  C   UNL     1      14.755   6.889  20.164  0.00  0.00    +0.201 A 
ATOM     12  C   UNL     1      16.682   7.166  20.979  0.00  0.00    +0.110 A 
ATOM     13  C   UNL     1      16.804   6.318  19.888  0.00  0.00    +0.155 A 
ATOM     17  C   UNL     1      17.833   7.510  21.702  0.00  0.00    +0.035 A 
ATOM     18  C   UNL     1      17.999   5.770  19.440  0.00  0.00    +0.049 A 
ATOM     19  C   UNL     1      19.060   6.975  21.280  0.00  0.00    -0.048 A 
ATOM     20  C   UNL     1      19.138   6.123  20.172  0.00  0.00    +0.007 A 
ATOM     25  C   UNL     1      20.304   7.323  22.029  0.00  0.00    +0.044 C 
ENDBRANCH   5  10
BRANCH   3   9
ATOM      9  C   UNL     1      11.344   8.766  17.325  0.00  0.00    +0.158 C 
BRANCH   9  11
ATOM      2  O   UNL     1      13.075  10.465  17.515  0.00  0.00    -0.458 OA
ATOM     11  C   UNL     1      12.555   9.463  16.761  0.00  0.00    +0.120 A 
ATOM     14  C   UNL     1      13.276   9.299  15.601  0.00  0.00    +0.054 A 
ATOM     15  C   UNL     1      14.316  10.266  15.637  0.00  0.00    +0.020 A 
ATOM     16  C   UNL     1      14.149  10.956  16.833  0.00  0.00    +0.135 A 
ATOM     21  C   UNL     1      15.378  10.633  14.792  0.00  0.00    +0.011 A 
ATOM     22  C   UNL     1      14.972  11.999  17.255  0.00  0.00    +0.047 A 
ATOM     23  C   UNL     1      16.224  11.678  15.191  0.00  0.00    +0.001 A 
ATOM     24  C   UNL     1      16.022  12.347  16.400  0.00  0.00    +0.004 A 
ENDBRANCH   9  11
ENDBRANCH   3   9
TORSDOF 3
ENDMDL
MODEL 2
REMARK VINA RESULT:      -7.2     15.934     18.684
REMARK  Name = 45784201
REMARK  4 active torsions:
REMARK  status: ('A' for Active; 'I' for Inactive)
REMARK    1  A    between atoms: N_3  and  C_9
REMARK    2  A    between atoms: C_5  and  C_10
REMARK    3  A    between atoms: C_9  and  C_11
REMARK    4  A    between atoms: C_19  and  C_25
REMARK                            x       y       z     vdW  Elec       q    Type
REMARK                         _______ _______ _______ _____ _____    ______ ____
ROOT
ATOM      3  N   UNL     1      11.521   4.781   0.814  0.00  0.00    -0.294 NA
ATOM      5  C   UNL     1      10.317   5.769   2.567  0.00  0.00    +0.090 C 
ATOM      6  C   UNL     1      11.472   6.695   2.151  0.00  0.00    +0.029 C 
ATOM      7  C   UNL     1      10.662   4.411   1.941  0.00  0.00    +0.097 C 
ATOM      8  C   UNL     1      12.415   5.812   1.342  0.00  0.00    +0.085 C 
ENDROOT
BRANCH   5  10
ATOM      1  O   UNL     1       9.526   6.793   4.633  0.00  0.00    -0.439 OA
ATOM      4  N   UNL     1      10.326   4.685   4.871  0.00  0.00    -0.213 NA
ATOM     10  C   UNL     1      10.075   5.686   4.056  0.00  0.00    +0.201 A 
ATOM     12  C   UNL     1       9.911   5.159   6.092  0.00  0.00    +0.110 A 
ATOM     13  C   UNL     1       9.421   6.449   5.951  0.00  0.00    +0.155 A 
ATOM     17  C   UNL     1       9.912   4.570   7.365  0.00  0.00    +0.035 A 
ATOM     18  C   UNL     1       8.919   7.224   6.989  0.00  0.00    +0.049 A 
ATOM     19  C   UNL     1       9.413   5.322   8.439  0.00  0.00    -0.048 A 
ATOM     20  C   UNL     1       8.927   6.621   8.252  0.00  0.00    +0.007 A 
ATOM     25  C   UNL     1       9.401   4.723   9.807  0.00  0.00    +0.044 C 
ENDBRANCH   5  10
BRANCH   3   9
ATOM      9  C   UNL     1      12.248   3.643   0.272  0.00  0.00    +0.158 C 
BRANCH   9  11
ATOM      2  O   UNL     1      10.712   3.277  -1.579  0.00  0.00    -0.458 OA
ATOM     11  C   UNL     1      12.002   3.471  -1.204  0.00  0.00    +0.120 A 
ATOM     14  C   UNL     1      12.834   3.466  -2.299  0.00  0.00    +0.054 A 
ATOM     15  C   UNL     1      12.004   3.255  -3.432  0.00  0.00    +0.020 A 
ATOM     16  C   UNL     1      10.709   3.145  -2.936  0.00  0.00    +0.135 A 
ATOM     21  C   UNL     1      12.204   3.145  -4.819  0.00  0.00    +0.011 A 
ATOM     22  C   UNL     1       9.584   2.931  -3.730  0.00  0.00    +0.047 A 
ATOM     23  C   UNL     1      11.090   2.930  -5.643  0.00  0.00    +0.001 A 
ATOM     24  C   UNL     1       9.805   2.825  -5.106  0.00  0.00    +0.004 A 
ENDBRANCH   9  11
ENDBRANCH   3   9
TORSDOF 3
ENDMDL
MODEL 3
REMARK VINA RESULT:      -7.2     26.211     28.538
REMARK  Name = 45784201
REMARK  4 active torsions:
REMARK  status: ('A' for Active; 'I' for Inactive)
REMARK    1  A    between atoms: N_3  and  C_9
REMARK    2  A    between atoms: C_5  and  C_10
REMARK    3  A    between atoms: C_9  and  C_11
REMARK    4  A    between atoms: C_19  and  C_25
REMARK                            x       y       z     vdW  Elec       q    Type
REMARK                         _______ _______ _______ _____ _____    ______ ____
ROOT
ATOM      3  N   UNL     1      -1.983 -10.885  13.910  0.00  0.00    -0.294 NA
ATOM      5  C   UNL     1      -3.278 -10.276  15.768  0.00  0.00    +0.090 C 
ATOM      6  C   UNL     1      -1.881 -10.717  16.236  0.00  0.00    +0.029 C 
ATOM      7  C   UNL     1      -3.384 -10.790  14.326  0.00  0.00    +0.097 C 
ATOM      8  C   UNL     1      -1.288 -11.474  15.055  0.00  0.00    +0.085 C 
ENDROOT
BRANCH   5  10
ATOM      1  O   UNL     1      -5.457  -9.870  16.782  0.00  0.00    -0.439 OA
ATOM      4  N   UNL     1      -4.538 -11.878  17.294  0.00  0.00    -0.213 NA
ATOM     10  C   UNL     1      -4.418 -10.741  16.644  0.00  0.00    +0.201 A 
ATOM     12  C   UNL     1      -5.757 -11.759  17.917  0.00  0.00    +0.110 A 
ATOM     13  C   UNL     1      -6.322 -10.531  17.606  0.00  0.00    +0.155 A 
ATOM     17  C   UNL     1      -6.459 -12.634  18.758  0.00  0.00    +0.035 A 
ATOM     18  C   UNL     1      -7.555 -10.086  18.069  0.00  0.00    +0.049 A 
ATOM     19  C   UNL     1      -7.707 -12.220  19.246  0.00  0.00    -0.048 A 
ATOM     20  C   UNL     1      -8.241 -10.972  18.907  0.00  0.00    +0.007 A 
ATOM     25  C   UNL     1      -8.479 -13.130  20.144  0.00  0.00    +0.044 C 
ENDBRANCH   5  10
BRANCH   3   9
ATOM      9  C   UNL     1      -1.816 -11.670  12.697  0.00  0.00    +0.158 C 
BRANCH   9  11
ATOM      2  O   UNL     1      -3.388 -11.996  10.868  0.00  0.00    -0.458 OA
ATOM     11  C   UNL     1      -2.616 -11.110  11.550  0.00  0.00    +0.120 A 
ATOM     14  C   UNL     1      -2.740  -9.846  11.022  0.00  0.00    +0.054 A 
ATOM     15  C   UNL     1      -3.651  -9.954   9.937  0.00  0.00    +0.020 A 
ATOM     16  C   UNL     1      -4.020 -11.294   9.885  0.00  0.00    +0.135 A 
ATOM     21  C   UNL     1      -4.204  -9.067   8.996  0.00  0.00    +0.011 A 
ATOM     22  C   UNL     1      -4.910 -11.824   8.952  0.00  0.00    +0.047 A 
ATOM     23  C   UNL     1      -5.102  -9.571   8.045  0.00  0.00    +0.001 A 
ATOM     24  C   UNL     1      -5.447 -10.925   8.026  0.00  0.00    +0.004 A 
ENDBRANCH   9  11
ENDBRANCH   3   9
TORSDOF 3
ENDMDL
MODEL 4
REMARK VINA RESULT:      -7.1      3.920      6.440
REMARK  Name = 45784201
REMARK  4 active torsions:
REMARK  status: ('A' for Active; 'I' for Inactive)
REMARK    1  A    between atoms: N_3  and  C_9
REMARK    2  A    between atoms: C_5  and  C_10
REMARK    3  A    between atoms: C_9  and  C_11
REMARK    4  A    between atoms: C_19  and  C_25
REMARK                            x       y       z     vdW  Elec       q    Type
REMARK                         _______ _______ _______ _____ _____    ______ ____
ROOT
ATOM      3  N   UNL     1      12.870   7.224  21.007  0.00  0.00    -0.294 NA
ATOM      5  C   UNL     1      11.553   8.608  22.367  0.00  0.00    +0.090 C 
ATOM      6  C   UNL     1      10.693   8.039  21.226  0.00  0.00    +0.029 C 
ATOM      7  C   UNL     1      13.001   8.358  21.924  0.00  0.00    +0.097 C 
ATOM      8  C   UNL     1      11.692   7.529  20.195  0.00  0.00    +0.085 C 
ENDROOT
BRANCH   5  10
ATOM      1  O   UNL     1      11.336  10.931  21.663  0.00  0.00    -0.439 OA
ATOM      4  N   UNL     1      11.003  10.582  23.878  0.00  0.00    -0.213 NA
ATOM     10  C   UNL     1      11.282  10.055  22.706  0.00  0.00    +0.201 A 
ATOM     12  C   UNL     1      10.856  11.920  23.597  0.00  0.00    +0.110 A 
ATOM     13  C   UNL     1      11.059  12.137  22.242  0.00  0.00    +0.155 A 
ATOM     17  C   UNL     1      10.554  13.013  24.421  0.00  0.00    +0.035 A 
ATOM     18  C   UNL     1      10.986  13.377  21.619  0.00  0.00    +0.049 A 
ATOM     19  C   UNL     1      10.471  14.282  23.828  0.00  0.00    -0.048 A 
ATOM     20  C   UNL     1      10.683  14.456  22.455  0.00  0.00    +0.007 A 
ATOM     25  C   UNL     1      10.151  15.467  24.679  0.00  0.00    +0.044 C 
ENDBRANCH   5  10
BRANCH   3   9
ATOM      9  C   UNL     1      14.063   7.022  20.199  0.00  0.00    +0.158 C 
BRANCH   9  11
ATOM      2  O   UNL     1      13.993   7.859  17.916  0.00  0.00    -0.458 OA
ATOM     11  C   UNL     1      14.270   8.143  19.215  0.00  0.00    +0.120 A 
ATOM     14  C   UNL     1      14.698   9.443  19.350  0.00  0.00    +0.054 A 
ATOM     15  C   UNL     1      14.685  10.006  18.046  0.00  0.00    +0.020 A 
ATOM     16  C   UNL     1      14.245   8.992  17.201  0.00  0.00    +0.135 A 
ATOM     21  C   UNL     1      14.997  11.258  17.488  0.00  0.00    +0.011 A 
ATOM     22  C   UNL     1      14.089   9.136  15.824  0.00  0.00    +0.047 A 
ATOM     23  C   UNL     1      14.850  11.432  16.104  0.00  0.00    +0.001 A 
ATOM     24  C   UNL     1      14.405  10.389  15.290  0.00  0.00    +0.004 A 
ENDBRANCH   9  11
ENDBRANCH   3   9
TORSDOF 3
ENDMDL
MODEL 5
REMARK VINA RESULT:      -7.1     28.959     31.960
REMARK  Name = 45784201
REMARK  4 active torsions:
REMARK  status: ('A' for Active; 'I' for Inactive)
REMARK    1  A    between atoms: N_3  and  C_9
REMARK    2  A    between atoms: C_5  and  C_10
REMARK    3  A    between atoms: C_9  and  C_11
REMARK    4  A    between atoms: C_19  and  C_25
REMARK                            x       y       z     vdW  Elec       q    Type
REMARK                         _______ _______ _______ _____ _____    ______ ____
ROOT
ATOM      3  N   UNL     1     -17.124   3.771  24.993  0.00  0.00    -0.294 NA
ATOM      5  C   UNL     1     -16.508   2.117  26.538  0.00  0.00    +0.090 C 
ATOM      6  C   UNL     1     -18.021   2.037  26.274  0.00  0.00    +0.029 C 
ATOM      7  C   UNL     1     -16.091   3.490  25.992  0.00  0.00    +0.097 C 
ATOM      8  C   UNL     1     -18.381   3.368  25.625  0.00  0.00    +0.085 C 
ENDROOT
BRANCH   5  10
ATOM      1  O   UNL     1     -15.913   0.613  28.361  0.00  0.00    -0.439 OA
ATOM      4  N   UNL     1     -15.910   2.812  28.913  0.00  0.00    -0.213 NA
ATOM     10  C   UNL     1     -16.103   1.908  27.978  0.00  0.00    +0.201 A 
ATOM     12  C   UNL     1     -15.562   2.063  30.011  0.00  0.00    +0.110 A 
ATOM     13  C   UNL     1     -15.563   0.717  29.678  0.00  0.00    +0.155 A 
ATOM     17  C   UNL     1     -15.232   2.436  31.321  0.00  0.00    +0.035 A 
ATOM     18  C   UNL     1     -15.256  -0.317  30.554  0.00  0.00    +0.049 A 
ATOM     19  C   UNL     1     -14.915   1.420  32.236  0.00  0.00    -0.048 A 
ATOM     20  C   UNL     1     -14.928   0.073  31.857  0.00  0.00    +0.007 A 
ATOM     25  C   UNL     1     -14.559   1.785  33.640  0.00  0.00    +0.044 C 
ENDBRANCH   5  10
BRANCH   3   9
ATOM      9  C   UNL     1     -17.134   5.166  24.582  0.00  0.00    +0.158 C 
BRANCH   9  11
ATOM      2  O   UNL     1     -15.795   6.817  23.398  0.00  0.00    -0.458 OA
ATOM     11  C   UNL     1     -15.945   5.507  23.723  0.00  0.00    +0.120 A 
ATOM     14  C   UNL     1     -14.937   4.750  23.172  0.00  0.00    +0.054 A 
ATOM     15  C   UNL     1     -14.105   5.651  22.456  0.00  0.00    +0.020 A 
ATOM     16  C   UNL     1     -14.675   6.908  22.626  0.00  0.00    +0.135 A 
ATOM     21  C   UNL     1     -12.934   5.542  21.685  0.00  0.00    +0.011 A 
ATOM     22  C   UNL     1     -14.158   8.081  22.078  0.00  0.00    +0.047 A 
ATOM     23  C   UNL     1     -12.392   6.705  21.120  0.00  0.00    +0.001 A 
ATOM     24  C   UNL     1     -12.995   7.950  21.315  0.00  0.00    +0.004 A 
ENDBRANCH   9  11
ENDBRANCH   3   9
TORSDOF 3
ENDMDL
MODEL 6
REMARK VINA RESULT:      -6.9     26.803     29.463
REMARK  Name = 45784201
REMARK  4 active torsions:
REMARK  status: ('A' for Active; 'I' for Inactive)
REMARK    1  A    between atoms: N_3  and  C_9
REMARK    2  A    between atoms: C_5  and  C_10
REMARK    3  A    between atoms: C_9  and  C_11
REMARK    4  A    between atoms: C_19  and  C_25
REMARK                            x       y       z     vdW  Elec       q    Type
REMARK                         _______ _______ _______ _____ _____    ______ ____
ROOT
ATOM      3  N   UNL     1      -4.593 -11.623  16.518  0.00  0.00    -0.294 NA
ATOM      5  C   UNL     1      -6.059 -10.477  17.947  0.00  0.00    +0.090 C 
ATOM      6  C   UNL     1      -5.172 -11.426  18.772  0.00  0.00    +0.029 C 
ATOM      7  C   UNL     1      -5.897 -10.957  16.498  0.00  0.00    +0.097 C 
ATOM      8  C   UNL     1      -4.585 -12.400  17.758  0.00  0.00    +0.085 C 
ENDROOT
BRANCH   5  10
ATOM      1  O   UNL     1      -8.347  -9.732  17.563  0.00  0.00    -0.439 OA
ATOM      4  N   UNL     1      -8.051 -10.926  19.468  0.00  0.00    -0.213 NA
ATOM     10  C   UNL     1      -7.502 -10.412  18.389  0.00  0.00    +0.201 A 
ATOM     12  C   UNL     1      -9.371 -10.560  19.356  0.00  0.00    +0.110 A 
ATOM     13  C   UNL     1      -9.556  -9.829  18.192  0.00  0.00    +0.155 A 
ATOM     17  C   UNL     1     -10.474 -10.801  20.187  0.00  0.00    +0.035 A 
ATOM     18  C   UNL     1     -10.772  -9.305  17.770  0.00  0.00    +0.049 A 
ATOM     19  C   UNL     1     -11.719 -10.288  19.795  0.00  0.00    -0.048 A 
ATOM     20  C   UNL     1     -11.862  -9.555  18.611  0.00  0.00    +0.007 A 
ATOM     25  C   UNL     1     -12.914 -10.528  20.659  0.00  0.00    +0.044 C 
ENDBRANCH   5  10
BRANCH   3   9
ATOM      9  C   UNL     1      -4.375 -12.452  15.343  0.00  0.00    +0.158 C 
BRANCH   9  11
ATOM      2  O   UNL     1      -4.647 -11.216  13.266  0.00  0.00    -0.458 OA
ATOM     11  C   UNL     1      -3.777 -11.668  14.205  0.00  0.00    +0.120 A 
ATOM     14  C   UNL     1      -2.489 -11.295  13.897  0.00  0.00    +0.054 A 
ATOM     15  C   UNL     1      -2.565 -10.561  12.683  0.00  0.00    +0.020 A 
ATOM     16  C   UNL     1      -3.912 -10.541  12.337  0.00  0.00    +0.135 A 
ATOM     21  C   UNL     1      -1.645  -9.913  11.840  0.00  0.00    +0.011 A 
ATOM     22  C   UNL     1      -4.417  -9.914  11.199  0.00  0.00    +0.047 A 
ATOM     23  C   UNL     1      -2.124  -9.274  10.688  0.00  0.00    +0.001 A 
ATOM     24  C   UNL     1      -3.485  -9.276  10.375  0.00  0.00    +0.004 A 
ENDBRANCH   9  11
ENDBRANCH   3   9
TORSDOF 3
ENDMDL
MODEL 7
REMARK VINA RESULT:      -6.9     25.220     28.309
REMARK  Name = 45784201
REMARK  4 active torsions:
REMARK  status: ('A' for Active; 'I' for Inactive)
REMARK    1  A    between atoms: N_3  and  C_9
REMARK    2  A    between atoms: C_5  and  C_10
REMARK    3  A    between atoms: C_9  and  C_11
REMARK    4  A    between atoms: C_19  and  C_25
REMARK                            x       y       z     vdW  Elec       q    Type
REMARK                         _______ _______ _______ _____ _____    ______ ____
ROOT
ATOM      3  N   UNL     1       1.168   4.101  -6.353  0.00  0.00    -0.294 NA
ATOM      5  C   UNL     1       2.361   5.192  -4.653  0.00  0.00    +0.090 C 
ATOM      6  C   UNL     1       1.490   6.211  -5.406  0.00  0.00    +0.029 C 
ATOM      7  C   UNL     1       2.397   3.960  -5.569  0.00  0.00    +0.097 C 
ATOM      8  C   UNL     1       1.107   5.519  -6.709  0.00  0.00    +0.085 C 
ENDROOT
BRANCH   5  10
ATOM      1  O   UNL     1       4.774   5.164  -4.992  0.00  0.00    -0.439 OA
ATOM      4  N   UNL     1       4.069   6.557  -3.349  0.00  0.00    -0.213 NA
ATOM     10  C   UNL     1       3.738   5.687  -4.278  0.00  0.00    +0.201 A 
ATOM     12  C   UNL     1       5.438   6.623  -3.450  0.00  0.00    +0.110 A 
ATOM     13  C   UNL     1       5.873   5.771  -4.455  0.00  0.00    +0.155 A 
ATOM     17  C   UNL     1       6.386   7.370  -2.737  0.00  0.00    +0.035 A 
ATOM     18  C   UNL     1       7.201   5.594  -4.822  0.00  0.00    +0.049 A 
ATOM     19  C   UNL     1       7.738   7.218  -3.080  0.00  0.00    -0.048 A 
ATOM     20  C   UNL     1       8.134   6.347  -4.102  0.00  0.00    +0.007 A 
ATOM     25  C   UNL     1       8.772   8.001  -2.339  0.00  0.00    +0.044 C 
ENDBRANCH   5  10
BRANCH   3   9
ATOM      9  C   UNL     1       1.153   3.236  -7.522  0.00  0.00    +0.158 C 
BRANCH   9  11
ATOM      2  O   UNL     1      -0.899   2.027  -8.017  0.00  0.00    -0.458 OA
ATOM     11  C   UNL     1       0.266   2.035  -7.321  0.00  0.00    +0.120 A 
ATOM     14  C   UNL     1       0.384   0.900  -6.553  0.00  0.00    +0.054 A 
ATOM     15  C   UNL     1      -0.788   0.134  -6.789  0.00  0.00    +0.020 A 
ATOM     16  C   UNL     1      -1.544   0.870  -7.696  0.00  0.00    +0.135 A 
ATOM     21  C   UNL     1      -1.293  -1.098  -6.337  0.00  0.00    +0.011 A 
ATOM     22  C   UNL     1      -2.782   0.464  -8.192  0.00  0.00    +0.047 A 
ATOM     23  C   UNL     1      -2.535  -1.533  -6.819  0.00  0.00    +0.001 A 
ATOM     24  C   UNL     1      -3.264  -0.764  -7.729  0.00  0.00    +0.004 A 
ENDBRANCH   9  11
ENDBRANCH   3   9
TORSDOF 3
ENDMDL
MODEL 8
REMARK VINA RESULT:      -6.8     28.331     31.288
REMARK  Name = 45784201
REMARK  4 active torsions:
REMARK  status: ('A' for Active; 'I' for Inactive)
REMARK    1  A    between atoms: N_3  and  C_9
REMARK    2  A    between atoms: C_5  and  C_10
REMARK    3  A    between atoms: C_9  and  C_11
REMARK    4  A    between atoms: C_19  and  C_25
REMARK                            x       y       z     vdW  Elec       q    Type
REMARK                         _______ _______ _______ _____ _____    ______ ____
ROOT
ATOM      3  N   UNL     1     -10.225  -8.550  16.097  0.00  0.00    -0.294 NA
ATOM      5  C   UNL     1     -11.687  -6.732  15.848  0.00  0.00    +0.090 C 
ATOM      6  C   UNL     1     -12.475  -7.967  16.317  0.00  0.00    +0.029 C 
ATOM      7  C   UNL     1     -10.345  -7.293  15.355  0.00  0.00    +0.097 C 
ATOM      8  C   UNL     1     -11.558  -9.151  16.040  0.00  0.00    +0.085 C 
ENDROOT
BRANCH   5  10
ATOM      1  O   UNL     1     -11.580  -5.238  13.926  0.00  0.00    -0.439 OA
ATOM      4  N   UNL     1     -13.679  -5.692  14.651  0.00  0.00    -0.213 NA
ATOM     10  C   UNL     1     -12.388  -5.886  14.811  0.00  0.00    +0.201 A 
ATOM     12  C   UNL     1     -13.741  -4.845  13.571  0.00  0.00    +0.110 A 
ATOM     13  C   UNL     1     -12.458  -4.564  13.124  0.00  0.00    +0.155 A 
ATOM     17  C   UNL     1     -14.831  -4.268  12.906  0.00  0.00    +0.035 A 
ATOM     18  C   UNL     1     -12.156  -3.740  12.047  0.00  0.00    +0.049 A 
ATOM     19  C   UNL     1     -14.567  -3.429  11.813  0.00  0.00    -0.048 A 
ATOM     20  C   UNL     1     -13.256  -3.172  11.395  0.00  0.00    +0.007 A 
ATOM     25  C   UNL     1     -15.708  -2.798  11.083  0.00  0.00    +0.044 C 
ENDBRANCH   5  10
BRANCH   3   9
ATOM      9  C   UNL     1      -9.199  -9.423  15.547  0.00  0.00    +0.158 C 
BRANCH   9  11
ATOM      2  O   UNL     1      -6.965 -10.102  16.228  0.00  0.00    -0.458 OA
ATOM     11  C   UNL     1      -8.255  -9.919  16.610  0.00  0.00    +0.120 A 
ATOM     14  C   UNL     1      -8.421 -10.241  17.937  0.00  0.00    +0.054 A 
ATOM     15  C   UNL     1      -7.148 -10.652  18.412  0.00  0.00    +0.020 A 
ATOM     16  C   UNL     1      -6.287 -10.548  17.324  0.00  0.00    +0.135 A 
ATOM     21  C   UNL     1      -6.628 -11.099  19.640  0.00  0.00    +0.011 A 
ATOM     22  C   UNL     1      -4.930 -10.861  17.369  0.00  0.00    +0.047 A 
ATOM     23  C   UNL     1      -5.266 -11.421  19.715  0.00  0.00    +0.001 A 
ATOM     24  C   UNL     1      -4.434 -11.304  18.599  0.00  0.00    +0.004 A 
ENDBRANCH   9  11
ENDBRANCH   3   9
TORSDOF 3
ENDMDL
MODEL 9
REMARK VINA RESULT:      -6.8      3.572      9.012
REMARK  Name = 45784201
REMARK  4 active torsions:
REMARK  status: ('A' for Active; 'I' for Inactive)
REMARK    1  A    between atoms: N_3  and  C_9
REMARK    2  A    between atoms: C_5  and  C_10
REMARK    3  A    between atoms: C_9  and  C_11
REMARK    4  A    between atoms: C_19  and  C_25
REMARK                            x       y       z     vdW  Elec       q    Type
REMARK                         _______ _______ _______ _____ _____    ______ ____
ROOT
ATOM      3  N   UNL     1      19.879   7.135  21.896  0.00  0.00    -0.294 NA
ATOM      5  C   UNL     1      17.931   7.850  20.803  0.00  0.00    +0.090 C 
ATOM      6  C   UNL     1      18.567   9.035  21.549  0.00  0.00    +0.029 C 
ATOM      7  C   UNL     1      18.606   6.607  21.401  0.00  0.00    +0.097 C 
ATOM      8  C   UNL     1      19.537   8.404  22.539  0.00  0.00    +0.085 C 
ENDROOT
BRANCH   5  10
ATOM      1  O   UNL     1      15.797   7.266  19.781  0.00  0.00    -0.439 OA
ATOM      4  N   UNL     1      15.633   8.182  21.848  0.00  0.00    -0.213 NA
ATOM     10  C   UNL     1      16.423   7.791  20.872  0.00  0.00    +0.201 A 
ATOM     12  C   UNL     1      14.376   7.895  21.373  0.00  0.00    +0.110 A 
ATOM     13  C   UNL     1      14.472   7.335  20.108  0.00  0.00    +0.155 A 
ATOM     17  C   UNL     1      13.107   8.075  21.940  0.00  0.00    +0.035 A 
ATOM     18  C   UNL     1      13.390   6.926  19.338  0.00  0.00    +0.049 A 
ATOM     19  C   UNL     1      11.988   7.674  21.193  0.00  0.00    -0.048 A 
ATOM     20  C   UNL     1      12.130   7.112  19.919  0.00  0.00    +0.007 A 
ATOM     25  C   UNL     1      10.622   7.852  21.770  0.00  0.00    +0.044 C 
ENDBRANCH   5  10
BRANCH   3   9
ATOM      9  C   UNL     1      20.545   6.215  22.805  0.00  0.00    +0.158 C 
BRANCH   9  11
ATOM      2  O   UNL     1      21.778   4.132  22.560  0.00  0.00    -0.458 OA
ATOM     11  C   UNL     1      21.600   5.399  22.105  0.00  0.00    +0.120 A 
ATOM     14  C   UNL     1      22.458   5.668  21.064  0.00  0.00    +0.054 A 
ATOM     15  C   UNL     1      23.220   4.488  20.858  0.00  0.00    +0.020 A 
ATOM     16  C   UNL     1      22.764   3.574  21.802  0.00  0.00    +0.135 A 
ATOM     21  C   UNL     1      24.244   4.093  19.979  0.00  0.00    +0.011 A 
ATOM     22  C   UNL     1      23.259   2.278  21.937  0.00  0.00    +0.047 A 
ATOM     23  C   UNL     1      24.761   2.794  20.091  0.00  0.00    +0.001 A 
ATOM     24  C   UNL     1      24.276   1.906  21.054  0.00  0.00    +0.004 A 
ENDBRANCH   9  11
ENDBRANCH   3   9
TORSDOF 3
ENDMDL
MODEL 10
REMARK VINA RESULT:      -6.7     24.857     28.200
REMARK  Name = 45784201
REMARK  4 active torsions:
REMARK  status: ('A' for Active; 'I' for Inactive)
REMARK    1  A    between atoms: N_3  and  C_9
REMARK    2  A    between atoms: C_5  and  C_10
REMARK    3  A    between atoms: C_9  and  C_11
REMARK    4  A    between atoms: C_19  and  C_25
REMARK                            x       y       z     vdW  Elec       q    Type
REMARK                         _______ _______ _______ _____ _____    ______ ____
ROOT
ATOM      3  N   UNL     1       3.436   4.684  -5.369  0.00  0.00    -0.294 NA
ATOM      5  C   UNL     1       2.565   2.604  -6.016  0.00  0.00    +0.090 C 
ATOM      6  C   UNL     1       3.290   3.252  -7.208  0.00  0.00    +0.029 C 
ATOM      7  C   UNL     1       2.366   3.750  -5.013  0.00  0.00    +0.097 C 
ATOM      8  C   UNL     1       3.434   4.722  -6.832  0.00  0.00    +0.085 C 
ENDROOT
BRANCH   5  10
ATOM      1  O   UNL     1       1.091   0.678  -5.780  0.00  0.00    -0.439 OA
ATOM      4  N   UNL     1       0.311   2.299  -7.160  0.00  0.00    -0.213 NA
ATOM     10  C   UNL     1       1.277   1.896  -6.364  0.00  0.00    +0.201 A 
ATOM     12  C   UNL     1      -0.597   1.269  -7.103  0.00  0.00    +0.110 A 
ATOM     13  C   UNL     1      -0.123   0.275  -6.260  0.00  0.00    +0.155 A 
ATOM     17  C   UNL     1      -1.839   1.092  -7.729  0.00  0.00    +0.035 A 
ATOM     18  C   UNL     1      -0.793  -0.909  -5.976  0.00  0.00    +0.049 A 
ATOM     19  C   UNL     1      -2.545  -0.092  -7.467  0.00  0.00    -0.048 A 
ATOM     20  C   UNL     1      -2.030  -1.069  -6.608  0.00  0.00    +0.007 A 
ATOM     25  C   UNL     1      -3.872  -0.310  -8.118  0.00  0.00    +0.044 C 
ENDBRANCH   5  10
BRANCH   3   9
ATOM      9  C   UNL     1       3.242   6.001  -4.781  0.00  0.00    +0.158 C 
BRANCH   9  11
ATOM      2  O   UNL     1       5.606   5.750  -4.266  0.00  0.00    -0.458 OA
ATOM     11  C   UNL     1       4.485   6.496  -4.090  0.00  0.00    +0.120 A 
ATOM     14  C   UNL     1       4.742   7.582  -3.285  0.00  0.00    +0.054 A 
ATOM     15  C   UNL     1       6.117   7.506  -2.938  0.00  0.00    +0.020 A 
ATOM     16  C   UNL     1       6.603   6.363  -3.566  0.00  0.00    +0.135 A 
ATOM     21  C   UNL     1       7.003   8.276  -2.164  0.00  0.00    +0.011 A 
ATOM     22  C   UNL     1       7.923   5.925  -3.478  0.00  0.00    +0.047 A 
ATOM     23  C   UNL     1       8.338   7.859  -2.058  0.00  0.00    +0.001 A 
ATOM     24  C   UNL     1       8.787   6.705  -2.704  0.00  0.00    +0.004 A 
ENDBRANCH   9  11
ENDBRANCH   3   9
TORSDOF 3
ENDMDL
