MODEL 1
REMARK VINA RESULT:      -8.3      0.000      0.000
REMARK  Name = 26743306
REMARK  10 active torsions:
REMARK  status: ('A' for Active; 'I' for Inactive)
REMARK    1  A    between atoms: N_5  and  C_22
REMARK    2  A    between atoms: C_7  and  C_11
REMARK    3  A    between atoms: C_8  and  C_13
REMARK    4  A    between atoms: C_11  and  C_14
REMARK    5  A    between atoms: C_13  and  C_15
REMARK    6  A    between atoms: C_21  and  C_23
REMARK    7  A    between atoms: C_24  and  C_27
REMARK    8  A    between atoms: C_24  and  C_34
REMARK    9  A    between atoms: C_24  and  C_35
REMARK   10  A    between atoms: C_24  and  C_36
REMARK                            x       y       z     vdW  Elec       q    Type
REMARK                         _______ _______ _______ _____ _____    ______ ____
ROOT
ATOM      3  N   UNL     1      11.293   8.829  23.092  0.00  0.00    -0.316 NA
ATOM      7  C   UNL     1      12.194   7.715  20.512  0.00  0.00    +0.004 C 
ATOM      8  C   UNL     1      13.135   8.497  21.460  0.00  0.00    +0.012 C 
ATOM      9  C   UNL     1      11.043   7.112  21.333  0.00  0.00    +0.019 C 
ATOM     10  C   UNL     1      12.357   9.493  22.339  0.00  0.00    +0.085 C 
ATOM     12  C   UNL     1      10.344   8.150  22.211  0.00  0.00    +0.081 C 
ATOM     38  H   UNL     1      10.795   9.519  23.653  0.00  0.00    +0.122 HD
ENDROOT
BRANCH   7  11
ATOM     11  C   UNL     1      11.653   8.548  19.344  0.00  0.00    +0.100 C 
BRANCH  11  14
ATOM      1  O   UNL     1      12.043   6.954  17.628  0.00  0.00    -0.276 OA
ATOM      4  N   UNL     1      13.105   9.009  17.403  0.00  0.00    -0.298 N 
ATOM      5  N   UNL     1      14.660  10.909  15.871  0.00  0.00    -0.327 N 
ATOM     14  C   UNL     1      12.278   8.089  18.050  0.00  0.00    +0.216 C 
ATOM     16  C   UNL     1      13.750   8.638  16.147  0.00  0.00    +0.126 C 
ATOM     17  C   UNL     1      13.372  10.361  17.899  0.00  0.00    +0.126 C 
ATOM     18  C   UNL     1      13.911   9.835  15.213  0.00  0.00    +0.124 C 
ATOM     19  C   UNL     1      14.664  10.954  17.335  0.00  0.00    +0.124 C 
BRANCH   5  22
ATOM     22  C   UNL     1      15.378  11.839  15.122  0.00  0.00    +0.030 A 
ATOM     25  C   UNL     1      14.814  13.079  14.824  0.00  0.00    +0.023 A 
ATOM     26  C   UNL     1      16.662  11.530  14.673  0.00  0.00    +0.023 A 
ATOM     32  C   UNL     1      15.534  14.011  14.076  0.00  0.00    +0.002 A 
ATOM     33  C   UNL     1      17.382  12.463  13.925  0.00  0.00    +0.002 A 
ATOM     37  C   UNL     1      16.818  13.703  13.627  0.00  0.00    +0.000 A 
ENDBRANCH   5  22
ENDBRANCH  11  14
ENDBRANCH   7  11
BRANCH   8  13
ATOM     13  C   UNL     1      14.273   9.206  20.725  0.00  0.00    +0.064 C 
BRANCH  13  15
ATOM      2  O   UNL     1      16.691   6.790  19.592  0.00  0.00    -0.354 OA
ATOM      6  N   UNL     1      15.491   7.481  19.468  0.00  0.00    -0.083 NA
ATOM     15  C   UNL     1      15.449   8.293  20.528  0.00  0.00    +0.085 A 
ATOM     20  C   UNL     1      16.583   8.160  21.348  0.00  0.00    +0.076 A 
ATOM     21  C   UNL     1      17.331   7.203  20.715  0.00  0.00    +0.167 A 
BRANCH  21  23
ATOM     23  C   UNL     1      18.593   6.575  20.977  0.00  0.00    +0.020 A 
ATOM     27  C   UNL     1      21.048   5.350  21.488  0.00  0.00    -0.042 A 
ATOM     28  C   UNL     1      19.350   6.962  22.084  0.00  0.00    +0.012 A 
ATOM     29  C   UNL     1      19.065   5.575  20.126  0.00  0.00    +0.012 A 
ATOM     30  C   UNL     1      20.576   6.350  22.339  0.00  0.00    +0.005 A 
ATOM     31  C   UNL     1      20.291   4.963  20.381  0.00  0.00    +0.005 A 
BRANCH  27  24
ATOM     24  C   UNL     1      22.360   4.696  21.762  0.00  0.00    -0.013 C 
ATOM     34  C   UNL     1      23.250   4.656  20.481  0.00  0.00    +0.015 C 
ATOM     35  C   UNL     1      22.168   3.226  22.247  0.00  0.00    +0.015 C 
ATOM     36  C   UNL     1      23.238   5.386  22.858  0.00  0.00    +0.015 C 
ENDBRANCH  27  24
ENDBRANCH  21  23
ENDBRANCH  13  15
ENDBRANCH   8  13
TORSDOF 7
ENDMDL
MODEL 2
REMARK VINA RESULT:      -7.6     27.268     31.107
REMARK  Name = 26743306
REMARK  10 active torsions:
REMARK  status: ('A' for Active; 'I' for Inactive)
REMARK    1  A    between atoms: N_5  and  C_22
REMARK    2  A    between atoms: C_7  and  C_11
REMARK    3  A    between atoms: C_8  and  C_13
REMARK    4  A    between atoms: C_11  and  C_14
REMARK    5  A    between atoms: C_13  and  C_15
REMARK    6  A    between atoms: C_21  and  C_23
REMARK    7  A    between atoms: C_24  and  C_27
REMARK    8  A    between atoms: C_24  and  C_34
REMARK    9  A    between atoms: C_24  and  C_35
REMARK   10  A    between atoms: C_24  and  C_36
REMARK                            x       y       z     vdW  Elec       q    Type
REMARK                         _______ _______ _______ _____ _____    ______ ____
ROOT
ATOM      3  N   UNL     1     -13.103 -12.813  18.295  0.00  0.00    -0.316 NA
ATOM      7  C   UNL     1     -11.453 -10.563  17.335  0.00  0.00    +0.004 C 
ATOM      8  C   UNL     1     -11.026 -11.470  18.514  0.00  0.00    +0.012 C 
ATOM      9  C   UNL     1     -12.427 -11.338  16.432  0.00  0.00    +0.019 C 
ATOM     10  C   UNL     1     -12.243 -12.085  19.228  0.00  0.00    +0.085 C 
ATOM     12  C   UNL     1     -13.586 -11.953  17.216  0.00  0.00    +0.081 C 
ATOM     38  H   UNL     1     -13.901 -13.196  18.802  0.00  0.00    +0.122 HD
ENDROOT
BRANCH   7  11
ATOM     11  C   UNL     1     -12.060  -9.223  17.768  0.00  0.00    +0.100 C 
BRANCH  11  14
ATOM      1  O   UNL     1     -10.050  -7.959  17.731  0.00  0.00    -0.276 OA
ATOM      4  N   UNL     1     -11.769  -7.225  16.349  0.00  0.00    -0.298 N 
ATOM      5  N   UNL     1     -12.782  -5.513  14.247  0.00  0.00    -0.327 N 
ATOM     14  C   UNL     1     -11.194  -8.085  17.287  0.00  0.00    +0.216 C 
ATOM     16  C   UNL     1     -10.997  -6.096  15.839  0.00  0.00    +0.126 C 
ATOM     17  C   UNL     1     -13.124  -7.383  15.816  0.00  0.00    +0.126 C 
ATOM     18  C   UNL     1     -11.347  -5.774  14.388  0.00  0.00    +0.124 C 
ATOM     19  C   UNL     1     -13.691  -6.082  15.246  0.00  0.00    +0.124 C 
BRANCH   5  22
ATOM     22  C   UNL     1     -13.262  -4.716  13.211  0.00  0.00    +0.030 A 
ATOM     25  C   UNL     1     -12.401  -4.301  12.194  0.00  0.00    +0.023 A 
ATOM     26  C   UNL     1     -14.603  -4.335  13.187  0.00  0.00    +0.023 A 
ATOM     32  C   UNL     1     -12.882  -3.504  11.155  0.00  0.00    +0.002 A 
ATOM     33  C   UNL     1     -15.085  -3.539  12.147  0.00  0.00    +0.002 A 
ATOM     37  C   UNL     1     -14.224  -3.123  11.131  0.00  0.00    +0.000 A 
ENDBRANCH   5  22
ENDBRANCH  11  14
ENDBRANCH   7  11
BRANCH   8  13
ATOM     13  C   UNL     1     -10.117 -10.761  19.517  0.00  0.00    +0.064 C 
BRANCH  13  15
ATOM      2  O   UNL     1      -6.535 -11.067  19.301  0.00  0.00    -0.354 OA
ATOM      6  N   UNL     1      -7.728 -11.056  20.015  0.00  0.00    -0.083 NA
ATOM     15  C   UNL     1      -8.677 -10.837  19.099  0.00  0.00    +0.085 A 
ATOM     20  C   UNL     1      -8.147 -10.702  17.804  0.00  0.00    +0.076 A 
ATOM     21  C   UNL     1      -6.798 -10.854  17.987  0.00  0.00    +0.167 A 
BRANCH  21  23
ATOM     23  C   UNL     1      -5.656 -10.838  17.120  0.00  0.00    +0.020 A 
ATOM     27  C   UNL     1      -3.432 -10.805  15.434  0.00  0.00    -0.042 A 
ATOM     28  C   UNL     1      -5.792 -10.429  15.793  0.00  0.00    +0.012 A 
ATOM     29  C   UNL     1      -4.407 -11.230  17.604  0.00  0.00    +0.012 A 
ATOM     30  C   UNL     1      -4.681 -10.413  14.950  0.00  0.00    +0.005 A 
ATOM     31  C   UNL     1      -3.296 -11.214  16.761  0.00  0.00    +0.005 A 
BRANCH  27  24
ATOM     24  C   UNL     1      -2.245 -10.787  14.532  0.00  0.00    -0.013 C 
ATOM     34  C   UNL     1      -1.522 -12.170  14.522  0.00  0.00    +0.015 C 
ATOM     35  C   UNL     1      -1.205  -9.716  14.988  0.00  0.00    +0.015 C 
ATOM     36  C   UNL     1      -2.547 -10.464  13.031  0.00  0.00    +0.015 C 
ENDBRANCH  27  24
ENDBRANCH  21  23
ENDBRANCH  13  15
ENDBRANCH   8  13
TORSDOF 7
ENDMDL
MODEL 3
REMARK VINA RESULT:      -7.6     27.354     32.278
REMARK  Name = 26743306
REMARK  10 active torsions:
REMARK  status: ('A' for Active; 'I' for Inactive)
REMARK    1  A    between atoms: N_5  and  C_22
REMARK    2  A    between atoms: C_7  and  C_11
REMARK    3  A    between atoms: C_8  and  C_13
REMARK    4  A    between atoms: C_11  and  C_14
REMARK    5  A    between atoms: C_13  and  C_15
REMARK    6  A    between atoms: C_21  and  C_23
REMARK    7  A    between atoms: C_24  and  C_27
REMARK    8  A    between atoms: C_24  and  C_34
REMARK    9  A    between atoms: C_24  and  C_35
REMARK   10  A    between atoms: C_24  and  C_36
REMARK                            x       y       z     vdW  Elec       q    Type
REMARK                         _______ _______ _______ _____ _____    ______ ____
ROOT
ATOM      3  N   UNL     1     -13.399  -9.842  18.598  0.00  0.00    -0.316 NA
ATOM      7  C   UNL     1     -10.462  -9.769  18.873  0.00  0.00    +0.004 C 
ATOM      8  C   UNL     1     -11.229  -8.892  17.854  0.00  0.00    +0.012 C 
ATOM      9  C   UNL     1     -11.407 -10.139  20.028  0.00  0.00    +0.019 C 
ATOM     10  C   UNL     1     -12.562  -9.538  17.437  0.00  0.00    +0.085 C 
ATOM     12  C   UNL     1     -12.725 -10.737  19.536  0.00  0.00    +0.081 C 
ATOM     38  H   UNL     1     -14.266 -10.276  18.284  0.00  0.00    +0.122 HD
ENDROOT
BRANCH   7  11
ATOM     11  C   UNL     1      -9.830 -11.025  18.262  0.00  0.00    +0.100 C 
BRANCH  11  14
ATOM      1  O   UNL     1      -8.421 -11.689  20.054  0.00  0.00    -0.276 OA
ATOM      4  N   UNL     1      -7.369 -11.034  18.087  0.00  0.00    -0.298 N 
ATOM      5  N   UNL     1      -5.003 -10.757  16.444  0.00  0.00    -0.327 N 
ATOM     14  C   UNL     1      -8.483 -11.284  18.891  0.00  0.00    +0.216 C 
ATOM     16  C   UNL     1      -6.029 -11.255  18.625  0.00  0.00    +0.126 C 
ATOM     17  C   UNL     1      -7.445 -10.563  16.703  0.00  0.00    +0.126 C 
ATOM     18  C   UNL     1      -5.051 -11.720  17.549  0.00  0.00    +0.124 C 
ATOM     19  C   UNL     1      -6.158  -9.882  16.237  0.00  0.00    +0.124 C 
BRANCH   5  22
ATOM     22  C   UNL     1      -3.871 -10.657  15.638  0.00  0.00    +0.030 A 
ATOM     25  C   UNL     1      -2.604 -10.596  16.218  0.00  0.00    +0.023 A 
ATOM     26  C   UNL     1      -4.005 -10.622  14.250  0.00  0.00    +0.023 A 
ATOM     32  C   UNL     1      -1.471 -10.499  15.411  0.00  0.00    +0.002 A 
ATOM     33  C   UNL     1      -2.871 -10.526  13.442  0.00  0.00    +0.002 A 
ATOM     37  C   UNL     1      -1.605 -10.464  14.022  0.00  0.00    +0.000 A 
ENDBRANCH   5  22
ENDBRANCH  11  14
ENDBRANCH   7  11
BRANCH   8  13
ATOM     13  C   UNL     1     -10.396  -8.537  16.622  0.00  0.00    +0.064 C 
BRANCH  13  15
ATOM      2  O   UNL     1     -11.781  -5.451  15.386  0.00  0.00    -0.354 OA
ATOM      6  N   UNL     1     -11.164  -6.216  16.370  0.00  0.00    -0.083 NA
ATOM     15  C   UNL     1     -11.034  -7.432  15.831  0.00  0.00    +0.085 A 
ATOM     20  C   UNL     1     -11.546  -7.494  14.523  0.00  0.00    +0.076 A 
ATOM     21  C   UNL     1     -12.004  -6.223  14.293  0.00  0.00    +0.167 A 
BRANCH  21  23
ATOM     23  C   UNL     1     -12.640  -5.567  13.188  0.00  0.00    +0.020 A 
ATOM     27  C   UNL     1     -13.878  -4.291  11.037  0.00  0.00    -0.042 A 
ATOM     28  C   UNL     1     -12.275  -4.265  12.844  0.00  0.00    +0.012 A 
ATOM     29  C   UNL     1     -13.625  -6.231  12.455  0.00  0.00    +0.012 A 
ATOM     30  C   UNL     1     -12.893  -3.627  11.770  0.00  0.00    +0.005 A 
ATOM     31  C   UNL     1     -14.243  -5.593  11.380  0.00  0.00    +0.005 A 
BRANCH  27  24
ATOM     24  C   UNL     1     -14.539  -3.608   9.887  0.00  0.00    -0.013 C 
ATOM     34  C   UNL     1     -15.580  -4.543   9.198  0.00  0.00    +0.015 C 
ATOM     35  C   UNL     1     -13.497  -3.186   8.805  0.00  0.00    +0.015 C 
ATOM     36  C   UNL     1     -15.323  -2.302  10.244  0.00  0.00    +0.015 C 
ENDBRANCH  27  24
ENDBRANCH  21  23
ENDBRANCH  13  15
ENDBRANCH   8  13
TORSDOF 7
ENDMDL
MODEL 4
REMARK VINA RESULT:      -7.6     28.067     31.055
REMARK  Name = 26743306
REMARK  10 active torsions:
REMARK  status: ('A' for Active; 'I' for Inactive)
REMARK    1  A    between atoms: N_5  and  C_22
REMARK    2  A    between atoms: C_7  and  C_11
REMARK    3  A    between atoms: C_8  and  C_13
REMARK    4  A    between atoms: C_11  and  C_14
REMARK    5  A    between atoms: C_13  and  C_15
REMARK    6  A    between atoms: C_21  and  C_23
REMARK    7  A    between atoms: C_24  and  C_27
REMARK    8  A    between atoms: C_24  and  C_34
REMARK    9  A    between atoms: C_24  and  C_35
REMARK   10  A    between atoms: C_24  and  C_36
REMARK                            x       y       z     vdW  Elec       q    Type
REMARK                         _______ _______ _______ _____ _____    ______ ____
ROOT
ATOM      3  N   UNL     1      -6.177  -8.255   8.812  0.00  0.00    -0.316 NA
ATOM      7  C   UNL     1      -4.152 -10.292   9.488  0.00  0.00    +0.004 C 
ATOM      8  C   UNL     1      -5.032 -10.376   8.217  0.00  0.00    +0.012 C 
ATOM      9  C   UNL     1      -4.050  -8.824   9.931  0.00  0.00    +0.019 C 
ATOM     10  C   UNL     1      -6.373  -9.647   8.405  0.00  0.00    +0.085 C 
ATOM     12  C   UNL     1      -5.418  -8.155  10.057  0.00  0.00    +0.081 C 
ATOM     38  H   UNL     1      -7.086  -7.809   8.936  0.00  0.00    +0.122 HD
ENDROOT
BRANCH   7  11
ATOM     11  C   UNL     1      -4.638 -11.177  10.641  0.00  0.00    +0.100 C 
BRANCH  11  14
ATOM      1  O   UNL     1      -2.377 -11.331  11.349  0.00  0.00    -0.276 OA
ATOM      4  N   UNL     1      -3.996 -11.360  13.017  0.00  0.00    -0.298 N 
ATOM      5  N   UNL     1      -4.773 -11.285  15.804  0.00  0.00    -0.327 N 
ATOM     14  C   UNL     1      -3.561 -11.295  11.692  0.00  0.00    +0.216 C 
ATOM     16  C   UNL     1      -3.015 -11.480  14.091  0.00  0.00    +0.126 C 
ATOM     17  C   UNL     1      -5.402 -11.305  13.421  0.00  0.00    +0.126 C 
ATOM     18  C   UNL     1      -3.472 -10.771  15.364  0.00  0.00    +0.124 C 
ATOM     19  C   UNL     1      -5.645 -11.909  14.806  0.00  0.00    +0.124 C 
BRANCH   5  22
ATOM     22  C   UNL     1      -5.150 -11.211  17.142  0.00  0.00    +0.030 A 
ATOM     25  C   UNL     1      -4.413 -11.890  18.113  0.00  0.00    +0.023 A 
ATOM     26  C   UNL     1      -6.263 -10.456  17.513  0.00  0.00    +0.023 A 
ATOM     32  C   UNL     1      -4.790 -11.814  19.454  0.00  0.00    +0.002 A 
ATOM     33  C   UNL     1      -6.639 -10.379  18.855  0.00  0.00    +0.002 A 
ATOM     37  C   UNL     1      -5.902 -11.059  19.825  0.00  0.00    +0.000 A 
ENDBRANCH   5  22
ENDBRANCH  11  14
ENDBRANCH   7  11
BRANCH   8  13
ATOM     13  C   UNL     1      -5.263 -11.811   7.741  0.00  0.00    +0.064 C 
BRANCH  13  15
ATOM      2  O   UNL     1      -3.620 -12.061   4.547  0.00  0.00    -0.354 OA
ATOM      6  N   UNL     1      -4.579 -11.524   5.398  0.00  0.00    -0.083 NA
ATOM     15  C   UNL     1      -4.390 -12.145   6.567  0.00  0.00    +0.085 A 
ATOM     20  C   UNL     1      -3.336 -13.075   6.513  0.00  0.00    +0.076 A 
ATOM     21  C   UNL     1      -2.887 -12.982   5.222  0.00  0.00    +0.167 A 
BRANCH  21  23
ATOM     23  C   UNL     1      -1.851 -13.626   4.467  0.00  0.00    +0.020 A 
ATOM     27  C   UNL     1       0.165 -14.879   3.001  0.00  0.00    -0.042 A 
ATOM     28  C   UNL     1      -1.862 -13.566   3.074  0.00  0.00    +0.012 A 
ATOM     29  C   UNL     1      -0.832 -14.313   5.128  0.00  0.00    +0.012 A 
ATOM     30  C   UNL     1      -0.854 -14.192   2.341  0.00  0.00    +0.005 A 
ATOM     31  C   UNL     1       0.176 -14.939   4.395  0.00  0.00    +0.005 A 
BRANCH  27  24
ATOM     24  C   UNL     1       1.243 -15.548   2.216  0.00  0.00    -0.013 C 
ATOM     34  C   UNL     1       0.698 -16.100   0.863  0.00  0.00    +0.015 C 
ATOM     35  C   UNL     1       1.852 -16.749   3.004  0.00  0.00    +0.015 C 
ATOM     36  C   UNL     1       2.459 -14.639   1.836  0.00  0.00    +0.015 C 
ENDBRANCH  27  24
ENDBRANCH  21  23
ENDBRANCH  13  15
ENDBRANCH   8  13
TORSDOF 7
ENDMDL
MODEL 5
REMARK VINA RESULT:      -7.5     28.562     30.476
REMARK  Name = 26743306
REMARK  10 active torsions:
REMARK  status: ('A' for Active; 'I' for Inactive)
REMARK    1  A    between atoms: N_5  and  C_22
REMARK    2  A    between atoms: C_7  and  C_11
REMARK    3  A    between atoms: C_8  and  C_13
REMARK    4  A    between atoms: C_11  and  C_14
REMARK    5  A    between atoms: C_13  and  C_15
REMARK    6  A    between atoms: C_21  and  C_23
REMARK    7  A    between atoms: C_24  and  C_27
REMARK    8  A    between atoms: C_24  and  C_34
REMARK    9  A    between atoms: C_24  and  C_35
REMARK   10  A    between atoms: C_24  and  C_36
REMARK                            x       y       z     vdW  Elec       q    Type
REMARK                         _______ _______ _______ _____ _____    ______ ____
ROOT
ATOM      3  N   UNL     1      -3.932 -13.381   8.361  0.00  0.00    -0.316 NA
ATOM      7  C   UNL     1      -4.881 -10.918   7.042  0.00  0.00    +0.004 C 
ATOM      8  C   UNL     1      -4.153 -10.908   8.408  0.00  0.00    +0.012 C 
ATOM      9  C   UNL     1      -4.483 -12.187   6.270  0.00  0.00    +0.019 C 
ATOM     10  C   UNL     1      -4.349 -12.232   9.166  0.00  0.00    +0.085 C 
ATOM     12  C   UNL     1      -4.667 -13.457   7.100  0.00  0.00    +0.081 C 
ATOM     38  H   UNL     1      -4.085 -14.238   8.891  0.00  0.00    +0.122 HD
ENDROOT
BRANCH   7  11
ATOM     11  C   UNL     1      -6.406 -10.800   7.148  0.00  0.00    +0.100 C 
BRANCH  11  14
ATOM      1  O   UNL     1      -6.609  -9.555   5.136  0.00  0.00    -0.276 OA
ATOM      4  N   UNL     1      -7.646  -8.671   7.019  0.00  0.00    -0.298 N 
ATOM      5  N   UNL     1      -9.397  -6.745   8.284  0.00  0.00    -0.327 N 
ATOM     14  C   UNL     1      -6.891  -9.625   6.335  0.00  0.00    +0.216 C 
ATOM     16  C   UNL     1      -8.148  -7.501   6.303  0.00  0.00    +0.126 C 
ATOM     17  C   UNL     1      -7.990  -8.762   8.439  0.00  0.00    +0.126 C 
ATOM     18  C   UNL     1      -9.493  -7.031   6.850  0.00  0.00    +0.124 C 
ATOM     19  C   UNL     1      -8.339  -7.405   9.053  0.00  0.00    +0.124 C 
BRANCH   5  22
ATOM     22  C   UNL     1     -10.269  -5.842   8.889  0.00  0.00    +0.030 A 
ATOM     25  C   UNL     1     -10.062  -4.470   8.746  0.00  0.00    +0.023 A 
ATOM     26  C   UNL     1     -11.351  -6.310   9.634  0.00  0.00    +0.023 A 
ATOM     32  C   UNL     1     -10.936  -3.566   9.349  0.00  0.00    +0.002 A 
ATOM     33  C   UNL     1     -12.227  -5.406  10.237  0.00  0.00    +0.002 A 
ATOM     37  C   UNL     1     -12.018  -4.034  10.095  0.00  0.00    +0.000 A 
ENDBRANCH   5  22
ENDBRANCH  11  14
ENDBRANCH   7  11
BRANCH   8  13
ATOM     13  C   UNL     1      -4.546  -9.722   9.288  0.00  0.00    +0.064 C 
BRANCH  13  15
ATOM      2  O   UNL     1      -3.098 -10.323  12.530  0.00  0.00    -0.354 OA
ATOM      6  N   UNL     1      -3.000 -10.056  11.169  0.00  0.00    -0.083 NA
ATOM     15  C   UNL     1      -4.263  -9.998  10.737  0.00  0.00    +0.085 A 
ATOM     20  C   UNL     1      -5.192 -10.218  11.769  0.00  0.00    +0.076 A 
ATOM     21  C   UNL     1      -4.407 -10.418  12.875  0.00  0.00    +0.167 A 
BRANCH  21  23
ATOM     23  C   UNL     1      -4.668 -10.693  14.258  0.00  0.00    +0.020 A 
ATOM     27  C   UNL     1      -5.174 -11.229  16.949  0.00  0.00    -0.042 A 
ATOM     28  C   UNL     1      -5.719 -10.049  14.912  0.00  0.00    +0.012 A 
ATOM     29  C   UNL     1      -3.870 -11.605  14.950  0.00  0.00    +0.012 A 
ATOM     30  C   UNL     1      -5.972 -10.317  16.257  0.00  0.00    +0.005 A 
ATOM     31  C   UNL     1      -4.123 -11.872  16.295  0.00  0.00    +0.005 A 
BRANCH  27  24
ATOM     24  C   UNL     1      -5.445 -11.515  18.387  0.00  0.00    -0.013 C 
ATOM     34  C   UNL     1      -4.139 -11.916  19.140  0.00  0.00    +0.015 C 
ATOM     35  C   UNL     1      -6.460 -12.690  18.548  0.00  0.00    +0.015 C 
ATOM     36  C   UNL     1      -6.050 -10.326  19.205  0.00  0.00    +0.015 C 
ENDBRANCH  27  24
ENDBRANCH  21  23
ENDBRANCH  13  15
ENDBRANCH   8  13
TORSDOF 7
ENDMDL
MODEL 6
REMARK VINA RESULT:      -7.3     28.365     31.602
REMARK  Name = 26743306
REMARK  10 active torsions:
REMARK  status: ('A' for Active; 'I' for Inactive)
REMARK    1  A    between atoms: N_5  and  C_22
REMARK    2  A    between atoms: C_7  and  C_11
REMARK    3  A    between atoms: C_8  and  C_13
REMARK    4  A    between atoms: C_11  and  C_14
REMARK    5  A    between atoms: C_13  and  C_15
REMARK    6  A    between atoms: C_21  and  C_23
REMARK    7  A    between atoms: C_24  and  C_27
REMARK    8  A    between atoms: C_24  and  C_34
REMARK    9  A    between atoms: C_24  and  C_35
REMARK   10  A    between atoms: C_24  and  C_36
REMARK                            x       y       z     vdW  Elec       q    Type
REMARK                         _______ _______ _______ _____ _____    ______ ____
ROOT
ATOM      3  N   UNL     1      -6.839 -13.669   4.786  0.00  0.00    -0.316 NA
ATOM      7  C   UNL     1      -4.768 -11.867   5.868  0.00  0.00    +0.004 C 
ATOM      8  C   UNL     1      -4.429 -13.115   5.017  0.00  0.00    +0.012 C 
ATOM      9  C   UNL     1      -6.196 -11.405   5.535  0.00  0.00    +0.019 C 
ATOM     10  C   UNL     1      -5.518 -14.195   5.134  0.00  0.00    +0.085 C 
ATOM     12  C   UNL     1      -7.215 -12.540   5.633  0.00  0.00    +0.081 C 
ATOM     38  H   UNL     1      -7.533 -14.409   4.884  0.00  0.00    +0.122 HD
ENDROOT
BRANCH   7  11
ATOM     11  C   UNL     1      -4.602 -12.078   7.377  0.00  0.00    +0.100 C 
BRANCH  11  14
ATOM      1  O   UNL     1      -5.068  -9.753   7.498  0.00  0.00    -0.276 OA
ATOM      4  N   UNL     1      -4.228 -10.749   9.422  0.00  0.00    -0.298 N 
ATOM      5  N   UNL     1      -3.564 -10.673  12.238  0.00  0.00    -0.327 N 
ATOM     14  C   UNL     1      -4.659 -10.752   8.095  0.00  0.00    +0.216 C 
ATOM     16  C   UNL     1      -4.248  -9.503  10.183  0.00  0.00    +0.126 C 
ATOM     17  C   UNL     1      -3.753 -11.938  10.133  0.00  0.00    +0.126 C 
ATOM     18  C   UNL     1      -4.539  -9.742  11.663  0.00  0.00    +0.124 C 
ATOM     19  C   UNL     1      -2.874 -11.598  11.336  0.00  0.00    +0.124 C 
BRANCH   5  22
ATOM     22  C   UNL     1      -3.278 -10.650  13.601  0.00  0.00    +0.030 A 
ATOM     25  C   UNL     1      -1.958 -10.532  14.035  0.00  0.00    +0.023 A 
ATOM     26  C   UNL     1      -4.312 -10.741  14.532  0.00  0.00    +0.023 A 
ATOM     32  C   UNL     1      -1.671 -10.506  15.400  0.00  0.00    +0.002 A 
ATOM     33  C   UNL     1      -4.026 -10.714  15.898  0.00  0.00    +0.002 A 
ATOM     37  C   UNL     1      -2.706 -10.597  16.332  0.00  0.00    +0.000 A 
ENDBRANCH   5  22
ENDBRANCH  11  14
ENDBRANCH   7  11
BRANCH   8  13
ATOM     13  C   UNL     1      -3.054 -13.702   5.336  0.00  0.00    +0.064 C 
BRANCH  13  15
ATOM      2  O   UNL     1      -1.475 -13.168   2.144  0.00  0.00    -0.354 OA
ATOM      6  N   UNL     1      -2.507 -12.971   3.054  0.00  0.00    -0.083 NA
ATOM     15  C   UNL     1      -2.158 -13.680   4.131  0.00  0.00    +0.085 A 
ATOM     20  C   UNL     1      -0.928 -14.339   3.961  0.00  0.00    +0.076 A 
ATOM     21  C   UNL     1      -0.541 -13.984   2.695  0.00  0.00    +0.167 A 
BRANCH  21  23
ATOM     23  C   UNL     1       0.592 -14.280   1.868  0.00  0.00    +0.020 A 
ATOM     27  C   UNL     1       2.799 -14.855   0.261  0.00  0.00    -0.042 A 
ATOM     28  C   UNL     1       0.533 -14.049   0.494  0.00  0.00    +0.012 A 
ATOM     29  C   UNL     1       1.756 -14.799   2.439  0.00  0.00    +0.012 A 
ATOM     30  C   UNL     1       1.636 -14.336  -0.310  0.00  0.00    +0.005 A 
ATOM     31  C   UNL     1       2.858 -15.086   1.635  0.00  0.00    +0.005 A 
BRANCH  27  24
ATOM     24  C   UNL     1       3.978 -15.162  -0.600  0.00  0.00    -0.013 C 
ATOM     34  C   UNL     1       3.552 -15.390  -2.083  0.00  0.00    +0.015 C 
ATOM     35  C   UNL     1       4.709 -16.454  -0.117  0.00  0.00    +0.015 C 
ATOM     36  C   UNL     1       5.080 -14.052  -0.649  0.00  0.00    +0.015 C 
ENDBRANCH  27  24
ENDBRANCH  21  23
ENDBRANCH  13  15
ENDBRANCH   8  13
TORSDOF 7
ENDMDL
MODEL 7
REMARK VINA RESULT:      -7.2     21.937     26.384
REMARK  Name = 26743306
REMARK  10 active torsions:
REMARK  status: ('A' for Active; 'I' for Inactive)
REMARK    1  A    between atoms: N_5  and  C_22
REMARK    2  A    between atoms: C_7  and  C_11
REMARK    3  A    between atoms: C_8  and  C_13
REMARK    4  A    between atoms: C_11  and  C_14
REMARK    5  A    between atoms: C_13  and  C_15
REMARK    6  A    between atoms: C_21  and  C_23
REMARK    7  A    between atoms: C_24  and  C_27
REMARK    8  A    between atoms: C_24  and  C_34
REMARK    9  A    between atoms: C_24  and  C_35
REMARK   10  A    between atoms: C_24  and  C_36
REMARK                            x       y       z     vdW  Elec       q    Type
REMARK                         _______ _______ _______ _____ _____    ______ ____
ROOT
ATOM      3  N   UNL     1       7.154   9.717  -0.243  0.00  0.00    -0.316 NA
ATOM      7  C   UNL     1       4.316   9.476  -1.017  0.00  0.00    +0.004 C 
ATOM      8  C   UNL     1       5.478   9.252  -2.015  0.00  0.00    +0.012 C 
ATOM      9  C   UNL     1       4.825   9.216   0.411  0.00  0.00    +0.019 C 
ATOM     10  C   UNL     1       6.737  10.038  -1.608  0.00  0.00    +0.085 C 
ATOM     12  C   UNL     1       6.099   9.998   0.728  0.00  0.00    +0.081 C 
ATOM     38  H   UNL     1       7.982  10.261  -0.006  0.00  0.00    +0.122 HD
ENDROOT
BRANCH   7  11
ATOM     11  C   UNL     1       3.664  10.860  -1.120  0.00  0.00    +0.100 C 
BRANCH  11  14
ATOM      1  O   UNL     1       1.845  10.720  -2.641  0.00  0.00    -0.276 OA
ATOM      4  N   UNL     1       1.326  10.593  -0.378  0.00  0.00    -0.298 N 
ATOM      5  N   UNL     1      -0.548  10.112   1.773  0.00  0.00    -0.327 N 
ATOM     14  C   UNL     1       2.201  10.717  -1.459  0.00  0.00    +0.216 C 
ATOM     16  C   UNL     1      -0.107  10.456  -0.624  0.00  0.00    +0.126 C 
ATOM     17  C   UNL     1       1.752  10.579   1.023  0.00  0.00    +0.126 C 
ATOM     18  C   UNL     1      -0.785   9.581   0.427  0.00  0.00    +0.124 C 
ATOM     19  C   UNL     1       0.627  10.959   1.987  0.00  0.00    +0.124 C 
BRANCH   5  22
ATOM     22  C   UNL     1      -1.440   9.845   2.810  0.00  0.00    +0.030 A 
ATOM     25  C   UNL     1      -2.814   9.913   2.583  0.00  0.00    +0.023 A 
ATOM     26  C   UNL     1      -0.958   9.505   4.074  0.00  0.00    +0.023 A 
ATOM     32  C   UNL     1      -3.708   9.642   3.620  0.00  0.00    +0.002 A 
ATOM     33  C   UNL     1      -1.851   9.233   5.111  0.00  0.00    +0.002 A 
ATOM     37  C   UNL     1      -3.225   9.303   4.884  0.00  0.00    +0.000 A 
ENDBRANCH   5  22
ENDBRANCH  11  14
ENDBRANCH   7  11
BRANCH   8  13
ATOM     13  C   UNL     1       5.094   9.565  -3.461  0.00  0.00    +0.064 C 
BRANCH  13  15
ATOM      2  O   UNL     1       2.738   7.578  -5.323  0.00  0.00    -0.354 OA
ATOM      6  N   UNL     1       3.370   8.780  -5.027  0.00  0.00    -0.083 NA
ATOM     15  C   UNL     1       4.226   8.487  -4.043  0.00  0.00    +0.085 A 
ATOM     20  C   UNL     1       4.177   7.130  -3.680  0.00  0.00    +0.076 A 
ATOM     21  C   UNL     1       3.227   6.604  -4.514  0.00  0.00    +0.167 A 
BRANCH  21  23
ATOM     23  C   UNL     1       2.666   5.298  -4.704  0.00  0.00    +0.020 A 
ATOM     27  C   UNL     1       1.574   2.757  -5.076  0.00  0.00    -0.042 A 
ATOM     28  C   UNL     1       1.353   5.037  -4.308  0.00  0.00    +0.012 A 
ATOM     29  C   UNL     1       3.432   4.287  -5.286  0.00  0.00    +0.012 A 
ATOM     30  C   UNL     1       0.808   3.768  -4.494  0.00  0.00    +0.005 A 
ATOM     31  C   UNL     1       2.886   3.018  -5.472  0.00  0.00    +0.005 A 
BRANCH  27  24
ATOM     24  C   UNL     1       0.990   1.399  -5.274  0.00  0.00    -0.013 C 
ATOM     34  C   UNL     1       2.031   0.283  -4.954  0.00  0.00    +0.015 C 
ATOM     35  C   UNL     1       0.520   1.195  -6.748  0.00  0.00    +0.015 C 
ATOM     36  C   UNL     1      -0.258   1.070  -4.389  0.00  0.00    +0.015 C 
ENDBRANCH  27  24
ENDBRANCH  21  23
ENDBRANCH  13  15
ENDBRANCH   8  13
TORSDOF 7
ENDMDL
MODEL 8
REMARK VINA RESULT:      -7.2     12.931     17.544
REMARK  Name = 26743306
REMARK  10 active torsions:
REMARK  status: ('A' for Active; 'I' for Inactive)
REMARK    1  A    between atoms: N_5  and  C_22
REMARK    2  A    between atoms: C_7  and  C_11
REMARK    3  A    between atoms: C_8  and  C_13
REMARK    4  A    between atoms: C_11  and  C_14
REMARK    5  A    between atoms: C_13  and  C_15
REMARK    6  A    between atoms: C_21  and  C_23
REMARK    7  A    between atoms: C_24  and  C_27
REMARK    8  A    between atoms: C_24  and  C_34
REMARK    9  A    between atoms: C_24  and  C_35
REMARK   10  A    between atoms: C_24  and  C_36
REMARK                            x       y       z     vdW  Elec       q    Type
REMARK                         _______ _______ _______ _____ _____    ______ ____
ROOT
ATOM      3  N   UNL     1       8.724   8.175   7.694  0.00  0.00    -0.316 NA
ATOM      7  C   UNL     1      11.142   9.075   6.262  0.00  0.00    +0.004 C 
ATOM      8  C   UNL     1      10.580   7.638   6.136  0.00  0.00    +0.012 C 
ATOM      9  C   UNL     1      10.004  10.024   6.672  0.00  0.00    +0.019 C 
ATOM     10  C   UNL     1       9.792   7.223   7.390  0.00  0.00    +0.085 C 
ATOM     12  C   UNL     1       9.242   9.526   7.899  0.00  0.00    +0.081 C 
ATOM     38  H   UNL     1       8.232   7.873   8.534  0.00  0.00    +0.122 HD
ENDROOT
BRANCH   7  11
ATOM     11  C   UNL     1      12.328   9.197   7.226  0.00  0.00    +0.100 C 
BRANCH  11  14
ATOM      1  O   UNL     1      12.986  11.391   6.602  0.00  0.00    -0.276 OA
ATOM      4  N   UNL     1      14.576   9.714   6.352  0.00  0.00    -0.298 N 
ATOM      5  N   UNL     1      17.280   8.840   5.803  0.00  0.00    -0.327 N 
ATOM     14  C   UNL     1      13.318  10.207   6.702  0.00  0.00    +0.216 C 
ATOM     16  C   UNL     1      15.589  10.629   5.831  0.00  0.00    +0.126 C 
ATOM     17  C   UNL     1      14.972   8.310   6.482  0.00  0.00    +0.126 C 
ATOM     18  C   UNL     1      16.999  10.211   6.240  0.00  0.00    +0.124 C 
ATOM     19  C   UNL     1      16.148   7.940   5.577  0.00  0.00    +0.124 C 
BRANCH   5  22
ATOM     22  C   UNL     1      18.589   8.421   5.575  0.00  0.00    +0.030 A 
ATOM     25  C   UNL     1      19.525   8.463   6.607  0.00  0.00    +0.023 A 
ATOM     26  C   UNL     1      18.962   7.955   4.314  0.00  0.00    +0.023 A 
ATOM     32  C   UNL     1      20.835   8.040   6.380  0.00  0.00    +0.002 A 
ATOM     33  C   UNL     1      20.272   7.531   4.086  0.00  0.00    +0.002 A 
ATOM     37  C   UNL     1      21.208   7.574   5.119  0.00  0.00    +0.000 A 
ENDBRANCH   5  22
ENDBRANCH  11  14
ENDBRANCH   7  11
BRANCH   8  13
ATOM     13  C   UNL     1      11.655   6.601   5.809  0.00  0.00    +0.064 C 
BRANCH  13  15
ATOM      2  O   UNL     1      10.365   4.346   3.317  0.00  0.00    -0.354 OA
ATOM      6  N   UNL     1      10.444   4.824   4.619  0.00  0.00    -0.083 NA
ATOM     15  C   UNL     1      11.317   5.835   4.563  0.00  0.00    +0.085 A 
ATOM     20  C   UNL     1      11.816   6.038   3.265  0.00  0.00    +0.076 A 
ATOM     21  C   UNL     1      11.186   5.076   2.520  0.00  0.00    +0.167 A 
BRANCH  21  23
ATOM     23  C   UNL     1      11.210   4.696   1.137  0.00  0.00    +0.020 A 
ATOM     27  C   UNL     1      11.259   3.958  -1.553  0.00  0.00    -0.042 A 
ATOM     28  C   UNL     1      10.188   5.109   0.282  0.00  0.00    +0.012 A 
ATOM     29  C   UNL     1      12.256   3.914   0.647  0.00  0.00    +0.012 A 
ATOM     30  C   UNL     1      10.212   4.740  -1.063  0.00  0.00    +0.005 A 
ATOM     31  C   UNL     1      12.281   3.545  -0.697  0.00  0.00    +0.005 A 
BRANCH  27  24
ATOM     24  C   UNL     1      11.284   3.563  -2.991  0.00  0.00    -0.013 C 
ATOM     34  C   UNL     1      12.676   2.986  -3.395  0.00  0.00    +0.015 C 
ATOM     35  C   UNL     1      10.996   4.785  -3.918  0.00  0.00    +0.015 C 
ATOM     36  C   UNL     1      10.244   2.470  -3.405  0.00  0.00    +0.015 C 
ENDBRANCH  27  24
ENDBRANCH  21  23
ENDBRANCH  13  15
ENDBRANCH   8  13
TORSDOF 7
ENDMDL
MODEL 9
REMARK VINA RESULT:      -7.1      4.821     12.299
REMARK  Name = 26743306
REMARK  10 active torsions:
REMARK  status: ('A' for Active; 'I' for Inactive)
REMARK    1  A    between atoms: N_5  and  C_22
REMARK    2  A    between atoms: C_7  and  C_11
REMARK    3  A    between atoms: C_8  and  C_13
REMARK    4  A    between atoms: C_11  and  C_14
REMARK    5  A    between atoms: C_13  and  C_15
REMARK    6  A    between atoms: C_21  and  C_23
REMARK    7  A    between atoms: C_24  and  C_27
REMARK    8  A    between atoms: C_24  and  C_34
REMARK    9  A    between atoms: C_24  and  C_35
REMARK   10  A    between atoms: C_24  and  C_36
REMARK                            x       y       z     vdW  Elec       q    Type
REMARK                         _______ _______ _______ _____ _____    ______ ____
ROOT
ATOM      3  N   UNL     1      23.287   3.762  20.426  0.00  0.00    -0.316 NA
ATOM      7  C   UNL     1      21.537   4.936  22.492  0.00  0.00    +0.004 C 
ATOM      8  C   UNL     1      21.380   5.251  20.984  0.00  0.00    +0.012 C 
ATOM      9  C   UNL     1      22.229   3.572  22.650  0.00  0.00    +0.019 C 
ATOM     10  C   UNL     1      22.711   5.092  20.229  0.00  0.00    +0.085 C 
ATOM     12  C   UNL     1      23.521   3.475  21.840  0.00  0.00    +0.081 C 
ATOM     38  H   UNL     1      24.170   3.698  19.920  0.00  0.00    +0.122 HD
ENDROOT
BRANCH   7  11
ATOM     11  C   UNL     1      22.282   6.020  23.280  0.00  0.00    +0.100 C 
BRANCH  11  14
ATOM      1  O   UNL     1      20.512   7.429  24.002  0.00  0.00    -0.276 OA
ATOM      4  N   UNL     1      21.584   6.177  25.641  0.00  0.00    -0.298 N 
ATOM      5  N   UNL     1      21.788   5.189  28.354  0.00  0.00    -0.327 N 
ATOM     14  C   UNL     1      21.374   6.610  24.331  0.00  0.00    +0.216 C 
ATOM     16  C   UNL     1      20.750   6.706  26.717  0.00  0.00    +0.126 C 
ATOM     17  C   UNL     1      22.601   5.197  26.028  0.00  0.00    +0.126 C 
ATOM     18  C   UNL     1      20.513   5.674  27.816  0.00  0.00    +0.124 C 
ATOM     19  C   UNL     1      22.979   5.287  27.507  0.00  0.00    +0.124 C 
BRANCH   5  22
ATOM     22  C   UNL     1      21.867   4.684  29.650  0.00  0.00    +0.030 A 
ATOM     25  C   UNL     1      20.995   5.148  30.634  0.00  0.00    +0.023 A 
ATOM     26  C   UNL     1      22.815   3.710  29.961  0.00  0.00    +0.023 A 
ATOM     32  C   UNL     1      21.072   4.640  31.931  0.00  0.00    +0.002 A 
ATOM     33  C   UNL     1      22.892   3.200  31.259  0.00  0.00    +0.002 A 
ATOM     37  C   UNL     1      22.020   3.666  32.243  0.00  0.00    +0.000 A 
ENDBRANCH   5  22
ENDBRANCH  11  14
ENDBRANCH   7  11
BRANCH   8  13
ATOM     13  C   UNL     1      20.774   6.629  20.720  0.00  0.00    +0.064 C 
BRANCH  13  15
ATOM      2  O   UNL     1      17.401   5.808  19.762  0.00  0.00    -0.354 OA
ATOM      6  N   UNL     1      18.776   5.606  19.719  0.00  0.00    -0.083 NA
ATOM     15  C   UNL     1      19.288   6.544  20.522  0.00  0.00    +0.085 A 
ATOM     20  C   UNL     1      18.295   7.359  21.092  0.00  0.00    +0.076 A 
ATOM     21  C   UNL     1      17.128   6.855  20.582  0.00  0.00    +0.167 A 
BRANCH  21  23
ATOM     23  C   UNL     1      15.740   7.185  20.726  0.00  0.00    +0.020 A 
ATOM     27  C   UNL     1      13.039   7.827  21.009  0.00  0.00    -0.042 A 
ATOM     28  C   UNL     1      14.817   6.756  19.772  0.00  0.00    +0.012 A 
ATOM     29  C   UNL     1      15.311   7.935  21.822  0.00  0.00    +0.012 A 
ATOM     30  C   UNL     1      13.467   7.077  19.912  0.00  0.00    +0.005 A 
ATOM     31  C   UNL     1      13.962   8.256  21.963  0.00  0.00    +0.005 A 
BRANCH  27  24
ATOM     24  C   UNL     1      11.595   8.170  21.159  0.00  0.00    -0.013 C 
ATOM     34  C   UNL     1      10.790   6.975  21.757  0.00  0.00    +0.015 C 
ATOM     35  C   UNL     1      10.953   8.527  19.782  0.00  0.00    +0.015 C 
ATOM     36  C   UNL     1      11.288   9.388  22.092  0.00  0.00    +0.015 C 
ENDBRANCH  27  24
ENDBRANCH  21  23
ENDBRANCH  13  15
ENDBRANCH   8  13
TORSDOF 7
ENDMDL
MODEL 10
REMARK VINA RESULT:      -7.1     27.696     31.237
REMARK  Name = 26743306
REMARK  10 active torsions:
REMARK  status: ('A' for Active; 'I' for Inactive)
REMARK    1  A    between atoms: N_5  and  C_22
REMARK    2  A    between atoms: C_7  and  C_11
REMARK    3  A    between atoms: C_8  and  C_13
REMARK    4  A    between atoms: C_11  and  C_14
REMARK    5  A    between atoms: C_13  and  C_15
REMARK    6  A    between atoms: C_21  and  C_23
REMARK    7  A    between atoms: C_24  and  C_27
REMARK    8  A    between atoms: C_24  and  C_34
REMARK    9  A    between atoms: C_24  and  C_35
REMARK   10  A    between atoms: C_24  and  C_36
REMARK                            x       y       z     vdW  Elec       q    Type
REMARK                         _______ _______ _______ _____ _____    ______ ____
ROOT
ATOM      3  N   UNL     1      -6.712 -14.141  17.378  0.00  0.00    -0.316 NA
ATOM      7  C   UNL     1      -4.656 -12.114  17.990  0.00  0.00    +0.004 C 
ATOM      8  C   UNL     1      -5.885 -12.360  18.898  0.00  0.00    +0.012 C 
ATOM      9  C   UNL     1      -4.367 -13.389  17.181  0.00  0.00    +0.019 C 
ATOM     10  C   UNL     1      -7.076 -12.923  18.103  0.00  0.00    +0.085 C 
ATOM     12  C   UNL     1      -5.605 -13.912  16.452  0.00  0.00    +0.081 C 
ATOM     38  H   UNL     1      -7.521 -14.478  16.857  0.00  0.00    +0.122 HD
ENDROOT
BRANCH   7  11
ATOM     11  C   UNL     1      -4.799 -10.901  17.063  0.00  0.00    +0.100 C 
BRANCH  11  14
ATOM      1  O   UNL     1      -2.458 -10.774  16.688  0.00  0.00    -0.276 OA
ATOM      4  N   UNL     1      -3.822 -10.673  14.809  0.00  0.00    -0.298 N 
ATOM      5  N   UNL     1      -4.195 -10.666  11.938  0.00  0.00    -0.327 N 
ATOM     14  C   UNL     1      -3.582 -10.779  16.180  0.00  0.00    +0.216 C 
ATOM     16  C   UNL     1      -2.696 -10.546  13.888  0.00  0.00    +0.126 C 
ATOM     17  C   UNL     1      -5.157 -10.691  14.207  0.00  0.00    +0.126 C 
ATOM     18  C   UNL     1      -2.978 -11.216  12.545  0.00  0.00    +0.124 C 
ATOM     19  C   UNL     1      -5.190 -10.050  12.819  0.00  0.00    +0.124 C 
BRANCH   5  22
ATOM     22  C   UNL     1      -4.378 -10.700  10.558  0.00  0.00    +0.030 A 
ATOM     25  C   UNL     1      -4.353 -11.918   9.880  0.00  0.00    +0.023 A 
ATOM     26  C   UNL     1      -4.592  -9.514   9.855  0.00  0.00    +0.023 A 
ATOM     32  C   UNL     1      -4.540 -11.952   8.498  0.00  0.00    +0.002 A 
ATOM     33  C   UNL     1      -4.780  -9.548   8.472  0.00  0.00    +0.002 A 
ATOM     37  C   UNL     1      -4.753 -10.766   7.794  0.00  0.00    +0.000 A 
ENDBRANCH   5  22
ENDBRANCH  11  14
ENDBRANCH   7  11
BRANCH   8  13
ATOM     13  C   UNL     1      -6.305 -11.120  19.687  0.00  0.00    +0.064 C 
BRANCH  13  15
ATOM      2  O   UNL     1      -9.835 -10.456  19.436  0.00  0.00    -0.354 OA
ATOM      6  N   UNL     1      -8.732 -11.029  20.059  0.00  0.00    -0.083 NA
ATOM     15  C   UNL     1      -7.687 -10.671  19.308  0.00  0.00    +0.085 A 
ATOM     20  C   UNL     1      -8.065  -9.881  18.208  0.00  0.00    +0.076 A 
ATOM     21  C   UNL     1      -9.425  -9.776  18.335  0.00  0.00    +0.167 A 
BRANCH  21  23
ATOM     23  C   UNL     1     -10.460  -9.128  17.584  0.00  0.00    +0.020 A 
ATOM     27  C   UNL     1     -12.474  -7.867  16.121  0.00  0.00    -0.042 A 
ATOM     28  C   UNL     1     -10.260  -7.839  17.089  0.00  0.00    +0.012 A 
ATOM     29  C   UNL     1     -11.667  -9.786  17.347  0.00  0.00    +0.012 A 
ATOM     30  C   UNL     1     -11.266  -7.208  16.358  0.00  0.00    +0.005 A 
ATOM     31  C   UNL     1     -12.673  -9.156  16.616  0.00  0.00    +0.005 A 
BRANCH  27  24
ATOM     24  C   UNL     1     -13.550  -7.192  15.339  0.00  0.00    -0.013 C 
ATOM     34  C   UNL     1     -13.963  -8.041  14.097  0.00  0.00    +0.015 C 
ATOM     35  C   UNL     1     -13.081  -5.797  14.820  0.00  0.00    +0.015 C 
ATOM     36  C   UNL     1     -14.878  -6.922  16.120  0.00  0.00    +0.015 C 
ENDBRANCH  27  24
ENDBRANCH  21  23
ENDBRANCH  13  15
ENDBRANCH   8  13
TORSDOF 7
ENDMDL
