MODEL 1
REMARK VINA RESULT:      -6.7      0.000      0.000
REMARK  Name = 75536936
REMARK  4 active torsions:
REMARK  status: ('A' for Active; 'I' for Inactive)
REMARK    1  A    between atoms: O_2  and  C_6
REMARK    2  A    between atoms: O_2  and  C_16
REMARK    3  A    between atoms: N_3  and  C_8
REMARK    4  A    between atoms: C_8  and  C_11
REMARK                            x       y       z     vdW  Elec       q    Type
REMARK                         _______ _______ _______ _____ _____    ______ ____
ROOT
ATOM      8  C   UNL     1      13.692   8.797  19.039  0.00  0.00    +0.121 C 
ENDROOT
BRANCH   8  11
ATOM      4  N   UNL     1      16.360   6.115  18.979  0.00  0.00    -0.255 NA
ATOM     11  C   UNL     1      14.960   8.046  19.349  0.00  0.00    -0.015 A 
ATOM     12  C   UNL     1      15.888   8.543  20.252  0.00  0.00    +0.016 A 
ATOM     13  C   UNL     1      15.242   6.838  18.745  0.00  0.00    +0.116 A 
ATOM     14  C   UNL     1      17.061   7.827  20.524  0.00  0.00    +0.001 A 
ATOM     15  C   UNL     1      17.259   6.601  19.857  0.00  0.00    +0.071 A 
ATOM     17  C   UNL     1      18.020   8.304  21.433  0.00  0.00    +0.010 A 
ATOM     18  C   UNL     1      18.425   5.888  20.128  0.00  0.00    +0.028 A 
ATOM     19  C   UNL     1      19.177   7.571  21.685  0.00  0.00    +0.001 A 
ATOM     20  C   UNL     1      19.379   6.363  21.032  0.00  0.00    +0.002 A 
ENDBRANCH   8  11
BRANCH   8   3
ATOM      1  O   UNL     1      11.038  10.395  22.349  0.00  0.00    -0.376 OA
ATOM      3  N   UNL     1      12.897   9.043  20.241  0.00  0.00    -0.293 NA
ATOM      5  C   UNL     1      11.961   7.935  20.465  0.00  0.00    +0.118 C 
ATOM      6  C   UNL     1      10.787   8.171  21.427  0.00  0.00    +0.157 C 
ATOM      7  C   UNL     1      12.269  10.365  20.208  0.00  0.00    +0.113 C 
ATOM      9  C   UNL     1      11.136   9.007  22.652  0.00  0.00    +0.192 C 
ATOM     10  C   UNL     1      12.143  10.920  21.627  0.00  0.00    +0.175 C 
BRANCH   6   2
ATOM      2  O   UNL     1      10.321   6.899  21.881  0.00  0.00    -0.376 OA
ATOM     16  C   UNL     1      11.222   5.863  21.522  0.00  0.00    +0.194 C 
ENDBRANCH   6   2
ENDBRANCH   8   3
TORSDOF 3
ENDMDL
MODEL 2
REMARK VINA RESULT:      -6.3      1.679      2.821
REMARK  Name = 75536936
REMARK  4 active torsions:
REMARK  status: ('A' for Active; 'I' for Inactive)
REMARK    1  A    between atoms: O_2  and  C_6
REMARK    2  A    between atoms: O_2  and  C_16
REMARK    3  A    between atoms: N_3  and  C_8
REMARK    4  A    between atoms: C_8  and  C_11
REMARK                            x       y       z     vdW  Elec       q    Type
REMARK                         _______ _______ _______ _____ _____    ______ ____
ROOT
ATOM      8  C   UNL     1      15.730   6.747  18.945  0.00  0.00    +0.121 C 
ENDROOT
BRANCH   8  11
ATOM      4  N   UNL     1      18.088   7.783  21.716  0.00  0.00    -0.255 NA
ATOM     11  C   UNL     1      16.939   6.788  19.841  0.00  0.00    -0.015 A 
ATOM     12  C   UNL     1      18.002   5.916  19.656  0.00  0.00    +0.016 A 
ATOM     13  C   UNL     1      17.032   7.695  20.877  0.00  0.00    +0.116 A 
ATOM     14  C   UNL     1      19.117   5.973  20.503  0.00  0.00    +0.001 A 
ATOM     15  C   UNL     1      19.118   6.935  21.533  0.00  0.00    +0.071 A 
ATOM     17  C   UNL     1      20.208   5.103  20.342  0.00  0.00    +0.010 A 
ATOM     18  C   UNL     1      20.227   6.993  22.375  0.00  0.00    +0.028 A 
ATOM     19  C   UNL     1      21.303   5.182  21.198  0.00  0.00    +0.001 A 
ATOM     20  C   UNL     1      21.312   6.128  22.215  0.00  0.00    +0.002 A 
ENDBRANCH   8  11
BRANCH   8   3
ATOM      1  O   UNL     1      12.617   9.978  19.596  0.00  0.00    -0.376 OA
ATOM      3  N   UNL     1      14.671   7.639  19.416  0.00  0.00    -0.293 NA
ATOM      5  C   UNL     1      13.472   6.864  19.755  0.00  0.00    +0.118 C 
ATOM      6  C   UNL     1      12.143   7.623  19.893  0.00  0.00    +0.157 C 
ATOM      7  C   UNL     1      14.436   8.735  18.477  0.00  0.00    +0.113 C 
ATOM      9  C   UNL     1      12.265   8.988  20.556  0.00  0.00    +0.192 C 
ATOM     10  C   UNL     1      13.991   9.987  19.234  0.00  0.00    +0.175 C 
BRANCH   6   2
ATOM      2  O   UNL     1      11.256   6.827  20.681  0.00  0.00    -0.376 OA
ATOM     16  C   UNL     1      10.674   7.588  21.727  0.00  0.00    +0.194 C 
ENDBRANCH   6   2
ENDBRANCH   8   3
TORSDOF 3
ENDMDL
MODEL 3
REMARK VINA RESULT:      -6.2      3.132      7.111
REMARK  Name = 75536936
REMARK  4 active torsions:
REMARK  status: ('A' for Active; 'I' for Inactive)
REMARK    1  A    between atoms: O_2  and  C_6
REMARK    2  A    between atoms: O_2  and  C_16
REMARK    3  A    between atoms: N_3  and  C_8
REMARK    4  A    between atoms: C_8  and  C_11
REMARK                            x       y       z     vdW  Elec       q    Type
REMARK                         _______ _______ _______ _____ _____    ______ ____
ROOT
ATOM      8  C   UNL     1      11.300   8.817  22.184  0.00  0.00    +0.121 C 
ENDROOT
BRANCH   8  11
ATOM      4  N   UNL     1      11.288  12.582  21.808  0.00  0.00    -0.255 NA
ATOM     11  C   UNL     1      11.214  10.280  22.530  0.00  0.00    -0.015 A 
ATOM     12  C   UNL     1      10.991  10.699  23.834  0.00  0.00    +0.016 A 
ATOM     13  C   UNL     1      11.354  11.254  21.563  0.00  0.00    +0.116 A 
ATOM     14  C   UNL     1      10.915  12.066  24.133  0.00  0.00    +0.001 A 
ATOM     15  C   UNL     1      11.071  12.985  23.075  0.00  0.00    +0.071 A 
ATOM     17  C   UNL     1      10.690  12.521  25.442  0.00  0.00    +0.010 A 
ATOM     18  C   UNL     1      10.997  14.344  23.372  0.00  0.00    +0.028 A 
ATOM     19  C   UNL     1      10.619  13.885  25.710  0.00  0.00    +0.001 A 
ATOM     20  C   UNL     1      10.772  14.797  24.674  0.00  0.00    +0.002 A 
ENDBRANCH   8  11
BRANCH   8   3
ATOM      1  O   UNL     1      14.952   7.534  19.823  0.00  0.00    -0.376 OA
ATOM      3  N   UNL     1      12.341   8.553  21.192  0.00  0.00    -0.293 NA
ATOM      5  C   UNL     1      11.751   7.962  19.984  0.00  0.00    +0.118 C 
ATOM      6  C   UNL     1      12.693   7.259  18.996  0.00  0.00    +0.157 C 
ATOM      7  C   UNL     1      13.443   7.779  21.764  0.00  0.00    +0.113 C 
ATOM      9  C   UNL     1      14.039   7.948  18.812  0.00  0.00    +0.192 C 
ATOM     10  C   UNL     1      14.759   8.160  21.083  0.00  0.00    +0.175 C 
BRANCH   6   2
ATOM      2  O   UNL     1      12.046   7.209  17.724  0.00  0.00    -0.376 OA
ATOM     16  C   UNL     1      11.532   8.480  17.357  0.00  0.00    +0.194 C 
ENDBRANCH   6   2
ENDBRANCH   8   3
TORSDOF 3
ENDMDL
MODEL 4
REMARK VINA RESULT:      -6.0      0.598      2.234
REMARK  Name = 75536936
REMARK  4 active torsions:
REMARK  status: ('A' for Active; 'I' for Inactive)
REMARK    1  A    between atoms: O_2  and  C_6
REMARK    2  A    between atoms: O_2  and  C_16
REMARK    3  A    between atoms: N_3  and  C_8
REMARK    4  A    between atoms: C_8  and  C_11
REMARK                            x       y       z     vdW  Elec       q    Type
REMARK                         _______ _______ _______ _____ _____    ______ ____
ROOT
ATOM      8  C   UNL     1      13.626   8.501  18.862  0.00  0.00    +0.121 C 
ENDROOT
BRANCH   8  11
ATOM      4  N   UNL     1      16.479   6.020  18.995  0.00  0.00    -0.255 NA
ATOM     11  C   UNL     1      14.930   7.855  19.245  0.00  0.00    -0.015 A 
ATOM     12  C   UNL     1      15.784   8.446  20.164  0.00  0.00    +0.016 A 
ATOM     13  C   UNL     1      15.322   6.651  18.694  0.00  0.00    +0.116 A 
ATOM     14  C   UNL     1      16.993   7.826  20.505  0.00  0.00    +0.001 A 
ATOM     15  C   UNL     1      17.305   6.597  19.889  0.00  0.00    +0.071 A 
ATOM     17  C   UNL     1      17.879   8.400  21.432  0.00  0.00    +0.010 A 
ATOM     18  C   UNL     1      18.506   5.980  20.228  0.00  0.00    +0.028 A 
ATOM     19  C   UNL     1      19.074   7.762  21.752  0.00  0.00    +0.001 A 
ATOM     20  C   UNL     1      19.388   6.550  21.150  0.00  0.00    +0.002 A 
ENDBRANCH   8  11
BRANCH   8   3
ATOM      1  O   UNL     1      10.954   7.087  22.240  0.00  0.00    -0.376 OA
ATOM      3  N   UNL     1      12.594   8.289  19.876  0.00  0.00    -0.293 NA
ATOM      5  C   UNL     1      12.403   9.511  20.667  0.00  0.00    +0.118 C 
ATOM      6  C   UNL     1      11.666   9.388  22.009  0.00  0.00    +0.157 C 
ATOM      7  C   UNL     1      12.863   7.091  20.672  0.00  0.00    +0.113 C 
ATOM      9  C   UNL     1      10.497   8.413  21.997  0.00  0.00    +0.192 C 
ATOM     10  C   UNL     1      11.546   6.452  21.116  0.00  0.00    +0.175 C 
BRANCH   6   2
ATOM      2  O   UNL     1      11.160  10.678  22.357  0.00  0.00    -0.376 OA
ATOM     16  C   UNL     1      11.659  11.680  21.485  0.00  0.00    +0.194 C 
ENDBRANCH   6   2
ENDBRANCH   8   3
TORSDOF 3
ENDMDL
MODEL 5
REMARK VINA RESULT:      -6.0      2.107      3.484
REMARK  Name = 75536936
REMARK  4 active torsions:
REMARK  status: ('A' for Active; 'I' for Inactive)
REMARK    1  A    between atoms: O_2  and  C_6
REMARK    2  A    between atoms: O_2  and  C_16
REMARK    3  A    between atoms: N_3  and  C_8
REMARK    4  A    between atoms: C_8  and  C_11
REMARK                            x       y       z     vdW  Elec       q    Type
REMARK                         _______ _______ _______ _____ _____    ______ ____
ROOT
ATOM      8  C   UNL     1      15.843   8.615  20.795  0.00  0.00    +0.121 C 
ENDROOT
BRANCH   8  11
ATOM      4  N   UNL     1      18.027   5.799  19.523  0.00  0.00    -0.255 NA
ATOM     11  C   UNL     1      16.990   7.647  20.680  0.00  0.00    -0.015 A 
ATOM     12  C   UNL     1      18.049   7.676  21.576  0.00  0.00    +0.016 A 
ATOM     13  C   UNL     1      17.027   6.696  19.680  0.00  0.00    +0.116 A 
ATOM     14  C   UNL     1      19.106   6.765  21.449  0.00  0.00    +0.001 A 
ATOM     15  C   UNL     1      19.053   5.831  20.394  0.00  0.00    +0.071 A 
ATOM     17  C   UNL     1      20.192   6.769  22.340  0.00  0.00    +0.010 A 
ATOM     18  C   UNL     1      20.102   4.924  20.269  0.00  0.00    +0.028 A 
ATOM     19  C   UNL     1      21.228   5.852  22.190  0.00  0.00    +0.001 A 
ATOM     20  C   UNL     1      21.183   4.929  21.154  0.00  0.00    +0.002 A 
ENDBRANCH   8  11
BRANCH   8   3
ATOM      1  O   UNL     1      11.784   7.218  19.336  0.00  0.00    -0.376 OA
ATOM      3  N   UNL     1      14.670   8.161  20.049  0.00  0.00    -0.293 NA
ATOM      5  C   UNL     1      14.406   9.064  18.922  0.00  0.00    +0.118 C 
ATOM      6  C   UNL     1      13.022   8.998  18.260  0.00  0.00    +0.157 C 
ATOM      7  C   UNL     1      13.523   7.948  20.932  0.00  0.00    +0.113 C 
ATOM      9  C   UNL     1      12.451   7.592  18.135  0.00  0.00    +0.192 C 
ATOM     10  C   UNL     1      12.648   6.817  20.389  0.00  0.00    +0.175 C 
BRANCH   6   2
ATOM      2  O   UNL     1      13.132   9.548  16.946  0.00  0.00    -0.376 OA
ATOM     16  C   UNL     1      11.965   9.291  16.180  0.00  0.00    +0.194 C 
ENDBRANCH   6   2
ENDBRANCH   8   3
TORSDOF 3
ENDMDL
MODEL 6
REMARK VINA RESULT:      -6.0      3.287      6.423
REMARK  Name = 75536936
REMARK  4 active torsions:
REMARK  status: ('A' for Active; 'I' for Inactive)
REMARK    1  A    between atoms: O_2  and  C_6
REMARK    2  A    between atoms: O_2  and  C_16
REMARK    3  A    between atoms: N_3  and  C_8
REMARK    4  A    between atoms: C_8  and  C_11
REMARK                            x       y       z     vdW  Elec       q    Type
REMARK                         _______ _______ _______ _____ _____    ______ ____
ROOT
ATOM      8  C   UNL     1      15.506   6.616  20.182  0.00  0.00    +0.121 C 
ENDROOT
BRANCH   8  11
ATOM      4  N   UNL     1      11.952   7.287  19.072  0.00  0.00    -0.255 NA
ATOM     11  C   UNL     1      14.342   7.112  19.368  0.00  0.00    -0.015 A 
ATOM     12  C   UNL     1      14.536   7.831  18.197  0.00  0.00    +0.016 A 
ATOM     13  C   UNL     1      13.040   6.869  19.757  0.00  0.00    +0.116 A 
ATOM     14  C   UNL     1      13.437   8.282  17.455  0.00  0.00    +0.001 A 
ATOM     15  C   UNL     1      12.145   7.984  17.936  0.00  0.00    +0.071 A 
ATOM     17  C   UNL     1      13.601   9.012  16.267  0.00  0.00    +0.010 A 
ATOM     18  C   UNL     1      11.052   8.432  17.198  0.00  0.00    +0.028 A 
ATOM     19  C   UNL     1      12.490   9.449  15.550  0.00  0.00    +0.001 A 
ATOM     20  C   UNL     1      11.215   9.158  16.016  0.00  0.00    +0.002 A 
ENDBRANCH   8  11
BRANCH   8   3
ATOM      1  O   UNL     1      17.598  10.177  22.054  0.00  0.00    -0.376 OA
ATOM      3  N   UNL     1      16.398   7.706  20.578  0.00  0.00    -0.293 NA
ATOM      5  C   UNL     1      17.748   7.187  20.832  0.00  0.00    +0.118 C 
ATOM      6  C   UNL     1      18.720   8.076  21.622  0.00  0.00    +0.157 C 
ATOM      7  C   UNL     1      15.835   8.487  21.679  0.00  0.00    +0.113 C 
ATOM      9  C   UNL     1      18.628   9.559  21.289  0.00  0.00    +0.192 C 
ATOM     10  C   UNL     1      16.284   9.945  21.568  0.00  0.00    +0.175 C 
BRANCH   6   2
ATOM      2  O   UNL     1      20.051   7.642  21.335  0.00  0.00    -0.376 OA
ATOM     16  C   UNL     1      20.170   6.233  21.453  0.00  0.00    +0.194 C 
ENDBRANCH   6   2
ENDBRANCH   8   3
TORSDOF 3
ENDMDL
MODEL 7
REMARK VINA RESULT:      -6.0     15.432     16.921
REMARK  Name = 75536936
REMARK  4 active torsions:
REMARK  status: ('A' for Active; 'I' for Inactive)
REMARK    1  A    between atoms: O_2  and  C_6
REMARK    2  A    between atoms: O_2  and  C_16
REMARK    3  A    between atoms: N_3  and  C_8
REMARK    4  A    between atoms: C_8  and  C_11
REMARK                            x       y       z     vdW  Elec       q    Type
REMARK                         _______ _______ _______ _____ _____    ______ ____
ROOT
ATOM      8  C   UNL     1       9.589   4.952   4.166  0.00  0.00    +0.121 C 
ENDROOT
BRANCH   8  11
ATOM      4  N   UNL     1      12.781   6.610   2.993  0.00  0.00    -0.255 NA
ATOM     11  C   UNL     1      10.903   5.169   3.464  0.00  0.00    -0.015 A 
ATOM     12  C   UNL     1      11.459   4.185   2.660  0.00  0.00    +0.016 A 
ATOM     13  C   UNL     1      11.598   6.353   3.596  0.00  0.00    +0.116 A 
ATOM     14  C   UNL     1      12.684   4.409   2.016  0.00  0.00    +0.001 A 
ATOM     15  C   UNL     1      13.318   5.653   2.212  0.00  0.00    +0.071 A 
ATOM     17  C   UNL     1      13.273   3.433   1.196  0.00  0.00    +0.010 A 
ATOM     18  C   UNL     1      14.534   5.877   1.572  0.00  0.00    +0.028 A 
ATOM     19  C   UNL     1      14.491   3.683   0.568  0.00  0.00    +0.001 A 
ATOM     20  C   UNL     1      15.121   4.906   0.756  0.00  0.00    +0.002 A 
ENDBRANCH   8  11
BRANCH   8   3
ATOM      1  O   UNL     1       8.414   7.612   7.645  0.00  0.00    -0.376 OA
ATOM      3  N   UNL     1       9.490   5.742   5.393  0.00  0.00    -0.293 NA
ATOM      5  C   UNL     1       9.819   4.910   6.557  0.00  0.00    +0.118 C 
ATOM      6  C   UNL     1       9.404   5.424   7.944  0.00  0.00    +0.157 C 
ATOM      7  C   UNL     1       8.201   6.428   5.487  0.00  0.00    +0.113 C 
ATOM      9  C   UNL     1       9.563   6.927   8.132  0.00  0.00    +0.192 C 
ATOM     10  C   UNL     1       8.367   7.753   6.232  0.00  0.00    +0.175 C 
BRANCH   6   2
ATOM      2  O   UNL     1      10.217   4.769   8.921  0.00  0.00    -0.376 OA
ATOM     16  C   UNL     1       9.525   4.621  10.151  0.00  0.00    +0.194 C 
ENDBRANCH   6   2
ENDBRANCH   8   3
TORSDOF 3
ENDMDL
MODEL 8
REMARK VINA RESULT:      -5.8      3.027      7.086
REMARK  Name = 75536936
REMARK  4 active torsions:
REMARK  status: ('A' for Active; 'I' for Inactive)
REMARK    1  A    between atoms: O_2  and  C_6
REMARK    2  A    between atoms: O_2  and  C_16
REMARK    3  A    between atoms: N_3  and  C_8
REMARK    4  A    between atoms: C_8  and  C_11
REMARK                            x       y       z     vdW  Elec       q    Type
REMARK                         _______ _______ _______ _____ _____    ______ ____
ROOT
ATOM      8  C   UNL     1      12.364  10.900  20.303  0.00  0.00    +0.121 C 
ENDROOT
BRANCH   8  11
ATOM      4  N   UNL     1      12.357  11.456  24.046  0.00  0.00    -0.255 NA
ATOM     11  C   UNL     1      12.068  11.506  21.650  0.00  0.00    -0.015 A 
ATOM     12  C   UNL     1      11.267  12.632  21.772  0.00  0.00    +0.016 A 
ATOM     13  C   UNL     1      12.584  10.961  22.808  0.00  0.00    +0.116 A 
ATOM     14  C   UNL     1      11.006  13.178  23.036  0.00  0.00    +0.001 A 
ATOM     15  C   UNL     1      11.579  12.550  24.161  0.00  0.00    +0.071 A 
ATOM     17  C   UNL     1      10.200  14.317  23.193  0.00  0.00    +0.010 A 
ATOM     18  C   UNL     1      11.319  13.091  25.417  0.00  0.00    +0.028 A 
ATOM     19  C   UNL     1       9.958  14.839  24.461  0.00  0.00    +0.001 A 
ATOM     20  C   UNL     1      10.517  14.225  25.574  0.00  0.00    +0.002 A 
ENDBRANCH   8  11
BRANCH   8   3
ATOM      1  O   UNL     1      11.698   6.416  20.344  0.00  0.00    -0.376 OA
ATOM      3  N   UNL     1      12.451   9.442  20.369  0.00  0.00    -0.293 NA
ATOM      5  C   UNL     1      13.488   8.956  19.451  0.00  0.00    +0.118 C 
ATOM      6  C   UNL     1      13.475   7.465  19.079  0.00  0.00    +0.157 C 
ATOM      7  C   UNL     1      11.141   8.817  20.184  0.00  0.00    +0.113 C 
ATOM      9  C   UNL     1      13.112   6.534  20.228  0.00  0.00    +0.192 C 
ATOM     10  C   UNL     1      11.065   7.515  20.982  0.00  0.00    +0.175 C 
BRANCH   6   2
ATOM      2  O   UNL     1      14.781   7.111  18.620  0.00  0.00    -0.376 OA
ATOM     16  C   UNL     1      15.578   6.599  19.677  0.00  0.00    +0.194 C 
ENDBRANCH   6   2
ENDBRANCH   8   3
TORSDOF 3
ENDMDL
MODEL 9
REMARK VINA RESULT:      -5.8     25.230     27.034
REMARK  Name = 75536936
REMARK  4 active torsions:
REMARK  status: ('A' for Active; 'I' for Inactive)
REMARK    1  A    between atoms: O_2  and  C_6
REMARK    2  A    between atoms: O_2  and  C_16
REMARK    3  A    between atoms: N_3  and  C_8
REMARK    4  A    between atoms: C_8  and  C_11
REMARK                            x       y       z     vdW  Elec       q    Type
REMARK                         _______ _______ _______ _____ _____    ______ ____
ROOT
ATOM      8  C   UNL     1     -10.221   9.521  19.081  0.00  0.00    +0.121 C 
ENDROOT
BRANCH   8  11
ATOM      4  N   UNL     1     -13.414   9.299  21.099  0.00  0.00    -0.255 NA
ATOM     11  C   UNL     1     -11.336   8.955  19.919  0.00  0.00    -0.015 A 
ATOM     12  C   UNL     1     -11.349   7.619  20.292  0.00  0.00    +0.016 A 
ATOM     13  C   UNL     1     -12.384   9.745  20.345  0.00  0.00    +0.116 A 
ATOM     14  C   UNL     1     -12.397   7.114  21.072  0.00  0.00    +0.001 A 
ATOM     15  C   UNL     1     -13.423   8.001  21.459  0.00  0.00    +0.071 A 
ATOM     17  C   UNL     1     -12.439   5.766  21.465  0.00  0.00    +0.010 A 
ATOM     18  C   UNL     1     -14.464   7.500  22.236  0.00  0.00    +0.028 A 
ATOM     19  C   UNL     1     -13.493   5.291  22.241  0.00  0.00    +0.001 A 
ATOM     20  C   UNL     1     -14.506   6.159  22.627  0.00  0.00    +0.002 A 
ENDBRANCH   8  11
BRANCH   8   3
ATOM      1  O   UNL     1     -11.060  11.414  15.047  0.00  0.00    -0.376 OA
ATOM      3  N   UNL     1     -10.680   9.892  17.742  0.00  0.00    -0.293 NA
ATOM      5  C   UNL     1     -10.504   8.766  16.817  0.00  0.00    +0.118 C 
ATOM      6  C   UNL     1     -10.552   9.062  15.311  0.00  0.00    +0.157 C 
ATOM      7  C   UNL     1     -10.068  11.143  17.294  0.00  0.00    +0.113 C 
ATOM      9  C   UNL     1     -11.591  10.100  14.907  0.00  0.00    +0.192 C 
ATOM     10  C   UNL     1     -11.035  11.900  16.381  0.00  0.00    +0.175 C 
BRANCH   6   2
ATOM      2  O   UNL     1     -10.858   7.845  14.629  0.00  0.00    -0.376 OA
ATOM     16  C   UNL     1     -11.911   8.027  13.695  0.00  0.00    +0.194 C 
ENDBRANCH   6   2
ENDBRANCH   8   3
TORSDOF 3
ENDMDL
MODEL 10
REMARK VINA RESULT:      -5.6     25.739     27.925
REMARK  Name = 75536936
REMARK  4 active torsions:
REMARK  status: ('A' for Active; 'I' for Inactive)
REMARK    1  A    between atoms: O_2  and  C_6
REMARK    2  A    between atoms: O_2  and  C_16
REMARK    3  A    between atoms: N_3  and  C_8
REMARK    4  A    between atoms: C_8  and  C_11
REMARK                            x       y       z     vdW  Elec       q    Type
REMARK                         _______ _______ _______ _____ _____    ______ ____
ROOT
ATOM      8  C   UNL     1     -12.468   6.065  21.334  0.00  0.00    +0.121 C 
ENDROOT
BRANCH   8  11
ATOM      4  N   UNL     1     -12.150   9.793  20.769  0.00  0.00    -0.255 NA
ATOM     11  C   UNL     1     -12.097   7.381  20.702  0.00  0.00    -0.015 A 
ATOM     12  C   UNL     1     -11.385   7.432  19.513  0.00  0.00    +0.016 A 
ATOM     13  C   UNL     1     -12.452   8.580  21.285  0.00  0.00    +0.116 A 
ATOM     14  C   UNL     1     -11.051   8.668  18.943  0.00  0.00    +0.001 A 
ATOM     15  C   UNL     1     -11.459   9.839  19.614  0.00  0.00    +0.071 A 
ATOM     17  C   UNL     1     -10.330   8.753  17.740  0.00  0.00    +0.010 A 
ATOM     18  C   UNL     1     -11.128  11.067  19.047  0.00  0.00    +0.028 A 
ATOM     19  C   UNL     1     -10.012   9.994  17.197  0.00  0.00    +0.001 A 
ATOM     20  C   UNL     1     -10.411  11.152  17.851  0.00  0.00    +0.002 A 
ENDBRANCH   8  11
BRANCH   8   3
ATOM      1  O   UNL     1     -16.871   6.249  22.398  0.00  0.00    -0.376 OA
ATOM      3  N   UNL     1     -13.786   6.117  21.966  0.00  0.00    -0.293 NA
ATOM      5  C   UNL     1     -13.930   5.015  22.925  0.00  0.00    +0.118 C 
ATOM      6  C   UNL     1     -15.347   4.658  23.399  0.00  0.00    +0.157 C 
ATOM      7  C   UNL     1     -14.855   6.194  20.971  0.00  0.00    +0.113 C 
ATOM      9  C   UNL     1     -16.257   5.859  23.621  0.00  0.00    +0.192 C 
ATOM     10  C   UNL     1     -16.032   6.996  21.529  0.00  0.00    +0.175 C 
BRANCH   6   2
ATOM      2  O   UNL     1     -15.237   3.953  24.637  0.00  0.00    -0.376 OA
ATOM     16  C   UNL     1     -16.184   2.900  24.716  0.00  0.00    +0.194 C 
ENDBRANCH   6   2
ENDBRANCH   8   3
TORSDOF 3
ENDMDL
