REMARK  Name = 75536809
REMARK  11 active torsions:
REMARK  status: ('A' for Active; 'I' for Inactive)
REMARK    1  A    between atoms: O_2  and  C_8
REMARK    2  A    between atoms: N_4  and  C_7
REMARK    3  A    between atoms: N_4  and  C_14
REMARK    4  A    between atoms: N_5  and  C_11
REMARK    5  A    between atoms: C_9  and  C_11
REMARK    6  A    between atoms: C_12  and  C_13
REMARK    7  A    between atoms: C_12  and  C_16
REMARK    8  A    between atoms: C_12  and  C_17
REMARK    9  A    between atoms: C_12  and  C_18
REMARK   10  A    between atoms: C_13  and  C_15
REMARK   11  A    between atoms: C_14  and  C_19
REMARK                            x       y       z     vdW  Elec       q    Type
REMARK                         _______ _______ _______ _____ _____    ______ ____
ROOT
ATOM      1  O   UNL     1       1.147   0.192   0.015  0.00  0.00    -0.371 OA
ATOM      7  C   UNL     1      -1.055  -0.553   0.500  0.00  0.00    +0.111 C 
ATOM      8  C   UNL     1      -0.265  -1.701  -0.101  0.00  0.00    +0.164 C 
ATOM      9  C   UNL     1       1.163  -1.238   0.152  0.00  0.00    +0.165 C 
ATOM     10  C   UNL     1      -0.217   0.642   0.077  0.00  0.00    +0.181 C 
ENDROOT
BRANCH   8   2
ATOM      2  O   UNL     1      -0.537  -2.939   0.526  0.00  0.00    -0.388 OA
ATOM     26  H   UNL     1      -0.359  -2.846   1.477  0.00  0.00    +0.210 HD
ENDBRANCH   8   2
BRANCH   7   4
ATOM      4  N   UNL     1      -2.428  -0.479   0.026  0.00  0.00    -0.305 NA
ATOM     24  H   UNL     1      -2.838  -1.413   0.048  0.00  0.00    +0.123 HD
BRANCH   4  14
ATOM     14  C   UNL     1      -3.225   0.407   0.867  0.00  0.00    +0.116 C 
BRANCH  14  19
ATOM      6  N   UNL     1      -7.287   0.700  -0.519  0.00  0.00    -0.263 NA
ATOM     19  C   UNL     1      -4.647   0.509   0.381  0.00  0.00    -0.031 A 
ATOM     20  C   UNL     1      -4.950   1.286  -0.732  0.00  0.00    +0.024 A 
ATOM     21  C   UNL     1      -5.662  -0.172   1.044  0.00  0.00    +0.024 A 
ATOM     22  C   UNL     1      -6.274   1.348  -1.138  0.00  0.00    +0.111 A 
ATOM     23  C   UNL     1      -6.953  -0.045   0.559  0.00  0.00    +0.111 A 
ENDBRANCH  14  19
ENDBRANCH   4  14
ENDBRANCH   7   4
BRANCH   9  11
ATOM     11  C   UNL     1       2.168  -1.835  -0.817  0.00  0.00    +0.138 C 
BRANCH  11   5
ATOM      3  O   UNL     1       3.470   0.506  -1.918  0.00  0.00    -0.276 OA
ATOM      5  N   UNL     1       3.508  -1.368  -0.544  0.00  0.00    -0.313 N 
ATOM     15  C   UNL     1       4.047  -0.230  -1.121  0.00  0.00    +0.214 C 
ATOM     25  H   UNL     1       4.067  -1.905   0.113  0.00  0.00    +0.149 HD
BRANCH  15  13
ATOM     13  C   UNL     1       5.476   0.042  -0.677  0.00  0.00    +0.102 C 
BRANCH  13  12
ATOM     12  C   UNL     1       5.605   0.976   0.549  0.00  0.00    -0.029 C 
ATOM     16  C   UNL     1       7.080   1.206   0.917  0.00  0.00    +0.011 C 
ATOM     17  C   UNL     1       4.977   2.335   0.182  0.00  0.00    +0.011 C 
ATOM     18  C   UNL     1       4.860   0.410   1.769  0.00  0.00    +0.011 C 
ENDBRANCH  13  12
ENDBRANCH  15  13
ENDBRANCH  11   5
ENDBRANCH   9  11
TORSDOF 8
