MODEL 1
REMARK VINA RESULT:      -7.3      0.000      0.000
REMARK  Name = 11867175
REMARK  6 active torsions:
REMARK  status: ('A' for Active; 'I' for Inactive)
REMARK    1  A    between atoms: S_1  and  N_10
REMARK    2  A    between atoms: S_1  and  C_29
REMARK    3  A    between atoms: O_6  and  C_34
REMARK    4  A    between atoms: O_6  and  C_35
REMARK    5  A    between atoms: N_9  and  C_20
REMARK    6  A    between atoms: N_10  and  C_24
REMARK                            x       y       z     vdW  Elec       q    Type
REMARK                         _______ _______ _______ _____ _____    ______ ____
ROOT
ATOM      2  O   UNL     1      10.466   3.815   4.591  0.00  0.00    -0.253 OA
ATOM      3  O   UNL     1      14.192   6.792   6.681  0.00  0.00    -0.266 OA
ATOM      7  N   UNL     1       9.584   5.928   4.951  0.00  0.00    -0.285 N 
ATOM      8  N   UNL     1      12.056   7.551   6.087  0.00  0.00    -0.310 N 
ATOM      9  N   UNL     1      10.267   5.228   2.797  0.00  0.00    -0.296 N 
ATOM     11  C   UNL     1       9.921   6.780   7.270  0.00  0.00    +0.027 C 
ATOM     12  C   UNL     1       9.773   8.365   5.393  0.00  0.00    +0.054 C 
ATOM     13  C   UNL     1       9.367   8.136   6.848  0.00  0.00    +0.018 C 
ATOM     14  C   UNL     1       9.356   5.661   6.374  0.00  0.00    +0.114 C 
ATOM     15  C   UNL     1       9.150   7.265   4.510  0.00  0.00    +0.119 C 
ATOM     16  C   UNL     1      11.453   6.837   7.220  0.00  0.00    +0.130 C 
ATOM     17  C   UNL     1      11.283   8.356   5.238  0.00  0.00    +0.027 A 
ATOM     18  C   UNL     1      10.125   4.915   4.143  0.00  0.00    +0.302 C 
ATOM     19  C   UNL     1      11.868   9.090   4.274  0.00  0.00    +0.024 A 
ATOM     21  C   UNL     1      13.458   7.466   5.959  0.00  0.00    +0.274 A 
ATOM     24  C   UNL     1      14.042   8.279   4.863  0.00  0.00    +0.112 A 
ATOM     27  C   UNL     1      13.292   9.053   4.077  0.00  0.00    +0.031 A 
ATOM     36  H   UNL     1      10.088   6.160   2.452  0.00  0.00    +0.151 HD
ENDROOT
BRANCH   9  20
ATOM     20  C   UNL     1      10.817   4.291   1.846  0.00  0.00    +0.074 C 
ATOM     22  C   UNL     1      10.523   4.740   0.412  0.00  0.00    +0.022 C 
ATOM     23  C   UNL     1      12.319   4.113   2.078  0.00  0.00    +0.022 C 
ATOM     25  C   UNL     1      11.143   3.791  -0.611  0.00  0.00    +0.002 C 
ATOM     26  C   UNL     1      12.938   3.168   1.052  0.00  0.00    +0.002 C 
ATOM     28  C   UNL     1      12.640   3.614  -0.377  0.00  0.00    +0.000 C 
ENDBRANCH   9  20
BRANCH  24  10
ATOM     10  N   UNL     1      15.429   8.266   4.633  0.00  0.00    -0.211 N 
ATOM     37  H   UNL     1      15.853   7.342   4.803  0.00  0.00    +0.174 HD
BRANCH  10   1
ATOM      1  S   UNL     1      16.324   9.571   5.235  0.00  0.00    +0.073 S 
ATOM      4  O   UNL     1      16.350  10.639   4.254  0.00  0.00    -0.150 OA
ATOM      5  O   UNL     1      15.926   9.845   6.603  0.00  0.00    -0.150 OA
BRANCH   1  29
ATOM     29  C   UNL     1      17.943   8.863   5.288  0.00  0.00    +0.109 A 
ATOM     30  C   UNL     1      18.456   8.264   4.151  0.00  0.00    +0.032 A 
ATOM     31  C   UNL     1      18.668   8.923   6.466  0.00  0.00    +0.032 A 
ATOM     32  C   UNL     1      19.733   7.704   4.193  0.00  0.00    +0.047 A 
ATOM     33  C   UNL     1      19.945   8.364   6.508  0.00  0.00    +0.047 A 
ATOM     34  C   UNL     1      20.478   7.754   5.371  0.00  0.00    +0.120 A 
BRANCH  34   6
ATOM      6  O   UNL     1      21.725   7.210   5.412  0.00  0.00    -0.495 OA
ATOM     35  C   UNL     1      22.174   6.529   4.242  0.00  0.00    +0.277 C 
ENDBRANCH  34   6
ENDBRANCH   1  29
ENDBRANCH  10   1
ENDBRANCH  24  10
TORSDOF 5
ENDMDL
MODEL 2
REMARK VINA RESULT:      -7.1      3.117      7.681
REMARK  Name = 11867175
REMARK  6 active torsions:
REMARK  status: ('A' for Active; 'I' for Inactive)
REMARK    1  A    between atoms: S_1  and  N_10
REMARK    2  A    between atoms: S_1  and  C_29
REMARK    3  A    between atoms: O_6  and  C_34
REMARK    4  A    between atoms: O_6  and  C_35
REMARK    5  A    between atoms: N_9  and  C_20
REMARK    6  A    between atoms: N_10  and  C_24
REMARK                            x       y       z     vdW  Elec       q    Type
REMARK                         _______ _______ _______ _____ _____    ______ ____
ROOT
ATOM      2  O   UNL     1      14.432   8.538   1.519  0.00  0.00    -0.253 OA
ATOM      3  O   UNL     1      11.648   9.704   5.762  0.00  0.00    -0.266 OA
ATOM      7  N   UNL     1      15.862   8.537   3.344  0.00  0.00    -0.285 N 
ATOM      8  N   UNL     1      13.921   9.135   5.775  0.00  0.00    -0.310 N 
ATOM      9  N   UNL     1      15.050   6.519   2.413  0.00  0.00    -0.296 N 
ATOM     11  C   UNL     1      15.734  10.607   4.727  0.00  0.00    +0.027 C 
ATOM     12  C   UNL     1      16.352   8.469   5.778  0.00  0.00    +0.054 C 
ATOM     13  C   UNL     1      16.652   9.967   5.762  0.00  0.00    +0.018 C 
ATOM     14  C   UNL     1      15.980   9.998   3.334  0.00  0.00    +0.114 C 
ATOM     15  C   UNL     1      16.659   7.873   4.390  0.00  0.00    +0.119 C 
ATOM     16  C   UNL     1      14.280  10.431   5.182  0.00  0.00    +0.130 C 
ATOM     17  C   UNL     1      14.903   8.204   6.143  0.00  0.00    +0.027 A 
ATOM     18  C   UNL     1      15.074   7.907   2.366  0.00  0.00    +0.302 C 
ATOM     19  C   UNL     1      14.563   7.073   6.785  0.00  0.00    +0.024 A 
ATOM     21  C   UNL     1      12.553   8.920   6.045  0.00  0.00    +0.274 A 
ATOM     24  C   UNL     1      12.239   7.643   6.733  0.00  0.00    +0.112 A 
ATOM     27  C   UNL     1      13.189   6.779   7.092  0.00  0.00    +0.031 A 
ATOM     36  H   UNL     1      15.488   6.010   3.167  0.00  0.00    +0.151 HD
ENDROOT
BRANCH   9  20
ATOM     20  C   UNL     1      14.278   5.735   1.479  0.00  0.00    +0.074 C 
ATOM     22  C   UNL     1      15.059   4.494   1.037  0.00  0.00    +0.022 C 
ATOM     23  C   UNL     1      12.926   5.354   2.089  0.00  0.00    +0.022 C 
ATOM     25  C   UNL     1      14.239   3.621   0.091  0.00  0.00    +0.002 C 
ATOM     26  C   UNL     1      12.110   4.478   1.142  0.00  0.00    +0.002 C 
ATOM     28  C   UNL     1      12.892   3.245   0.700  0.00  0.00    +0.000 C 
ENDBRANCH   9  20
BRANCH  24  10
ATOM     10  N   UNL     1      10.907   7.316   7.045  0.00  0.00    -0.211 N 
ATOM     37  H   UNL     1      10.767   7.127   8.048  0.00  0.00    +0.174 HD
BRANCH  10   1
ATOM      1  S   UNL     1      10.114   6.238   6.009  0.00  0.00    +0.073 S 
ATOM      4  O   UNL     1      11.078   5.611   5.125  0.00  0.00    -0.150 OA
ATOM      5  O   UNL     1       9.183   5.426   6.771  0.00  0.00    -0.150 OA
BRANCH   1  29
ATOM     29  C   UNL     1       9.158   7.362   5.035  0.00  0.00    +0.109 A 
ATOM     30  C   UNL     1       8.414   8.341   5.669  0.00  0.00    +0.032 A 
ATOM     31  C   UNL     1       9.171   7.240   3.656  0.00  0.00    +0.032 A 
ATOM     32  C   UNL     1       7.659   9.228   4.901  0.00  0.00    +0.047 A 
ATOM     33  C   UNL     1       8.416   8.127   2.887  0.00  0.00    +0.047 A 
ATOM     34  C   UNL     1       7.660   9.120   3.510  0.00  0.00    +0.120 A 
BRANCH  34   6
ATOM      6  O   UNL     1       6.924   9.985   2.760  0.00  0.00    -0.495 OA
ATOM     35  C   UNL     1       5.551  10.144   3.112  0.00  0.00    +0.277 C 
ENDBRANCH  34   6
ENDBRANCH   1  29
ENDBRANCH  10   1
ENDBRANCH  24  10
TORSDOF 5
ENDMDL
MODEL 3
REMARK VINA RESULT:      -7.1     25.600     29.577
REMARK  Name = 11867175
REMARK  6 active torsions:
REMARK  status: ('A' for Active; 'I' for Inactive)
REMARK    1  A    between atoms: S_1  and  N_10
REMARK    2  A    between atoms: S_1  and  C_29
REMARK    3  A    between atoms: O_6  and  C_34
REMARK    4  A    between atoms: O_6  and  C_35
REMARK    5  A    between atoms: N_9  and  C_20
REMARK    6  A    between atoms: N_10  and  C_24
REMARK                            x       y       z     vdW  Elec       q    Type
REMARK                         _______ _______ _______ _____ _____    ______ ____
ROOT
ATOM      2  O   UNL     1      -7.724 -15.198  17.019  0.00  0.00    -0.253 OA
ATOM      3  O   UNL     1      -3.968 -11.755  18.090  0.00  0.00    -0.266 OA
ATOM      7  N   UNL     1      -8.729 -13.187  17.586  0.00  0.00    -0.285 N 
ATOM      8  N   UNL     1      -6.258 -11.260  18.055  0.00  0.00    -0.310 N 
ATOM      9  N   UNL     1      -8.532 -13.874  15.330  0.00  0.00    -0.296 N 
ATOM     11  C   UNL     1      -7.922 -12.229  19.742  0.00  0.00    +0.027 C 
ATOM     12  C   UNL     1      -8.721 -10.731  17.960  0.00  0.00    +0.054 C 
ATOM     13  C   UNL     1      -8.719 -10.958  19.471  0.00  0.00    +0.018 C 
ATOM     14  C   UNL     1      -8.559 -13.432  19.021  0.00  0.00    +0.114 C 
ATOM     15  C   UNL     1      -9.413 -11.922  17.267  0.00  0.00    +0.119 C 
ATOM     16  C   UNL     1      -6.469 -12.001  19.306  0.00  0.00    +0.130 C 
ATOM     17  C   UNL     1      -7.309 -10.575  17.428  0.00  0.00    +0.027 A 
ATOM     18  C   UNL     1      -8.293 -14.158  16.670  0.00  0.00    +0.302 C 
ATOM     19  C   UNL     1      -7.075  -9.811  16.346  0.00  0.00    +0.024 A 
ATOM     21  C   UNL     1      -4.933 -11.191  17.576  0.00  0.00    +0.274 A 
ATOM     24  C   UNL     1      -4.743 -10.352  16.366  0.00  0.00    +0.112 A 
ATOM     27  C   UNL     1      -5.751  -9.694  15.794  0.00  0.00    +0.031 A 
ATOM     36  H   UNL     1      -8.900 -12.980  15.040  0.00  0.00    +0.151 HD
ENDROOT
BRANCH   9  20
ATOM     20  C   UNL     1      -8.133 -14.772  14.274  0.00  0.00    +0.074 C 
ATOM     22  C   UNL     1      -9.215 -14.853  13.193  0.00  0.00    +0.022 C 
ATOM     23  C   UNL     1      -6.788 -14.341  13.684  0.00  0.00    +0.022 C 
ATOM     25  C   UNL     1      -8.790 -15.756  12.039  0.00  0.00    +0.002 C 
ATOM     26  C   UNL     1      -6.367 -15.243  12.527  0.00  0.00    +0.002 C 
ATOM     28  C   UNL     1      -7.448 -15.326  11.454  0.00  0.00    +0.000 C 
ENDBRANCH   9  20
BRANCH  24  10
ATOM     10  N   UNL     1      -3.466 -10.216  15.793  0.00  0.00    -0.211 N 
ATOM     37  H   UNL     1      -3.299  -9.275  15.409  0.00  0.00    +0.174 HD
BRANCH  10   1
ATOM      1  S   UNL     1      -2.922 -11.483  14.810  0.00  0.00    +0.073 S 
ATOM      4  O   UNL     1      -1.509 -11.710  15.043  0.00  0.00    -0.150 OA
ATOM      5  O   UNL     1      -3.861 -12.588  14.876  0.00  0.00    -0.150 OA
BRANCH   1  29
ATOM     29  C   UNL     1      -3.083 -10.749  13.209  0.00  0.00    +0.109 A 
ATOM     30  C   UNL     1      -4.344 -10.589  12.663  0.00  0.00    +0.032 A 
ATOM     31  C   UNL     1      -1.943 -10.349  12.533  0.00  0.00    +0.032 A 
ATOM     32  C   UNL     1      -4.471 -10.012  11.400  0.00  0.00    +0.047 A 
ATOM     33  C   UNL     1      -2.070  -9.771  11.269  0.00  0.00    +0.047 A 
ATOM     34  C   UNL     1      -3.333  -9.603  10.703  0.00  0.00    +0.120 A 
BRANCH  34   6
ATOM      6  O   UNL     1      -3.456  -9.037   9.471  0.00  0.00    -0.495 OA
ATOM     35  C   UNL     1      -4.663  -9.298   8.755  0.00  0.00    +0.277 C 
ENDBRANCH  34   6
ENDBRANCH   1  29
ENDBRANCH  10   1
ENDBRANCH  24  10
TORSDOF 5
ENDMDL
MODEL 4
REMARK VINA RESULT:      -7.0      4.405      7.852
REMARK  Name = 11867175
REMARK  6 active torsions:
REMARK  status: ('A' for Active; 'I' for Inactive)
REMARK    1  A    between atoms: S_1  and  N_10
REMARK    2  A    between atoms: S_1  and  C_29
REMARK    3  A    between atoms: O_6  and  C_34
REMARK    4  A    between atoms: O_6  and  C_35
REMARK    5  A    between atoms: N_9  and  C_20
REMARK    6  A    between atoms: N_10  and  C_24
REMARK                            x       y       z     vdW  Elec       q    Type
REMARK                         _______ _______ _______ _____ _____    ______ ____
ROOT
ATOM      2  O   UNL     1      12.899   6.392  -2.026  0.00  0.00    -0.253 OA
ATOM      3  O   UNL     1      12.289   7.618   2.998  0.00  0.00    -0.266 OA
ATOM      7  N   UNL     1      13.446   4.531  -0.756  0.00  0.00    -0.285 N 
ATOM      8  N   UNL     1      12.870   5.491   2.207  0.00  0.00    -0.310 N 
ATOM      9  N   UNL     1      11.358   4.704  -1.857  0.00  0.00    -0.296 N 
ATOM     11  C   UNL     1      15.099   4.992   1.052  0.00  0.00    +0.027 C 
ATOM     12  C   UNL     1      13.442   3.195   1.337  0.00  0.00    +0.054 C 
ATOM     13  C   UNL     1      14.899   3.580   1.589  0.00  0.00    +0.018 C 
ATOM     14  C   UNL     1      14.783   5.048  -0.456  0.00  0.00    +0.114 C 
ATOM     15  C   UNL     1      13.167   3.204  -0.179  0.00  0.00    +0.119 C 
ATOM     16  C   UNL     1      14.220   5.955   1.859  0.00  0.00    +0.130 C 
ATOM     17  C   UNL     1      12.495   4.150   2.039  0.00  0.00    +0.027 A 
ATOM     18  C   UNL     1      12.590   5.282  -1.579  0.00  0.00    +0.302 C 
ATOM     19  C   UNL     1      11.294   3.720   2.466  0.00  0.00    +0.024 A 
ATOM     21  C   UNL     1      12.012   6.435   2.808  0.00  0.00    +0.274 A 
ATOM     24  C   UNL     1      10.693   5.905   3.237  0.00  0.00    +0.112 A 
ATOM     27  C   UNL     1      10.361   4.623   3.085  0.00  0.00    +0.031 A 
ATOM     36  H   UNL     1      11.066   3.848  -1.408  0.00  0.00    +0.151 HD
ENDROOT
BRANCH   9  20
ATOM     20  C   UNL     1      10.371   5.361  -2.680  0.00  0.00    +0.074 C 
ATOM     22  C   UNL     1      10.021   4.500  -3.898  0.00  0.00    +0.022 C 
ATOM     23  C   UNL     1       9.125   5.695  -1.857  0.00  0.00    +0.022 C 
ATOM     25  C   UNL     1       8.939   5.152  -4.754  0.00  0.00    +0.002 C 
ATOM     26  C   UNL     1       8.042   6.344  -2.716  0.00  0.00    +0.002 C 
ATOM     28  C   UNL     1       7.698   5.487  -3.931  0.00  0.00    +0.000 C 
ENDBRANCH   9  20
BRANCH  24  10
ATOM     10  N   UNL     1       9.750   6.756   3.840  0.00  0.00    -0.211 N 
ATOM     37  H   UNL     1       9.939   7.753   3.659  0.00  0.00    +0.174 HD
BRANCH  10   1
ATOM      1  S   UNL     1       9.300   6.404   5.433  0.00  0.00    +0.073 S 
ATOM      4  O   UNL     1       7.921   5.955   5.464  0.00  0.00    -0.150 OA
ATOM      5  O   UNL     1      10.339   5.617   6.070  0.00  0.00    -0.150 OA
BRANCH   1  29
ATOM     29  C   UNL     1       9.345   8.019   6.153  0.00  0.00    +0.109 A 
ATOM     30  C   UNL     1       9.415   8.143   7.529  0.00  0.00    +0.032 A 
ATOM     31  C   UNL     1       9.309   9.127   5.325  0.00  0.00    +0.032 A 
ATOM     32  C   UNL     1       9.450   9.417   8.096  0.00  0.00    +0.047 A 
ATOM     33  C   UNL     1       9.344  10.402   5.892  0.00  0.00    +0.047 A 
ATOM     34  C   UNL     1       9.414  10.546   7.278  0.00  0.00    +0.120 A 
BRANCH  34   6
ATOM      6  O   UNL     1       9.450  11.789   7.831  0.00  0.00    -0.495 OA
ATOM     35  C   UNL     1       8.823  12.842   7.100  0.00  0.00    +0.277 C 
ENDBRANCH  34   6
ENDBRANCH   1  29
ENDBRANCH  10   1
ENDBRANCH  24  10
TORSDOF 5
ENDMDL
MODEL 5
REMARK VINA RESULT:      -6.9      2.863      5.929
REMARK  Name = 11867175
REMARK  6 active torsions:
REMARK  status: ('A' for Active; 'I' for Inactive)
REMARK    1  A    between atoms: S_1  and  N_10
REMARK    2  A    between atoms: S_1  and  C_29
REMARK    3  A    between atoms: O_6  and  C_34
REMARK    4  A    between atoms: O_6  and  C_35
REMARK    5  A    between atoms: N_9  and  C_20
REMARK    6  A    between atoms: N_10  and  C_24
REMARK                            x       y       z     vdW  Elec       q    Type
REMARK                         _______ _______ _______ _____ _____    ______ ____
ROOT
ATOM      2  O   UNL     1       8.598   9.991   6.535  0.00  0.00    -0.253 OA
ATOM      3  O   UNL     1      12.620   8.594   3.537  0.00  0.00    -0.266 OA
ATOM      7  N   UNL     1       9.126   7.785   7.016  0.00  0.00    -0.285 N 
ATOM      8  N   UNL     1      11.649   7.236   5.181  0.00  0.00    -0.310 N 
ATOM      9  N   UNL     1       9.795   9.553   8.440  0.00  0.00    -0.296 N 
ATOM     11  C   UNL     1       9.265   6.319   5.005  0.00  0.00    +0.027 C 
ATOM     12  C   UNL     1      10.628   5.808   6.990  0.00  0.00    +0.054 C 
ATOM     13  C   UNL     1       9.790   5.183   5.875  0.00  0.00    +0.018 C 
ATOM     14  C   UNL     1       8.407   7.289   5.840  0.00  0.00    +0.114 C 
ATOM     15  C   UNL     1       9.734   6.729   7.844  0.00  0.00    +0.119 C 
ATOM     16  C   UNL     1      10.457   7.027   4.348  0.00  0.00    +0.130 C 
ATOM     17  C   UNL     1      11.791   6.599   6.423  0.00  0.00    +0.027 A 
ATOM     18  C   UNL     1       9.134   9.165   7.281  0.00  0.00    +0.302 C 
ATOM     19  C   UNL     1      12.935   6.714   7.120  0.00  0.00    +0.024 A 
ATOM     21  C   UNL     1      12.678   8.025   4.626  0.00  0.00    +0.274 A 
ATOM     24  C   UNL     1      13.906   8.132   5.454  0.00  0.00    +0.112 A 
ATOM     27  C   UNL     1      14.029   7.505   6.624  0.00  0.00    +0.031 A 
ATOM     36  H   UNL     1      10.321   8.891   8.992  0.00  0.00    +0.151 HD
ENDROOT
BRANCH   9  20
ATOM     20  C   UNL     1       9.895  10.936   8.838  0.00  0.00    +0.074 C 
ATOM     22  C   UNL     1       8.990  11.221  10.040  0.00  0.00    +0.022 C 
ATOM     23  C   UNL     1      11.350  11.305   9.137  0.00  0.00    +0.022 C 
ATOM     25  C   UNL     1       9.120  12.666  10.513  0.00  0.00    +0.002 C 
ATOM     26  C   UNL     1      11.478  12.749   9.613  0.00  0.00    +0.002 C 
ATOM     28  C   UNL     1      10.572  13.031  10.808  0.00  0.00    +0.000 C 
ENDBRANCH   9  20
BRANCH  24  10
ATOM     10  N   UNL     1      14.996   8.901   5.007  0.00  0.00    -0.211 N 
ATOM     37  H   UNL     1      14.753   9.892   4.864  0.00  0.00    +0.174 HD
BRANCH  10   1
ATOM      1  S   UNL     1      15.966   8.231   3.792  0.00  0.00    +0.073 S 
ATOM      4  O   UNL     1      15.612   6.838   3.596  0.00  0.00    -0.150 OA
ATOM      5  O   UNL     1      16.023   9.137   2.660  0.00  0.00    -0.150 OA
BRANCH   1  29
ATOM     29  C   UNL     1      17.549   8.268   4.577  0.00  0.00    +0.109 A 
ATOM     30  C   UNL     1      17.638   8.665   5.900  0.00  0.00    +0.032 A 
ATOM     31  C   UNL     1      18.670   7.899   3.854  0.00  0.00    +0.032 A 
ATOM     32  C   UNL     1      18.887   8.695   6.520  0.00  0.00    +0.047 A 
ATOM     33  C   UNL     1      19.920   7.930   4.474  0.00  0.00    +0.047 A 
ATOM     34  C   UNL     1      20.028   8.327   5.807  0.00  0.00    +0.120 A 
BRANCH  34   6
ATOM      6  O   UNL     1      21.247   8.355   6.411  0.00  0.00    -0.495 OA
ATOM     35  C   UNL     1      22.270   9.120   5.773  0.00  0.00    +0.277 C 
ENDBRANCH  34   6
ENDBRANCH   1  29
ENDBRANCH  10   1
ENDBRANCH  24  10
TORSDOF 5
ENDMDL
MODEL 6
REMARK VINA RESULT:      -6.9      2.926      6.750
REMARK  Name = 11867175
REMARK  6 active torsions:
REMARK  status: ('A' for Active; 'I' for Inactive)
REMARK    1  A    between atoms: S_1  and  N_10
REMARK    2  A    between atoms: S_1  and  C_29
REMARK    3  A    between atoms: O_6  and  C_34
REMARK    4  A    between atoms: O_6  and  C_35
REMARK    5  A    between atoms: N_9  and  C_20
REMARK    6  A    between atoms: N_10  and  C_24
REMARK                            x       y       z     vdW  Elec       q    Type
REMARK                         _______ _______ _______ _____ _____    ______ ____
ROOT
ATOM      2  O   UNL     1      12.581   9.737   6.219  0.00  0.00    -0.253 OA
ATOM      3  O   UNL     1       8.882   8.272   2.860  0.00  0.00    -0.266 OA
ATOM      7  N   UNL     1      11.550   7.840   7.063  0.00  0.00    -0.285 N 
ATOM      8  N   UNL     1       9.464   7.092   4.800  0.00  0.00    -0.310 N 
ATOM      9  N   UNL     1      13.658   7.726   5.995  0.00  0.00    -0.296 N 
ATOM     11  C   UNL     1       9.064   8.001   7.159  0.00  0.00    +0.027 C 
ATOM     12  C   UNL     1      10.138   5.807   6.861  0.00  0.00    +0.054 C 
ATOM     13  C   UNL     1       8.988   6.532   7.559  0.00  0.00    +0.018 C 
ATOM     14  C   UNL     1      10.415   8.609   7.582  0.00  0.00    +0.114 C 
ATOM     15  C   UNL     1      11.479   6.395   7.342  0.00  0.00    +0.119 C 
ATOM     16  C   UNL     1       8.832   8.113   5.647  0.00  0.00    +0.130 C 
ATOM     17  C   UNL     1      10.031   5.935   5.352  0.00  0.00    +0.027 A 
ATOM     18  C   UNL     1      12.596   8.517   6.416  0.00  0.00    +0.302 C 
ATOM     19  C   UNL     1      10.505   4.961   4.555  0.00  0.00    +0.024 A 
ATOM     21  C   UNL     1       9.381   7.288   3.405  0.00  0.00    +0.274 A 
ATOM     24  C   UNL     1       9.943   6.189   2.580  0.00  0.00    +0.112 A 
ATOM     27  C   UNL     1      10.461   5.089   3.124  0.00  0.00    +0.031 A 
ATOM     36  H   UNL     1      13.622   6.719   6.061  0.00  0.00    +0.151 HD
ENDROOT
BRANCH   9  20
ATOM     20  C   UNL     1      14.800   8.279   5.308  0.00  0.00    +0.074 C 
ATOM     22  C   UNL     1      16.015   8.343   6.239  0.00  0.00    +0.022 C 
ATOM     23  C   UNL     1      15.109   7.471   4.045  0.00  0.00    +0.022 C 
ATOM     25  C   UNL     1      17.249   8.874   5.516  0.00  0.00    +0.002 C 
ATOM     26  C   UNL     1      16.346   8.001   3.326  0.00  0.00    +0.002 C 
ATOM     28  C   UNL     1      17.553   8.068   4.256  0.00  0.00    +0.000 C 
ENDBRANCH   9  20
BRANCH  24  10
ATOM     10  N   UNL     1       9.925   6.279   1.176  0.00  0.00    -0.211 N 
ATOM     37  H   UNL     1       9.152   6.862   0.823  0.00  0.00    +0.174 HD
BRANCH  10   1
ATOM      1  S   UNL     1      10.178   4.847   0.308  0.00  0.00    +0.073 S 
ATOM      4  O   UNL     1       9.732   3.713   1.095  0.00  0.00    -0.150 OA
ATOM      5  O   UNL     1       9.716   5.017  -1.056  0.00  0.00    -0.150 OA
BRANCH   1  29
ATOM     29  C   UNL     1      11.945   4.798   0.265  0.00  0.00    +0.109 A 
ATOM     30  C   UNL     1      12.593   3.603   0.527  0.00  0.00    +0.032 A 
ATOM     31  C   UNL     1      12.645   5.954  -0.031  0.00  0.00    +0.032 A 
ATOM     32  C   UNL     1      13.988   3.565   0.493  0.00  0.00    +0.047 A 
ATOM     33  C   UNL     1      14.039   5.915  -0.065  0.00  0.00    +0.047 A 
ATOM     34  C   UNL     1      14.710   4.720   0.197  0.00  0.00    +0.120 A 
BRANCH  34   6
ATOM      6  O   UNL     1      16.071   4.683   0.163  0.00  0.00    -0.495 OA
ATOM     35  C   UNL     1      16.682   4.492  -1.112  0.00  0.00    +0.277 C 
ENDBRANCH  34   6
ENDBRANCH   1  29
ENDBRANCH  10   1
ENDBRANCH  24  10
TORSDOF 5
ENDMDL
MODEL 7
REMARK VINA RESULT:      -6.9      3.145      7.569
REMARK  Name = 11867175
REMARK  6 active torsions:
REMARK  status: ('A' for Active; 'I' for Inactive)
REMARK    1  A    between atoms: S_1  and  N_10
REMARK    2  A    between atoms: S_1  and  C_29
REMARK    3  A    between atoms: O_6  and  C_34
REMARK    4  A    between atoms: O_6  and  C_35
REMARK    5  A    between atoms: N_9  and  C_20
REMARK    6  A    between atoms: N_10  and  C_24
REMARK                            x       y       z     vdW  Elec       q    Type
REMARK                         _______ _______ _______ _____ _____    ______ ____
ROOT
ATOM      2  O   UNL     1      11.982  10.088   3.997  0.00  0.00    -0.253 OA
ATOM      3  O   UNL     1       9.812   6.449   0.969  0.00  0.00    -0.266 OA
ATOM      7  N   UNL     1      10.589   8.787   5.317  0.00  0.00    -0.285 N 
ATOM      8  N   UNL     1       9.515   6.604   3.288  0.00  0.00    -0.310 N 
ATOM      9  N   UNL     1      12.936   8.486   5.331  0.00  0.00    -0.296 N 
ATOM     11  C   UNL     1       8.279   8.544   4.411  0.00  0.00    +0.027 C 
ATOM     12  C   UNL     1       9.248   6.751   5.791  0.00  0.00    +0.054 C 
ATOM     13  C   UNL     1       7.963   7.526   5.501  0.00  0.00    +0.018 C 
ATOM     14  C   UNL     1       9.391   9.505   4.873  0.00  0.00    +0.114 C 
ATOM     15  C   UNL     1      10.326   7.725   6.304  0.00  0.00    +0.119 C 
ATOM     16  C   UNL     1       8.665   7.792   3.131  0.00  0.00    +0.130 C 
ATOM     17  C   UNL     1       9.748   6.036   4.549  0.00  0.00    +0.027 A 
ATOM     18  C   UNL     1      11.844   9.184   4.828  0.00  0.00    +0.302 C 
ATOM     19  C   UNL     1      10.436   4.886   4.662  0.00  0.00    +0.024 A 
ATOM     21  C   UNL     1       9.997   6.010   2.103  0.00  0.00    +0.274 A 
ATOM     24  C   UNL     1      10.769   4.756   2.295  0.00  0.00    +0.112 A 
ATOM     27  C   UNL     1      10.965   4.222   3.501  0.00  0.00    +0.031 A 
ATOM     36  H   UNL     1      12.815   7.681   5.928  0.00  0.00    +0.151 HD
ENDROOT
BRANCH   9  20
ATOM     20  C   UNL     1      14.287   8.776   4.916  0.00  0.00    +0.074 C 
ATOM     22  C   UNL     1      15.235   8.779   6.119  0.00  0.00    +0.022 C 
ATOM     23  C   UNL     1      14.745   7.778   3.849  0.00  0.00    +0.022 C 
ATOM     25  C   UNL     1      16.680   9.029   5.695  0.00  0.00    +0.002 C 
ATOM     26  C   UNL     1      16.191   8.027   3.430  0.00  0.00    +0.002 C 
ATOM     28  C   UNL     1      17.133   8.034   4.630  0.00  0.00    +0.000 C 
ENDBRANCH   9  20
BRANCH  24  10
ATOM     10  N   UNL     1      11.307   4.080   1.186  0.00  0.00    -0.211 N 
ATOM     37  H   UNL     1      10.900   3.143   1.053  0.00  0.00    +0.174 HD
BRANCH  10   1
ATOM      1  S   UNL     1      12.986   4.153   0.977  0.00  0.00    +0.073 S 
ATOM      4  O   UNL     1      13.462   5.482   1.309  0.00  0.00    -0.150 OA
ATOM      5  O   UNL     1      13.602   2.985   1.577  0.00  0.00    -0.150 OA
BRANCH   1  29
ATOM     29  C   UNL     1      13.107   3.971  -0.777  0.00  0.00    +0.109 A 
ATOM     30  C   UNL     1      14.011   4.752  -1.476  0.00  0.00    +0.032 A 
ATOM     31  C   UNL     1      12.296   3.051  -1.418  0.00  0.00    +0.032 A 
ATOM     32  C   UNL     1      14.106   4.610  -2.861  0.00  0.00    +0.047 A 
ATOM     33  C   UNL     1      12.391   2.908  -2.803  0.00  0.00    +0.047 A 
ATOM     34  C   UNL     1      13.296   3.687  -3.524  0.00  0.00    +0.120 A 
BRANCH  34   6
ATOM      6  O   UNL     1      13.390   3.546  -4.874  0.00  0.00    -0.495 OA
ATOM     35  C   UNL     1      12.222   3.101  -5.562  0.00  0.00    +0.277 C 
ENDBRANCH  34   6
ENDBRANCH   1  29
ENDBRANCH  10   1
ENDBRANCH  24  10
TORSDOF 5
ENDMDL
MODEL 8
REMARK VINA RESULT:      -6.9     26.499     30.447
REMARK  Name = 11867175
REMARK  6 active torsions:
REMARK  status: ('A' for Active; 'I' for Inactive)
REMARK    1  A    between atoms: S_1  and  N_10
REMARK    2  A    between atoms: S_1  and  C_29
REMARK    3  A    between atoms: O_6  and  C_34
REMARK    4  A    between atoms: O_6  and  C_35
REMARK    5  A    between atoms: N_9  and  C_20
REMARK    6  A    between atoms: N_10  and  C_24
REMARK                            x       y       z     vdW  Elec       q    Type
REMARK                         _______ _______ _______ _____ _____    ______ ____
ROOT
ATOM      2  O   UNL     1      -3.627 -10.238  16.680  0.00  0.00    -0.253 OA
ATOM      3  O   UNL     1      -8.412  -8.304  17.370  0.00  0.00    -0.266 OA
ATOM      7  N   UNL     1      -5.021 -11.974  17.326  0.00  0.00    -0.285 N 
ATOM      8  N   UNL     1      -7.853 -10.573  17.547  0.00  0.00    -0.310 N 
ATOM      9  N   UNL     1      -4.383 -11.680  15.066  0.00  0.00    -0.296 N 
ATOM     11  C   UNL     1      -6.336 -11.498  19.390  0.00  0.00    +0.027 C 
ATOM     12  C   UNL     1      -7.247 -13.016  17.680  0.00  0.00    +0.054 C 
ATOM     13  C   UNL     1      -7.116 -12.792  19.186  0.00  0.00    +0.018 C 
ATOM     14  C   UNL     1      -4.943 -11.597  18.740  0.00  0.00    +0.114 C 
ATOM     15  C   UNL     1      -5.843 -13.168  17.063  0.00  0.00    +0.119 C 
ATOM     16  C   UNL     1      -7.155 -10.334  18.817  0.00  0.00    +0.130 C 
ATOM     17  C   UNL     1      -7.980 -11.865  17.017  0.00  0.00    +0.027 A 
ATOM     18  C   UNL     1      -4.296 -11.232  16.379  0.00  0.00    +0.302 C 
ATOM     19  C   UNL     1      -8.717 -12.079  15.912  0.00  0.00    +0.024 A 
ATOM     21  C   UNL     1      -8.472  -9.457  16.945  0.00  0.00    +0.274 A 
ATOM     24  C   UNL     1      -9.251  -9.754  15.717  0.00  0.00    +0.112 A 
ATOM     27  C   UNL     1      -9.375 -10.992  15.238  0.00  0.00    +0.031 A 
ATOM     36  H   UNL     1      -5.011 -12.425  14.806  0.00  0.00    +0.151 HD
ENDROOT
BRANCH   9  20
ATOM     20  C   UNL     1      -3.700 -11.014  13.983  0.00  0.00    +0.074 C 
ATOM     22  C   UNL     1      -2.592 -11.904  13.412  0.00  0.00    +0.022 C 
ATOM     23  C   UNL     1      -4.696 -10.599  12.897  0.00  0.00    +0.022 C 
ATOM     25  C   UNL     1      -1.892 -11.240  12.229  0.00  0.00    +0.002 C 
ATOM     26  C   UNL     1      -3.994  -9.939  11.713  0.00  0.00    +0.002 C 
ATOM     28  C   UNL     1      -2.887 -10.825  11.149  0.00  0.00    +0.000 C 
ENDBRANCH   9  20
BRANCH  24  10
ATOM     10  N   UNL     1      -9.904  -8.718  15.025  0.00  0.00    -0.211 N 
ATOM     37  H   UNL     1      -9.306  -7.890  14.889  0.00  0.00    +0.174 HD
BRANCH  10   1
ATOM      1  S   UNL     1     -11.496  -8.368  15.483  0.00  0.00    +0.073 S 
ATOM      4  O   UNL     1     -12.322  -9.548  15.320  0.00  0.00    -0.150 OA
ATOM      5  O   UNL     1     -11.493  -7.645  16.741  0.00  0.00    -0.150 OA
BRANCH   1  29
ATOM     29  C   UNL     1     -11.957  -7.222  14.218  0.00  0.00    +0.109 A 
ATOM     30  C   UNL     1     -11.954  -5.867  14.500  0.00  0.00    +0.032 A 
ATOM     31  C   UNL     1     -12.312  -7.702  12.969  0.00  0.00    +0.032 A 
ATOM     32  C   UNL     1     -12.319  -4.963  13.502  0.00  0.00    +0.047 A 
ATOM     33  C   UNL     1     -12.677  -6.798  11.971  0.00  0.00    +0.047 A 
ATOM     34  C   UNL     1     -12.680  -5.429  12.238  0.00  0.00    +0.120 A 
BRANCH  34   6
ATOM      6  O   UNL     1     -13.035  -4.547  11.263  0.00  0.00    -0.495 OA
ATOM     35  C   UNL     1     -12.088  -3.533  10.930  0.00  0.00    +0.277 C 
ENDBRANCH  34   6
ENDBRANCH   1  29
ENDBRANCH  10   1
ENDBRANCH  24  10
TORSDOF 5
ENDMDL
MODEL 9
REMARK VINA RESULT:      -6.8     16.583     21.230
REMARK  Name = 11867175
REMARK  6 active torsions:
REMARK  status: ('A' for Active; 'I' for Inactive)
REMARK    1  A    between atoms: S_1  and  N_10
REMARK    2  A    between atoms: S_1  and  C_29
REMARK    3  A    between atoms: O_6  and  C_34
REMARK    4  A    between atoms: O_6  and  C_35
REMARK    5  A    between atoms: N_9  and  C_20
REMARK    6  A    between atoms: N_10  and  C_24
REMARK                            x       y       z     vdW  Elec       q    Type
REMARK                         _______ _______ _______ _____ _____    ______ ____
ROOT
ATOM      2  O   UNL     1      -2.671  12.237   2.937  0.00  0.00    -0.253 OA
ATOM      3  O   UNL     1      -6.603  10.099   5.599  0.00  0.00    -0.266 OA
ATOM      7  N   UNL     1      -1.778  10.737   4.464  0.00  0.00    -0.285 N 
ATOM      8  N   UNL     1      -4.350   9.500   5.838  0.00  0.00    -0.310 N 
ATOM      9  N   UNL     1      -1.998  10.182   2.174  0.00  0.00    -0.296 N 
ATOM     11  C   UNL     1      -2.580  11.079   6.800  0.00  0.00    +0.027 C 
ATOM     12  C   UNL     1      -1.929   8.828   6.045  0.00  0.00    +0.054 C 
ATOM     13  C   UNL     1      -1.872   9.797   7.225  0.00  0.00    +0.018 C 
ATOM     14  C   UNL     1      -1.890  11.695   5.568  0.00  0.00    +0.114 C 
ATOM     15  C   UNL     1      -1.185   9.444   4.844  0.00  0.00    +0.119 C 
ATOM     16  C   UNL     1      -4.056  10.761   6.533  0.00  0.00    +0.130 C 
ATOM     17  C   UNL     1      -3.364   8.519   5.659  0.00  0.00    +0.027 A 
ATOM     18  C   UNL     1      -2.179  11.128   3.176  0.00  0.00    +0.302 C 
ATOM     19  C   UNL     1      -3.677   7.327   5.122  0.00  0.00    +0.024 A 
ATOM     21  C   UNL     1      -5.690   9.286   5.453  0.00  0.00    +0.274 A 
ATOM     24  C   UNL     1      -5.969   7.961   4.845  0.00  0.00    +0.112 A 
ATOM     27  C   UNL     1      -5.021   7.035   4.700  0.00  0.00    +0.031 A 
ATOM     36  H   UNL     1      -1.696   9.243   2.387  0.00  0.00    +0.151 HD
ENDROOT
BRANCH   9  20
ATOM     20  C   UNL     1      -2.371  10.437   0.803  0.00  0.00    +0.074 C 
ATOM     22  C   UNL     1      -1.561   9.555  -0.152  0.00  0.00    +0.022 C 
ATOM     23  C   UNL     1      -3.876  10.231   0.610  0.00  0.00    +0.022 C 
ATOM     25  C   UNL     1      -1.978   9.769  -1.604  0.00  0.00    +0.002 C 
ATOM     26  C   UNL     1      -4.290  10.442  -0.843  0.00  0.00    +0.002 C 
ATOM     28  C   UNL     1      -3.479   9.566  -1.793  0.00  0.00    +0.000 C 
ENDBRANCH   9  20
BRANCH  24  10
ATOM     10  N   UNL     1      -7.268   7.640   4.414  0.00  0.00    -0.211 N 
ATOM     37  H   UNL     1      -7.742   8.429   3.951  0.00  0.00    +0.174 HD
BRANCH  10   1
ATOM      1  S   UNL     1      -8.243   6.765   5.487  0.00  0.00    +0.073 S 
ATOM      4  O   UNL     1      -7.593   5.514   5.829  0.00  0.00    -0.150 OA
ATOM      5  O   UNL     1      -8.729   7.646   6.532  0.00  0.00    -0.150 OA
BRANCH   1  29
ATOM     29  C   UNL     1      -9.616   6.378   4.442  0.00  0.00    +0.109 A 
ATOM     30  C   UNL     1      -9.537   6.660   3.090  0.00  0.00    +0.032 A 
ATOM     31  C   UNL     1     -10.745   5.800   4.998  0.00  0.00    +0.032 A 
ATOM     32  C   UNL     1     -10.621   6.356   2.266  0.00  0.00    +0.047 A 
ATOM     33  C   UNL     1     -11.829   5.495   4.174  0.00  0.00    +0.047 A 
ATOM     34  C   UNL     1     -11.766   5.774   2.808  0.00  0.00    +0.120 A 
BRANCH  34   6
ATOM      6  O   UNL     1     -12.823   5.475   2.004  0.00  0.00    -0.495 OA
ATOM     35  C   UNL     1     -12.604   5.533   0.596  0.00  0.00    +0.277 C 
ENDBRANCH  34   6
ENDBRANCH   1  29
ENDBRANCH  10   1
ENDBRANCH  24  10
TORSDOF 5
ENDMDL
MODEL 10
REMARK VINA RESULT:      -6.8     25.361     29.318
REMARK  Name = 11867175
REMARK  6 active torsions:
REMARK  status: ('A' for Active; 'I' for Inactive)
REMARK    1  A    between atoms: S_1  and  N_10
REMARK    2  A    between atoms: S_1  and  C_29
REMARK    3  A    between atoms: O_6  and  C_34
REMARK    4  A    between atoms: O_6  and  C_35
REMARK    5  A    between atoms: N_9  and  C_20
REMARK    6  A    between atoms: N_10  and  C_24
REMARK                            x       y       z     vdW  Elec       q    Type
REMARK                         _______ _______ _______ _____ _____    ______ ____
ROOT
ATOM      2  O   UNL     1      -9.605 -12.149  16.184  0.00  0.00    -0.253 OA
ATOM      3  O   UNL     1      -4.919 -14.337  16.791  0.00  0.00    -0.266 OA
ATOM      7  N   UNL     1      -8.327 -10.757  17.527  0.00  0.00    -0.285 N 
ATOM      8  N   UNL     1      -5.526 -12.234  17.628  0.00  0.00    -0.310 N 
ATOM      9  N   UNL     1      -8.671 -10.283  15.234  0.00  0.00    -0.296 N 
ATOM     11  C   UNL     1      -7.275 -11.915  19.469  0.00  0.00    +0.027 C 
ATOM     12  C   UNL     1      -6.177  -9.950  18.474  0.00  0.00    +0.054 C 
ATOM     13  C   UNL     1      -6.494 -10.648  19.796  0.00  0.00    +0.018 C 
ATOM     14  C   UNL     1      -8.577 -11.571  18.720  0.00  0.00    +0.114 C 
ATOM     15  C   UNL     1      -7.494  -9.566  17.772  0.00  0.00    +0.119 C 
ATOM     16  C   UNL     1      -6.375 -12.853  18.654  0.00  0.00    +0.130 C 
ATOM     17  C   UNL     1      -5.351 -10.844  17.567  0.00  0.00    +0.027 A 
ATOM     18  C   UNL     1      -8.916 -11.130  16.308  0.00  0.00    +0.302 C 
ATOM     19  C   UNL     1      -4.483 -10.303  16.693  0.00  0.00    +0.024 A 
ATOM     21  C   UNL     1      -4.821 -13.111  16.776  0.00  0.00    +0.274 A 
ATOM     24  C   UNL     1      -3.898 -12.453  15.818  0.00  0.00    +0.112 A 
ATOM     27  C   UNL     1      -3.732 -11.131  15.788  0.00  0.00    +0.031 A 
ATOM     36  H   UNL     1      -8.025  -9.511  15.311  0.00  0.00    +0.151 HD
ENDROOT
BRANCH   9  20
ATOM     20  C   UNL     1      -9.202 -10.541  13.918  0.00  0.00    +0.074 C 
ATOM     22  C   UNL     1     -10.551  -9.839  13.731  0.00  0.00    +0.022 C 
ATOM     23  C   UNL     1      -8.200 -10.116  12.842  0.00  0.00    +0.022 C 
ATOM     25  C   UNL     1     -11.106 -10.054  12.326  0.00  0.00    +0.002 C 
ATOM     26  C   UNL     1      -8.758 -10.328  11.438  0.00  0.00    +0.002 C 
ATOM     28  C   UNL     1     -10.103  -9.632  11.255  0.00  0.00    +0.000 C 
ENDBRANCH   9  20
BRANCH  24  10
ATOM     10  N   UNL     1      -3.149 -13.226  14.913  0.00  0.00    -0.211 N 
ATOM     37  H   UNL     1      -2.192 -12.869  14.779  0.00  0.00    +0.174 HD
BRANCH  10   1
ATOM      1  S   UNL     1      -3.923 -13.712  13.488  0.00  0.00    +0.073 S 
ATOM      4  O   UNL     1      -3.136 -14.736  12.828  0.00  0.00    -0.150 OA
ATOM      5  O   UNL     1      -5.334 -13.930  13.750  0.00  0.00    -0.150 OA
BRANCH   1  29
ATOM     29  C   UNL     1      -3.789 -12.238  12.521  0.00  0.00    +0.109 A 
ATOM     30  C   UNL     1      -4.941 -11.630  12.053  0.00  0.00    +0.032 A 
ATOM     31  C   UNL     1      -2.534 -11.719  12.252  0.00  0.00    +0.032 A 
ATOM     32  C   UNL     1      -4.835 -10.467  11.289  0.00  0.00    +0.047 A 
ATOM     33  C   UNL     1      -2.428 -10.556  11.488  0.00  0.00    +0.047 A 
ATOM     34  C   UNL     1      -3.579  -9.931  11.007  0.00  0.00    +0.120 A 
BRANCH  34   6
ATOM      6  O   UNL     1      -3.474  -8.795  10.264  0.00  0.00    -0.495 OA
ATOM     35  C   UNL     1      -4.098  -8.801   8.980  0.00  0.00    +0.277 C 
ENDBRANCH  34   6
ENDBRANCH   1  29
ENDBRANCH  10   1
ENDBRANCH  24  10
TORSDOF 5
ENDMDL
