MODEL 1
REMARK VINA RESULT:      -7.2      0.000      0.000
REMARK  Name = 45783511
REMARK  6 active torsions:
REMARK  status: ('A' for Active; 'I' for Inactive)
REMARK    1  A    between atoms: O_4  and  C_30
REMARK    2  A    between atoms: N_5  and  C_14
REMARK    3  A    between atoms: C_10  and  C_15
REMARK    4  A    between atoms: C_14  and  C_16
REMARK    5  A    between atoms: C_17  and  C_21
REMARK    6  A    between atoms: C_22  and  C_30
REMARK                            x       y       z     vdW  Elec       q    Type
REMARK                         _______ _______ _______ _____ _____    ______ ____
ROOT
ATOM      1  O   UNL     1      12.240   7.154  18.617  0.00  0.00    -0.336 OA
ATOM      6  N   UNL     1      13.093   9.194  18.982  0.00  0.00    -0.190 NA
ATOM      8  N   UNL     1      12.573   7.669  17.357  0.00  0.00    -0.056 NA
ATOM     15  C   UNL     1      12.578   8.115  19.516  0.00  0.00    +0.245 A 
ATOM     17  C   UNL     1      13.069   8.873  17.656  0.00  0.00    +0.204 A 
ENDROOT
BRANCH  17  21
ATOM      3  O   UNL     1      15.669  13.960  11.546  0.00  0.00    -0.377 OA
ATOM      7  N   UNL     1      14.854  12.369  13.715  0.00  0.00    -0.311 N 
ATOM      9  N   UNL     1      13.248  10.811  14.487  0.00  0.00    -0.240 NA
ATOM     19  C   UNL     1      16.164  12.155  13.090  0.00  0.00    +0.134 C 
ATOM     20  C   UNL     1      13.857  13.034  12.865  0.00  0.00    +0.134 C 
ATOM     21  C   UNL     1      13.548   9.780  16.653  0.00  0.00    +0.041 A 
ATOM     24  C   UNL     1      16.648  13.451  12.452  0.00  0.00    +0.178 C 
ATOM     25  C   UNL     1      14.465  14.284  12.240  0.00  0.00    +0.178 C 
ATOM     26  C   UNL     1      14.399  11.487  14.701  0.00  0.00    +0.121 A 
ATOM     27  C   UNL     1      14.728  10.494  16.837  0.00  0.00    +0.016 A 
ATOM     28  C   UNL     1      15.168  11.366  15.848  0.00  0.00    +0.044 A 
ATOM     29  C   UNL     1      12.852   9.973  15.471  0.00  0.00    +0.124 A 
ENDBRANCH  17  21
BRANCH  15  10
ATOM      5  N   UNL     1      11.625   8.896  21.679  0.00  0.00    -0.284 NA
ATOM     10  C   UNL     1      12.316   7.798  20.973  0.00  0.00    +0.146 C 
ATOM     11  C   UNL     1      11.399   6.574  21.160  0.00  0.00    +0.030 C 
ATOM     12  C   UNL     1      10.252   7.067  22.032  0.00  0.00    +0.017 C 
ATOM     13  C   UNL     1      10.836   8.273  22.741  0.00  0.00    +0.085 C 
BRANCH   5  14
ATOM     14  C   UNL     1      12.536   9.910  22.195  0.00  0.00    +0.159 C 
BRANCH  14  16
ATOM      2  O   UNL     1      11.579  11.527  23.741  0.00  0.00    -0.461 OA
ATOM     16  C   UNL     1      11.835  11.219  22.442  0.00  0.00    +0.119 A 
ATOM     18  C   UNL     1      11.378  12.213  21.609  0.00  0.00    +0.046 A 
ATOM     22  C   UNL     1      10.951  12.733  23.737  0.00  0.00    +0.131 A 
ATOM     23  C   UNL     1      10.803  13.197  22.451  0.00  0.00    +0.047 A 
BRANCH  22  30
ATOM     30  C   UNL     1      10.573  13.274  25.050  0.00  0.00    +0.230 C 
BRANCH  30   4
ATOM      4  O   UNL     1      10.571  12.234  26.030  0.00  0.00    -0.387 OA
ATOM     31  H   UNL     1      11.122  12.542  26.771  0.00  0.00    +0.210 HD
ENDBRANCH  30   4
ENDBRANCH  22  30
ENDBRANCH  14  16
ENDBRANCH   5  14
ENDBRANCH  15  10
TORSDOF 6
ENDMDL
MODEL 2
REMARK VINA RESULT:      -6.9      2.838      9.657
REMARK  Name = 45783511
REMARK  6 active torsions:
REMARK  status: ('A' for Active; 'I' for Inactive)
REMARK    1  A    between atoms: O_4  and  C_30
REMARK    2  A    between atoms: N_5  and  C_14
REMARK    3  A    between atoms: C_10  and  C_15
REMARK    4  A    between atoms: C_14  and  C_16
REMARK    5  A    between atoms: C_17  and  C_21
REMARK    6  A    between atoms: C_22  and  C_30
REMARK                            x       y       z     vdW  Elec       q    Type
REMARK                         _______ _______ _______ _____ _____    ______ ____
ROOT
ATOM      1  O   UNL     1      15.407  10.706  13.703  0.00  0.00    -0.336 OA
ATOM      6  N   UNL     1      14.049  11.920  15.009  0.00  0.00    -0.190 NA
ATOM      8  N   UNL     1      15.027   9.866  14.758  0.00  0.00    -0.056 NA
ATOM     15  C   UNL     1      14.788  11.894  13.928  0.00  0.00    +0.245 A 
ATOM     17  C   UNL     1      14.228  10.653  15.484  0.00  0.00    +0.204 A 
ENDROOT
BRANCH  17  21
ATOM      3  O   UNL     1      10.852   8.122  22.706  0.00  0.00    -0.377 OA
ATOM      7  N   UNL     1      11.825   8.969  20.209  0.00  0.00    -0.311 N 
ATOM      9  N   UNL     1      13.453  10.283  19.102  0.00  0.00    -0.240 NA
ATOM     19  C   UNL     1      11.831   7.545  20.562  0.00  0.00    +0.134 C 
ATOM     20  C   UNL     1      11.797   9.896  21.349  0.00  0.00    +0.134 C 
ATOM     21  C   UNL     1      13.594  10.205  16.690  0.00  0.00    +0.041 A 
ATOM     24  C   UNL     1      10.727   7.261  21.574  0.00  0.00    +0.178 C 
ATOM     25  C   UNL     1      10.693   9.486  22.318  0.00  0.00    +0.178 C 
ATOM     26  C   UNL     1      12.435   9.397  19.025  0.00  0.00    +0.121 A 
ATOM     27  C   UNL     1      12.543   9.294  16.652  0.00  0.00    +0.016 A 
ATOM     28  C   UNL     1      11.947   8.878  17.837  0.00  0.00    +0.044 A 
ATOM     29  C   UNL     1      14.008  10.664  17.930  0.00  0.00    +0.124 A 
ENDBRANCH  17  21
BRANCH  15  10
ATOM      5  N   UNL     1      13.805  13.422  12.226  0.00  0.00    -0.284 NA
ATOM     10  C   UNL     1      15.039  12.989  12.912  0.00  0.00    +0.146 C 
ATOM     11  C   UNL     1      15.606  14.272  13.547  0.00  0.00    +0.030 C 
ATOM     12  C   UNL     1      14.657  15.382  13.115  0.00  0.00    +0.017 C 
ATOM     13  C   UNL     1      14.004  14.826  11.866  0.00  0.00    +0.085 C 
BRANCH   5  14
ATOM     14  C   UNL     1      13.470  12.601  11.070  0.00  0.00    +0.159 C 
BRANCH  14  16
ATOM      2  O   UNL     1      11.292  12.539  12.151  0.00  0.00    -0.461 OA
ATOM     16  C   UNL     1      12.005  12.261  11.028  0.00  0.00    +0.119 A 
ATOM     18  C   UNL     1      11.194  11.708  10.065  0.00  0.00    +0.046 A 
ATOM     22  C   UNL     1      10.010  12.159  11.901  0.00  0.00    +0.131 A 
ATOM     23  C   UNL     1       9.898  11.642  10.632  0.00  0.00    +0.047 A 
BRANCH  22  30
ATOM     30  C   UNL     1       9.046  12.368  12.990  0.00  0.00    +0.230 C 
BRANCH  30   4
ATOM      4  O   UNL     1       7.714  12.153  12.518  0.00  0.00    -0.387 OA
ATOM     31  H   UNL     1       7.444  11.270  12.824  0.00  0.00    +0.210 HD
ENDBRANCH  30   4
ENDBRANCH  22  30
ENDBRANCH  14  16
ENDBRANCH   5  14
ENDBRANCH  15  10
TORSDOF 6
ENDMDL
MODEL 3
REMARK VINA RESULT:      -6.9     14.873     20.127
REMARK  Name = 45783511
REMARK  6 active torsions:
REMARK  status: ('A' for Active; 'I' for Inactive)
REMARK    1  A    between atoms: O_4  and  C_30
REMARK    2  A    between atoms: N_5  and  C_14
REMARK    3  A    between atoms: C_10  and  C_15
REMARK    4  A    between atoms: C_14  and  C_16
REMARK    5  A    between atoms: C_17  and  C_21
REMARK    6  A    between atoms: C_22  and  C_30
REMARK                            x       y       z     vdW  Elec       q    Type
REMARK                         _______ _______ _______ _____ _____    ______ ____
ROOT
ATOM      1  O   UNL     1      10.179   6.575  -1.864  0.00  0.00    -0.336 OA
ATOM      6  N   UNL     1      10.627   4.976  -0.359  0.00  0.00    -0.190 NA
ATOM      8  N   UNL     1       9.915   7.136  -0.608  0.00  0.00    -0.056 NA
ATOM     15  C   UNL     1      10.593   5.302  -1.626  0.00  0.00    +0.245 A 
ATOM     17  C   UNL     1      10.201   6.133   0.227  0.00  0.00    +0.204 A 
ENDROOT
BRANCH  17  21
ATOM      3  O   UNL     1       9.383   6.463   8.544  0.00  0.00    -0.377 OA
ATOM      7  N   UNL     1       9.727   6.514   5.755  0.00  0.00    -0.311 N 
ATOM      9  N   UNL     1      10.185   5.215   3.830  0.00  0.00    -0.240 NA
ATOM     19  C   UNL     1       8.448   6.914   6.351  0.00  0.00    +0.134 C 
ATOM     20  C   UNL     1      10.560   5.637   6.591  0.00  0.00    +0.134 C 
ATOM     21  C   UNL     1      10.073   6.254   1.650  0.00  0.00    +0.041 A 
ATOM     24  C   UNL     1       8.678   7.431   7.766  0.00  0.00    +0.178 C 
ATOM     25  C   UNL     1      10.678   6.224   7.994  0.00  0.00    +0.178 C 
ATOM     26  C   UNL     1       9.848   6.410   4.366  0.00  0.00    +0.121 A 
ATOM     27  C   UNL     1       9.728   7.467   2.238  0.00  0.00    +0.016 A 
ATOM     28  C   UNL     1       9.612   7.555   3.621  0.00  0.00    +0.044 A 
ATOM     29  C   UNL     1      10.289   5.168   2.483  0.00  0.00    +0.124 A 
ENDBRANCH  17  21
BRANCH  15  10
ATOM      5  N   UNL     1      12.145   3.633  -2.626  0.00  0.00    -0.284 NA
ATOM     10  C   UNL     1      10.948   4.470  -2.841  0.00  0.00    +0.146 C 
ATOM     11  C   UNL     1       9.838   3.476  -3.226  0.00  0.00    +0.030 C 
ATOM     12  C   UNL     1      10.518   2.114  -3.260  0.00  0.00    +0.017 C 
ATOM     13  C   UNL     1      11.981   2.451  -3.473  0.00  0.00    +0.085 C 
BRANCH   5  14
ATOM     14  C   UNL     1      13.394   4.333  -2.898  0.00  0.00    +0.159 C 
BRANCH  14  16
ATOM      2  O   UNL     1      13.802   3.879  -0.543  0.00  0.00    -0.461 OA
ATOM     16  C   UNL     1      14.339   4.270  -1.729  0.00  0.00    +0.119 A 
ATOM     18  C   UNL     1      15.682   4.533  -1.589  0.00  0.00    +0.046 A 
ATOM     22  C   UNL     1      14.815   3.892   0.364  0.00  0.00    +0.131 A 
ATOM     23  C   UNL     1      15.991   4.287  -0.229  0.00  0.00    +0.047 A 
BRANCH  22  30
ATOM     30  C   UNL     1      14.464   3.498   1.736  0.00  0.00    +0.230 C 
BRANCH  30   4
ATOM      4  O   UNL     1      15.639   3.122   2.458  0.00  0.00    -0.387 OA
ATOM     31  H   UNL     1      16.104   3.944   2.690  0.00  0.00    +0.210 HD
ENDBRANCH  30   4
ENDBRANCH  22  30
ENDBRANCH  14  16
ENDBRANCH   5  14
ENDBRANCH  15  10
TORSDOF 6
ENDMDL
MODEL 4
REMARK VINA RESULT:      -6.8     26.161     29.630
REMARK  Name = 45783511
REMARK  6 active torsions:
REMARK  status: ('A' for Active; 'I' for Inactive)
REMARK    1  A    between atoms: O_4  and  C_30
REMARK    2  A    between atoms: N_5  and  C_14
REMARK    3  A    between atoms: C_10  and  C_15
REMARK    4  A    between atoms: C_14  and  C_16
REMARK    5  A    between atoms: C_17  and  C_21
REMARK    6  A    between atoms: C_22  and  C_30
REMARK                            x       y       z     vdW  Elec       q    Type
REMARK                         _______ _______ _______ _____ _____    ______ ____
ROOT
ATOM      1  O   UNL     1      -4.765 -10.521  17.383  0.00  0.00    -0.336 OA
ATOM      6  N   UNL     1      -5.750 -10.262  15.387  0.00  0.00    -0.190 NA
ATOM      8  N   UNL     1      -6.061 -10.058  17.645  0.00  0.00    -0.056 NA
ATOM     15  C   UNL     1      -4.665 -10.613  16.031  0.00  0.00    +0.245 A 
ATOM     17  C   UNL     1      -6.578  -9.929  16.419  0.00  0.00    +0.204 A 
ENDROOT
BRANCH  17  21
ATOM      3  O   UNL     1     -14.311  -7.231  14.723  0.00  0.00    -0.377 OA
ATOM      7  N   UNL     1     -11.769  -8.182  15.453  0.00  0.00    -0.311 N 
ATOM      9  N   UNL     1      -9.790  -9.226  14.683  0.00  0.00    -0.240 NA
ATOM     19  C   UNL     1     -12.100  -6.761  15.603  0.00  0.00    +0.134 C 
ATOM     20  C   UNL     1     -12.582  -8.913  14.471  0.00  0.00    +0.134 C 
ATOM     21  C   UNL     1      -7.918  -9.471  16.192  0.00  0.00    +0.041 A 
ATOM     24  C   UNL     1     -13.604  -6.598  15.789  0.00  0.00    +0.178 C 
ATOM     25  C   UNL     1     -14.061  -8.636  14.719  0.00  0.00    +0.178 C 
ATOM     26  C   UNL     1     -10.463  -8.624  15.688  0.00  0.00    +0.121 A 
ATOM     27  C   UNL     1      -8.643  -8.847  17.203  0.00  0.00    +0.016 A 
ATOM     28  C   UNL     1      -9.941  -8.413  16.955  0.00  0.00    +0.044 A 
ATOM     29  C   UNL     1      -8.532  -9.634  14.961  0.00  0.00    +0.124 A 
ENDBRANCH  17  21
BRANCH  15  10
ATOM      5  N   UNL     1      -3.010 -10.498  14.176  0.00  0.00    -0.284 NA
ATOM     10  C   UNL     1      -3.340 -11.099  15.483  0.00  0.00    +0.146 C 
ATOM     11  C   UNL     1      -2.151 -10.737  16.393  0.00  0.00    +0.030 C 
ATOM     12  C   UNL     1      -1.179  -9.985  15.494  0.00  0.00    +0.017 C 
ATOM     13  C   UNL     1      -1.550 -10.449  14.100  0.00  0.00    +0.085 C 
BRANCH   5  14
ATOM     14  C   UNL     1      -3.594 -11.215  13.049  0.00  0.00    +0.159 C 
BRANCH  14  16
ATOM      2  O   UNL     1      -4.936  -9.808  11.585  0.00  0.00    -0.461 OA
ATOM     16  C   UNL     1      -3.710 -10.343  11.828  0.00  0.00    +0.119 A 
ATOM     18  C   UNL     1      -2.811  -9.951  10.863  0.00  0.00    +0.046 A 
ATOM     22  C   UNL     1      -4.818  -9.066  10.452  0.00  0.00    +0.131 A 
ATOM     23  C   UNL     1      -3.532  -9.121   9.969  0.00  0.00    +0.047 A 
BRANCH  22  30
ATOM     30  C   UNL     1      -6.036  -8.385   9.992  0.00  0.00    +0.230 C 
BRANCH  30   4
ATOM      4  O   UNL     1      -5.939  -8.086   8.598  0.00  0.00    -0.387 OA
ATOM     31  H   UNL     1      -6.079  -8.921   8.119  0.00  0.00    +0.210 HD
ENDBRANCH  30   4
ENDBRANCH  22  30
ENDBRANCH  14  16
ENDBRANCH   5  14
ENDBRANCH  15  10
TORSDOF 6
ENDMDL
MODEL 5
REMARK VINA RESULT:      -6.8     12.568     16.171
REMARK  Name = 45783511
REMARK  6 active torsions:
REMARK  status: ('A' for Active; 'I' for Inactive)
REMARK    1  A    between atoms: O_4  and  C_30
REMARK    2  A    between atoms: N_5  and  C_14
REMARK    3  A    between atoms: C_10  and  C_15
REMARK    4  A    between atoms: C_14  and  C_16
REMARK    5  A    between atoms: C_17  and  C_21
REMARK    6  A    between atoms: C_22  and  C_30
REMARK                            x       y       z     vdW  Elec       q    Type
REMARK                         _______ _______ _______ _____ _____    ______ ____
ROOT
ATOM      1  O   UNL     1      12.234   7.861   5.407  0.00  0.00    -0.336 OA
ATOM      6  N   UNL     1      10.585   7.981   3.895  0.00  0.00    -0.190 NA
ATOM      8  N   UNL     1      12.554   6.935   4.406  0.00  0.00    -0.056 NA
ATOM     15  C   UNL     1      11.061   8.432   5.028  0.00  0.00    +0.245 A 
ATOM     17  C   UNL     1      11.535   7.064   3.552  0.00  0.00    +0.204 A 
ENDROOT
BRANCH  17  21
ATOM      3  O   UNL     1      11.295   2.712  -3.587  0.00  0.00    -0.377 OA
ATOM      7  N   UNL     1      11.244   4.074  -1.129  0.00  0.00    -0.311 N 
ATOM      9  N   UNL     1      12.544   5.212   0.490  0.00  0.00    -0.240 NA
ATOM     19  C   UNL     1      10.490   4.588  -2.276  0.00  0.00    +0.134 C 
ATOM     20  C   UNL     1      12.369   3.189  -1.465  0.00  0.00    +0.134 C 
ATOM     21  C   UNL     1      11.437   6.292   2.347  0.00  0.00    +0.041 A 
ATOM     24  C   UNL     1      10.127   3.440  -3.211  0.00  0.00    +0.178 C 
ATOM     25  C   UNL     1      11.904   2.115  -2.442  0.00  0.00    +0.178 C 
ATOM     26  C   UNL     1      11.326   4.827   0.047  0.00  0.00    +0.121 A 
ATOM     27  C   UNL     1      10.201   5.877   1.860  0.00  0.00    +0.016 A 
ATOM     28  C   UNL     1      10.136   5.130   0.690  0.00  0.00    +0.044 A 
ATOM     29  C   UNL     1      12.568   5.936   1.630  0.00  0.00    +0.124 A 
ENDBRANCH  17  21
BRANCH  15  10
ATOM      5  N   UNL     1      10.346   9.002   7.343  0.00  0.00    -0.284 NA
ATOM     10  C   UNL     1      10.493   9.486   5.956  0.00  0.00    +0.146 C 
ATOM     11  C   UNL     1      11.395  10.729   6.068  0.00  0.00    +0.030 C 
ATOM     12  C   UNL     1      11.654  10.899   7.559  0.00  0.00    +0.017 C 
ATOM     13  C   UNL     1      10.492  10.174   8.207  0.00  0.00    +0.085 C 
BRANCH   5  14
ATOM     14  C   UNL     1       9.090   8.301   7.578  0.00  0.00    +0.159 C 
BRANCH  14  16
ATOM      2  O   UNL     1       9.134   6.265   8.909  0.00  0.00    -0.461 OA
ATOM     16  C   UNL     1       9.288   6.813   7.674  0.00  0.00    +0.119 A 
ATOM     18  C   UNL     1       9.605   5.844   6.751  0.00  0.00    +0.046 A 
ATOM     22  C   UNL     1       9.354   4.930   8.772  0.00  0.00    +0.131 A 
ATOM     23  C   UNL     1       9.648   4.621   7.465  0.00  0.00    +0.047 A 
BRANCH  22  30
ATOM     30  C   UNL     1       9.239   4.123   9.994  0.00  0.00    +0.230 C 
BRANCH  30   4
ATOM      4  O   UNL     1      10.125   4.620  11.000  0.00  0.00    -0.387 OA
ATOM     31  H   UNL     1       9.831   5.523  11.215  0.00  0.00    +0.210 HD
ENDBRANCH  30   4
ENDBRANCH  22  30
ENDBRANCH  14  16
ENDBRANCH   5  14
ENDBRANCH  15  10
TORSDOF 6
ENDMDL
MODEL 6
REMARK VINA RESULT:      -6.6     26.425     30.972
REMARK  Name = 45783511
REMARK  6 active torsions:
REMARK  status: ('A' for Active; 'I' for Inactive)
REMARK    1  A    between atoms: O_4  and  C_30
REMARK    2  A    between atoms: N_5  and  C_14
REMARK    3  A    between atoms: C_10  and  C_15
REMARK    4  A    between atoms: C_14  and  C_16
REMARK    5  A    between atoms: C_17  and  C_21
REMARK    6  A    between atoms: C_22  and  C_30
REMARK                            x       y       z     vdW  Elec       q    Type
REMARK                         _______ _______ _______ _____ _____    ______ ____
ROOT
ATOM      1  O   UNL     1      -5.075  -9.867  16.292  0.00  0.00    -0.336 OA
ATOM      6  N   UNL     1      -5.304 -11.941  17.109  0.00  0.00    -0.190 NA
ATOM      8  N   UNL     1      -6.262  -9.864  17.037  0.00  0.00    -0.056 NA
ATOM     15  C   UNL     1      -4.575 -11.127  16.387  0.00  0.00    +0.245 A 
ATOM     17  C   UNL     1      -6.328 -11.121  17.485  0.00  0.00    +0.204 A 
ENDROOT
BRANCH  17  21
ATOM      3  O   UNL     1     -12.582 -14.187  22.116  0.00  0.00    -0.377 OA
ATOM      7  N   UNL     1     -10.469 -13.023  20.674  0.00  0.00    -0.311 N 
ATOM      9  N   UNL     1      -8.576 -13.448  19.318  0.00  0.00    -0.240 NA
ATOM     19  C   UNL     1     -11.860 -12.743  20.305  0.00  0.00    +0.134 C 
ATOM     20  C   UNL     1     -10.259 -14.270  21.423  0.00  0.00    +0.134 C 
ATOM     21  C   UNL     1      -7.403 -11.589  18.311  0.00  0.00    +0.041 A 
ATOM     24  C   UNL     1     -12.759 -12.900  21.526  0.00  0.00    +0.178 C 
ATOM     25  C   UNL     1     -11.243 -14.344  22.586  0.00  0.00    +0.178 C 
ATOM     26  C   UNL     1      -9.425 -12.553  19.870  0.00  0.00    +0.121 A 
ATOM     27  C   UNL     1      -8.297 -10.699  18.897  0.00  0.00    +0.016 A 
ATOM     28  C   UNL     1      -9.330 -11.181  19.694  0.00  0.00    +0.044 A 
ATOM     29  C   UNL     1      -7.585 -12.942  18.551  0.00  0.00    +0.124 A 
ENDBRANCH  17  21
BRANCH  15  10
ATOM      5  N   UNL     1      -3.232 -10.765  14.323  0.00  0.00    -0.284 NA
ATOM     10  C   UNL     1      -3.275 -11.394  15.659  0.00  0.00    +0.146 C 
ATOM     11  C   UNL     1      -2.050 -10.825  16.400  0.00  0.00    +0.030 C 
ATOM     12  C   UNL     1      -1.349  -9.935  15.383  0.00  0.00    +0.017 C 
ATOM     13  C   UNL     1      -1.824 -10.475  14.049  0.00  0.00    +0.085 C 
BRANCH   5  14
ATOM     14  C   UNL     1      -3.836 -11.586  13.282  0.00  0.00    +0.159 C 
BRANCH  14  16
ATOM      2  O   UNL     1      -4.585  -9.732  11.895  0.00  0.00    -0.461 OA
ATOM     16  C   UNL     1      -3.858 -10.879  11.953  0.00  0.00    +0.119 A 
ATOM     18  C   UNL     1      -3.282 -11.149  10.734  0.00  0.00    +0.046 A 
ATOM     22  C   UNL     1      -4.471  -9.265  10.623  0.00  0.00    +0.131 A 
ATOM     23  C   UNL     1      -3.680 -10.100   9.870  0.00  0.00    +0.047 A 
BRANCH  22  30
ATOM     30  C   UNL     1      -5.184  -8.015  10.324  0.00  0.00    +0.230 C 
BRANCH  30   4
ATOM      4  O   UNL     1      -5.778  -8.085   9.025  0.00  0.00    -0.387 OA
ATOM     31  H   UNL     1      -6.252  -7.247   8.886  0.00  0.00    +0.210 HD
ENDBRANCH  30   4
ENDBRANCH  22  30
ENDBRANCH  14  16
ENDBRANCH   5  14
ENDBRANCH  15  10
TORSDOF 6
ENDMDL
MODEL 7
REMARK VINA RESULT:      -6.6     28.262     30.553
REMARK  Name = 45783511
REMARK  6 active torsions:
REMARK  status: ('A' for Active; 'I' for Inactive)
REMARK    1  A    between atoms: O_4  and  C_30
REMARK    2  A    between atoms: N_5  and  C_14
REMARK    3  A    between atoms: C_10  and  C_15
REMARK    4  A    between atoms: C_14  and  C_16
REMARK    5  A    between atoms: C_17  and  C_21
REMARK    6  A    between atoms: C_22  and  C_30
REMARK                            x       y       z     vdW  Elec       q    Type
REMARK                         _______ _______ _______ _____ _____    ______ ____
ROOT
ATOM      1  O   UNL     1      -7.597 -11.201  16.391  0.00  0.00    -0.336 OA
ATOM      6  N   UNL     1      -7.806  -8.992  16.701  0.00  0.00    -0.190 NA
ATOM      8  N   UNL     1      -8.778 -10.827  15.738  0.00  0.00    -0.056 NA
ATOM     15  C   UNL     1      -7.088 -10.063  16.931  0.00  0.00    +0.245 A 
ATOM     17  C   UNL     1      -8.833  -9.511  15.966  0.00  0.00    +0.204 A 
ENDROOT
BRANCH  17  21
ATOM      3  O   UNL     1     -14.995  -4.473  13.397  0.00  0.00    -0.377 OA
ATOM      7  N   UNL     1     -12.930  -6.244  14.103  0.00  0.00    -0.311 N 
ATOM      9  N   UNL     1     -10.946  -6.511  15.366  0.00  0.00    -0.240 NA
ATOM     19  C   UNL     1     -14.322  -6.557  14.440  0.00  0.00    +0.134 C 
ATOM     20  C   UNL     1     -12.645  -4.818  13.886  0.00  0.00    +0.134 C 
ATOM     21  C   UNL     1      -9.899  -8.687  15.474  0.00  0.00    +0.041 A 
ATOM     24  C   UNL     1     -15.259  -5.874  13.450  0.00  0.00    +0.178 C 
ATOM     25  C   UNL     1     -13.671  -4.229  12.923  0.00  0.00    +0.178 C 
ATOM     26  C   UNL     1     -11.897  -7.059  14.576  0.00  0.00    +0.121 A 
ATOM     27  C   UNL     1     -10.895  -9.215  14.658  0.00  0.00    +0.016 A 
ATOM     28  C   UNL     1     -11.916  -8.392  14.196  0.00  0.00    +0.044 A 
ATOM     29  C   UNL     1      -9.970  -7.341  15.796  0.00  0.00    +0.124 A 
ENDBRANCH  17  21
BRANCH  15  10
ATOM      5  N   UNL     1      -5.689 -11.489  18.415  0.00  0.00    -0.284 NA
ATOM     10  C   UNL     1      -5.792 -10.201  17.700  0.00  0.00    +0.146 C 
ATOM     11  C   UNL     1      -4.551 -10.159  16.788  0.00  0.00    +0.030 C 
ATOM     12  C   UNL     1      -3.783 -11.435  17.104  0.00  0.00    +0.017 C 
ATOM     13  C   UNL     1      -4.263 -11.806  18.493  0.00  0.00    +0.085 C 
BRANCH   5  14
ATOM     14  C   UNL     1      -6.319 -11.468  19.729  0.00  0.00    +0.159 C 
BRANCH  14  16
ATOM      2  O   UNL     1      -8.715 -11.124  19.970  0.00  0.00    -0.461 OA
ATOM     16  C   UNL     1      -7.722 -12.008  19.687  0.00  0.00    +0.119 A 
ATOM     18  C   UNL     1      -8.245 -13.251  19.415  0.00  0.00    +0.046 A 
ATOM     22  C   UNL     1      -9.885 -11.811  19.877  0.00  0.00    +0.131 A 
ATOM     23  C   UNL     1      -9.650 -13.123  19.538  0.00  0.00    +0.047 A 
BRANCH  22  30
ATOM     30  C   UNL     1     -11.111 -11.046  20.144  0.00  0.00    +0.230 C 
BRANCH  30   4
ATOM      4  O   UNL     1     -10.794  -9.819  20.805  0.00  0.00    -0.387 OA
ATOM     31  H   UNL     1     -11.574  -9.571  21.330  0.00  0.00    +0.210 HD
ENDBRANCH  30   4
ENDBRANCH  22  30
ENDBRANCH  14  16
ENDBRANCH   5  14
ENDBRANCH  15  10
TORSDOF 6
ENDMDL
MODEL 8
REMARK VINA RESULT:      -6.6     13.965     17.494
REMARK  Name = 45783511
REMARK  6 active torsions:
REMARK  status: ('A' for Active; 'I' for Inactive)
REMARK    1  A    between atoms: O_4  and  C_30
REMARK    2  A    between atoms: N_5  and  C_14
REMARK    3  A    between atoms: C_10  and  C_15
REMARK    4  A    between atoms: C_14  and  C_16
REMARK    5  A    between atoms: C_17  and  C_21
REMARK    6  A    between atoms: C_22  and  C_30
REMARK                            x       y       z     vdW  Elec       q    Type
REMARK                         _______ _______ _______ _____ _____    ______ ____
ROOT
ATOM      1  O   UNL     1      10.167   4.533   5.562  0.00  0.00    -0.336 OA
ATOM      6  N   UNL     1      10.882   6.019   4.044  0.00  0.00    -0.190 NA
ATOM      8  N   UNL     1      10.274   3.834   4.353  0.00  0.00    -0.056 NA
ATOM     15  C   UNL     1      10.542   5.811   5.291  0.00  0.00    +0.245 A 
ATOM     17  C   UNL     1      10.700   4.777   3.507  0.00  0.00    +0.204 A 
ENDROOT
BRANCH  17  21
ATOM      3  O   UNL     1      11.803   3.204  -4.634  0.00  0.00    -0.377 OA
ATOM      7  N   UNL     1      11.601   3.780  -1.890  0.00  0.00    -0.311 N 
ATOM      9  N   UNL     1      10.179   4.563  -0.168  0.00  0.00    -0.240 NA
ATOM     19  C   UNL     1      11.886   2.414  -2.341  0.00  0.00    +0.134 C 
ATOM     20  C   UNL     1      10.939   4.641  -2.881  0.00  0.00    +0.134 C 
ATOM     21  C   UNL     1      10.954   4.511   2.120  0.00  0.00    +0.041 A 
ATOM     24  C   UNL     1      12.577   2.453  -3.699  0.00  0.00    +0.178 C 
ATOM     25  C   UNL     1      11.683   4.562  -4.210  0.00  0.00    +0.178 C 
ATOM     26  C   UNL     1      11.367   4.033  -0.535  0.00  0.00    +0.121 A 
ATOM     27  C   UNL     1      12.165   3.967   1.705  0.00  0.00    +0.016 A 
ATOM     28  C   UNL     1      12.384   3.720   0.354  0.00  0.00    +0.044 A 
ATOM     29  C   UNL     1      10.003   4.789   1.152  0.00  0.00    +0.124 A 
ENDBRANCH  17  21
BRANCH  15  10
ATOM      5  N   UNL     1       9.375   7.719   6.382  0.00  0.00    -0.284 NA
ATOM     10  C   UNL     1      10.514   6.782   6.452  0.00  0.00    +0.146 C 
ATOM     11  C   UNL     1      10.361   6.079   7.813  0.00  0.00    +0.030 C 
ATOM     12  C   UNL     1       9.145   6.727   8.461  0.00  0.00    +0.017 C 
ATOM     13  C   UNL     1       9.042   8.069   7.763  0.00  0.00    +0.085 C 
BRANCH   5  14
ATOM     14  C   UNL     1       9.647   8.897   5.569  0.00  0.00    +0.159 C 
BRANCH  14  16
ATOM      2  O   UNL     1       7.550   9.799   4.728  0.00  0.00    -0.461 OA
ATOM     16  C   UNL     1       8.650   9.050   4.452  0.00  0.00    +0.119 A 
ATOM     18  C   UNL     1       8.603   8.579   3.161  0.00  0.00    +0.046 A 
ATOM     22  C   UNL     1       6.792   9.807   3.599  0.00  0.00    +0.131 A 
ATOM     23  C   UNL     1       7.396   9.071   2.607  0.00  0.00    +0.047 A 
BRANCH  22  30
ATOM     30  C   UNL     1       5.536  10.567   3.664  0.00  0.00    +0.230 C 
BRANCH  30   4
ATOM      4  O   UNL     1       4.544   9.953   2.839  0.00  0.00    -0.387 OA
ATOM     31  H   UNL     1       4.801   9.021   2.733  0.00  0.00    +0.210 HD
ENDBRANCH  30   4
ENDBRANCH  22  30
ENDBRANCH  14  16
ENDBRANCH   5  14
ENDBRANCH  15  10
TORSDOF 6
ENDMDL
MODEL 9
REMARK VINA RESULT:      -6.5     12.747     16.676
REMARK  Name = 45783511
REMARK  6 active torsions:
REMARK  status: ('A' for Active; 'I' for Inactive)
REMARK    1  A    between atoms: O_4  and  C_30
REMARK    2  A    between atoms: N_5  and  C_14
REMARK    3  A    between atoms: C_10  and  C_15
REMARK    4  A    between atoms: C_14  and  C_16
REMARK    5  A    between atoms: C_17  and  C_21
REMARK    6  A    between atoms: C_22  and  C_30
REMARK                            x       y       z     vdW  Elec       q    Type
REMARK                         _______ _______ _______ _____ _____    ______ ____
ROOT
ATOM      1  O   UNL     1       9.856   9.029   4.441  0.00  0.00    -0.336 OA
ATOM      6  N   UNL     1       8.308   8.181   3.060  0.00  0.00    -0.190 NA
ATOM      8  N   UNL     1       8.772   9.915   4.479  0.00  0.00    -0.056 NA
ATOM     15  C   UNL     1       9.500   8.037   3.582  0.00  0.00    +0.245 A 
ATOM     17  C   UNL     1       7.901   9.347   3.640  0.00  0.00    +0.204 A 
ENDROOT
BRANCH  17  21
ATOM      3  O   UNL     1       0.329  12.667   2.374  0.00  0.00    -0.377 OA
ATOM      7  N   UNL     1       2.916  11.599   2.635  0.00  0.00    -0.311 N 
ATOM      9  N   UNL     1       4.705  11.183   4.128  0.00  0.00    -0.240 NA
ATOM     19  C   UNL     1       1.798  10.742   2.227  0.00  0.00    +0.134 C 
ATOM     20  C   UNL     1       2.536  12.815   3.369  0.00  0.00    +0.134 C 
ATOM     21  C   UNL     1       6.616   9.920   3.358  0.00  0.00    +0.041 A 
ATOM     24  C   UNL     1       0.729  11.582   1.538  0.00  0.00    +0.178 C 
ATOM     25  C   UNL     1       1.429  13.545   2.617  0.00  0.00    +0.178 C 
ATOM     26  C   UNL     1       4.169  11.035   2.896  0.00  0.00    +0.121 A 
ATOM     27  C   UNL     1       6.033   9.789   2.102  0.00  0.00    +0.016 A 
ATOM     28  C   UNL     1       4.786  10.355   1.858  0.00  0.00    +0.044 A 
ATOM     29  C   UNL     1       5.917  10.620   4.328  0.00  0.00    +0.124 A 
ENDBRANCH  17  21
BRANCH  15  10
ATOM      5  N   UNL     1      10.428   5.871   4.384  0.00  0.00    -0.284 NA
ATOM     10  C   UNL     1      10.517   6.936   3.365  0.00  0.00    +0.146 C 
ATOM     11  C   UNL     1      10.327   6.209   2.020  0.00  0.00    +0.030 C 
ATOM     12  C   UNL     1      10.200   4.735   2.381  0.00  0.00    +0.017 C 
ATOM     13  C   UNL     1      10.875   4.639   3.735  0.00  0.00    +0.085 C 
BRANCH   5  14
ATOM     14  C   UNL     1      11.192   6.164   5.590  0.00  0.00    +0.159 C 
BRANCH  14  16
ATOM      2  O   UNL     1      10.309   5.127   7.606  0.00  0.00    -0.461 OA
ATOM     16  C   UNL     1      10.313   6.228   6.809  0.00  0.00    +0.119 A 
ATOM     18  C   UNL     1       9.477   7.195   7.317  0.00  0.00    +0.046 A 
ATOM     22  C   UNL     1       9.461   5.394   8.634  0.00  0.00    +0.131 A 
ATOM     23  C   UNL     1       8.924   6.653   8.503  0.00  0.00    +0.047 A 
BRANCH  22  30
ATOM     30  C   UNL     1       9.297   4.330   9.635  0.00  0.00    +0.230 C 
BRANCH  30   4
ATOM      4  O   UNL     1      10.111   4.599  10.779  0.00  0.00    -0.387 OA
ATOM     31  H   UNL     1       9.555   5.082  11.415  0.00  0.00    +0.210 HD
ENDBRANCH  30   4
ENDBRANCH  22  30
ENDBRANCH  14  16
ENDBRANCH   5  14
ENDBRANCH  15  10
TORSDOF 6
ENDMDL
MODEL 10
REMARK VINA RESULT:      -6.5     27.200     28.560
REMARK  Name = 45783511
REMARK  6 active torsions:
REMARK  status: ('A' for Active; 'I' for Inactive)
REMARK    1  A    between atoms: O_4  and  C_30
REMARK    2  A    between atoms: N_5  and  C_14
REMARK    3  A    between atoms: C_10  and  C_15
REMARK    4  A    between atoms: C_14  and  C_16
REMARK    5  A    between atoms: C_17  and  C_21
REMARK    6  A    between atoms: C_22  and  C_30
REMARK                            x       y       z     vdW  Elec       q    Type
REMARK                         _______ _______ _______ _____ _____    ______ ____
ROOT
ATOM      1  O   UNL     1      -1.834 -10.248  11.706  0.00  0.00    -0.336 OA
ATOM      6  N   UNL     1      -3.984 -10.857  11.869  0.00  0.00    -0.190 NA
ATOM      8  N   UNL     1      -2.517  -9.535  10.712  0.00  0.00    -0.056 NA
ATOM     15  C   UNL     1      -2.771 -11.001  12.339  0.00  0.00    +0.245 A 
ATOM     17  C   UNL     1      -3.778  -9.948  10.871  0.00  0.00    +0.204 A 
ENDROOT
BRANCH  17  21
ATOM      3  O   UNL     1      -9.807  -7.143   5.798  0.00  0.00    -0.377 OA
ATOM      7  N   UNL     1      -7.906  -8.135   7.616  0.00  0.00    -0.311 N 
ATOM      9  N   UNL     1      -5.791  -9.171   7.843  0.00  0.00    -0.240 NA
ATOM     19  C   UNL     1      -8.278  -6.716   7.632  0.00  0.00    +0.134 C 
ATOM     20  C   UNL     1      -8.154  -8.832   6.346  0.00  0.00    +0.134 C 
ATOM     21  C   UNL     1      -4.854  -9.473  10.051  0.00  0.00    +0.041 A 
ATOM     24  C   UNL     1      -9.692  -6.547   7.089  0.00  0.00    +0.178 C 
ATOM     25  C   UNL     1      -9.576  -8.550   5.873  0.00  0.00    +0.178 C 
ATOM     26  C   UNL     1      -6.864  -8.593   8.428  0.00  0.00    +0.121 A 
ATOM     27  C   UNL     1      -5.975  -8.873  10.616  0.00  0.00    +0.016 A 
ATOM     28  C   UNL     1      -7.004  -8.422   9.796  0.00  0.00    +0.044 A 
ATOM     29  C   UNL     1      -4.812  -9.597   8.672  0.00  0.00    +0.124 A 
ENDBRANCH  17  21
BRANCH  15  10
ATOM      5  N   UNL     1      -3.244 -11.953  14.590  0.00  0.00    -0.284 NA
ATOM     10  C   UNL     1      -2.280 -11.875  13.474  0.00  0.00    +0.146 C 
ATOM     11  C   UNL     1      -2.057 -13.338  13.045  0.00  0.00    +0.030 C 
ATOM     12  C   UNL     1      -2.890 -14.167  14.014  0.00  0.00    +0.017 C 
ATOM     13  C   UNL     1      -3.044 -13.259  15.218  0.00  0.00    +0.085 C 
BRANCH   5  14
ATOM     14  C   UNL     1      -3.109 -10.860  15.543  0.00  0.00    +0.159 C 
BRANCH  14  16
ATOM      2  O   UNL     1      -4.504 -11.028  17.530  0.00  0.00    -0.461 OA
ATOM     16  C   UNL     1      -4.404 -10.571  16.253  0.00  0.00    +0.119 A 
ATOM     18  C   UNL     1      -5.557  -9.922  15.879  0.00  0.00    +0.046 A 
ATOM     22  C   UNL     1      -5.736 -10.664  17.976  0.00  0.00    +0.131 A 
ATOM     23  C   UNL     1      -6.423  -9.983  16.999  0.00  0.00    +0.047 A 
BRANCH  22  30
ATOM     30  C   UNL     1      -6.070 -11.056  19.353  0.00  0.00    +0.230 C 
BRANCH  30   4
ATOM      4  O   UNL     1      -6.538  -9.924  20.089  0.00  0.00    -0.387 OA
ATOM     31  H   UNL     1      -5.752  -9.426  20.372  0.00  0.00    +0.210 HD
ENDBRANCH  30   4
ENDBRANCH  22  30
ENDBRANCH  14  16
ENDBRANCH   5  14
ENDBRANCH  15  10
TORSDOF 6
ENDMDL
