REMARK  Name = 38027918
REMARK  11 active torsions:
REMARK  status: ('A' for Active; 'I' for Inactive)
REMARK    1  A    between atoms: N_4  and  C_15
REMARK    2  A    between atoms: N_5  and  C_25
REMARK    3  A    between atoms: N_6  and  C_26
REMARK    4  A    between atoms: C_7  and  C_11
REMARK    5  A    between atoms: C_8  and  C_15
REMARK    6  A    between atoms: C_10  and  C_14
REMARK    7  A    between atoms: C_11  and  C_16
REMARK    8  A    between atoms: C_11  and  C_17
REMARK    9  A    between atoms: C_12  and  C_18
REMARK   10  A    between atoms: C_14  and  C_19
REMARK   11  A    between atoms: C_26  and  C_27
REMARK                            x       y       z     vdW  Elec       q    Type
REMARK                         _______ _______ _______ _____ _____    ______ ____
ROOT
ATOM      7  C   UNL     1       1.998   0.883  -0.888  0.00  0.00    +0.000 C 
ATOM      8  C   UNL     1       3.194   0.953   0.095  0.00  0.00    +0.032 C 
ATOM      9  C   UNL     1       1.094   2.114  -0.722  0.00  0.00    +0.012 C 
ATOM     10  C   UNL     1       0.542   2.242   0.711  0.00  0.00    +0.023 C 
ATOM     12  C   UNL     1       1.626   2.054   1.752  0.00  0.00    -0.073 C 
ATOM     13  C   UNL     1       2.810   1.488   1.455  0.00  0.00    -0.022 C 
ATOM     18  C   UNL     1       1.337   2.572   3.133  0.00  0.00    +0.039 C 
ENDROOT
BRANCH   7  11
ATOM     11  C   UNL     1       2.464   0.774  -2.343  0.00  0.00    -0.013 C 
ATOM     16  C   UNL     1       1.384   0.122  -3.200  0.00  0.00    +0.007 C 
ATOM     17  C   UNL     1       2.830   2.151  -2.888  0.00  0.00    +0.007 C 
ENDBRANCH   7  11
BRANCH  10  14
ATOM     14  C   UNL     1      -0.618   1.268   0.944  0.00  0.00    +0.103 C 
BRANCH  14  19
ATOM      1  O   UNL     1      -1.808   2.827  -0.386  0.00  0.00    -0.276 OA
ATOM      3  N   UNL     1      -2.999   0.977   0.358  0.00  0.00    -0.299 N 
ATOM      5  N   UNL     1      -5.101  -0.914  -0.106  0.00  0.00    -0.302 NA
ATOM     19  C   UNL     1      -1.857   1.768   0.245  0.00  0.00    +0.216 C 
ATOM     20  C   UNL     1      -4.240   1.391  -0.295  0.00  0.00    +0.123 C 
ATOM     21  C   UNL     1      -3.126  -0.212   1.206  0.00  0.00    +0.123 C 
ATOM     22  C   UNL     1      -4.902   0.220  -1.020  0.00  0.00    +0.103 C 
ATOM     23  C   UNL     1      -3.815  -1.353   0.455  0.00  0.00    +0.103 C 
ATOM     25  C   UNL     1      -5.765  -2.019  -0.796  0.00  0.00    +0.105 C 
ENDBRANCH  14  19
ENDBRANCH  10  14
BRANCH   8  15
ATOM     15  C   UNL     1       3.860  -0.418   0.255  0.00  0.00    +0.113 C 
BRANCH  15   4
ATOM      2  O   UNL     1       2.890  -2.910  -0.831  0.00  0.00    -0.253 OA
ATOM      4  N   UNL     1       2.971  -1.344   0.884  0.00  0.00    -0.299 N 
ATOM      6  N   UNL     1       1.682  -3.250   1.120  0.00  0.00    -0.300 N 
ATOM     24  C   UNL     1       2.543  -2.538   0.289  0.00  0.00    +0.300 C 
ATOM     28  H   UNL     1       2.680  -1.164   1.841  0.00  0.00    +0.150 HD
ATOM     29  H   UNL     1       1.441  -2.857   2.025  0.00  0.00    +0.150 HD
BRANCH   6  26
ATOM     26  C   UNL     1       1.099  -4.516   0.743  0.00  0.00    +0.102 C 
ATOM     27  C   UNL     1      -0.093  -4.327  -0.172  0.00  0.00    +0.024 C 
ENDBRANCH   6  26
ENDBRANCH  15   4
ENDBRANCH   8  15
TORSDOF 6
