REMARK  Name = 75536678
REMARK  7 active torsions:
REMARK  status: ('A' for Active; 'I' for Inactive)
REMARK    1  A    between atoms: S_1  and  N_8
REMARK    2  A    between atoms: S_1  and  C_19
REMARK    3  A    between atoms: O_3  and  C_10
REMARK    4  A    between atoms: N_6  and  C_9
REMARK    5  A    between atoms: N_6  and  C_11
REMARK    6  A    between atoms: N_8  and  C_16
REMARK    7  A    between atoms: C_12  and  C_16
REMARK                            x       y       z     vdW  Elec       q    Type
REMARK                         _______ _______ _______ _____ _____    ______ ____
ROOT
ATOM      2  O   UNL     1      -0.438   0.684  -1.356  0.00  0.00    -0.371 OA
ATOM      9  C   UNL     1      -2.305   0.212   0.034  0.00  0.00    +0.111 C 
ATOM     10  C   UNL     1      -1.032   0.045   0.842  0.00  0.00    +0.164 C 
ATOM     12  C   UNL     1      -0.050   0.865   0.016  0.00  0.00    +0.164 C 
ATOM     13  C   UNL     1      -1.770   0.143  -1.387  0.00  0.00    +0.181 C 
ENDROOT
BRANCH  10   3
ATOM      3  O   UNL     1      -1.153   0.541   2.161  0.00  0.00    -0.388 OA
ATOM     27  H   UNL     1      -1.425   1.473   2.114  0.00  0.00    +0.210 HD
ENDBRANCH  10   3
BRANCH   9   6
ATOM      6  N   UNL     1      -3.309  -0.802   0.310  0.00  0.00    -0.306 NA
ATOM     25  H   UNL     1      -3.380  -0.960   1.315  0.00  0.00    +0.123 HD
BRANCH   6  11
ATOM      7  N   UNL     1      -7.521  -0.248   0.081  0.00  0.00    -0.316 NA
ATOM     11  C   UNL     1      -4.610  -0.403  -0.221  0.00  0.00    +0.056 C 
ATOM     14  C   UNL     1      -5.283   0.628   0.693  0.00  0.00    +0.034 C 
ATOM     15  C   UNL     1      -5.514  -1.628  -0.389  0.00  0.00    +0.034 C 
ATOM     17  C   UNL     1      -6.693   0.954   0.200  0.00  0.00    +0.082 C 
ATOM     18  C   UNL     1      -6.915  -1.214  -0.840  0.00  0.00    +0.082 C 
ATOM     26  H   UNL     1      -8.444   0.012  -0.264  0.00  0.00    +0.122 HD
ENDBRANCH   6  11
ENDBRANCH   9   6
BRANCH  12  16
ATOM     16  C   UNL     1       1.395   0.438   0.202  0.00  0.00    +0.140 C 
BRANCH  16   8
ATOM      8  N   UNL     1       2.272   1.283  -0.632  0.00  0.00    -0.187 NA
ATOM     28  H   UNL     1       2.073   1.274  -1.640  0.00  0.00    +0.148 HD
BRANCH   8   1
ATOM      1  S   UNL     1       3.859   1.625  -0.124  0.00  0.00    +0.058 S 
ATOM      4  O   UNL     1       3.825   2.186   1.213  0.00  0.00    -0.153 OA
ATOM      5  O   UNL     1       4.556   2.321  -1.189  0.00  0.00    -0.153 OA
BRANCH   1  19
ATOM     19  C   UNL     1       4.563   0.007  -0.018  0.00  0.00    +0.105 A 
ATOM     20  C   UNL     1       5.192  -0.554  -1.129  0.00  0.00    +0.028 A 
ATOM     21  C   UNL     1       4.484  -0.711   1.175  0.00  0.00    +0.028 A 
ATOM     22  C   UNL     1       5.744  -1.833  -1.047  0.00  0.00    +0.002 A 
ATOM     23  C   UNL     1       5.036  -1.989   1.258  0.00  0.00    +0.002 A 
ATOM     24  C   UNL     1       5.666  -2.550   0.146  0.00  0.00    +0.000 A 
ENDBRANCH   1  19
ENDBRANCH   8   1
ENDBRANCH  16   8
ENDBRANCH  12  16
TORSDOF 7
