MODEL 1
REMARK VINA RESULT:      -7.1      0.000      0.000
REMARK  Name = 9421717
REMARK  4 active torsions:
REMARK  status: ('A' for Active; 'I' for Inactive)
REMARK    1  A    between atoms: N_5  and  C_24
REMARK    2  A    between atoms: C_13  and  C_14
REMARK    3  A    between atoms: C_24  and  C_25
REMARK    4  A    between atoms: C_24  and  C_26
REMARK                            x       y       z     vdW  Elec       q    Type
REMARK                         _______ _______ _______ _____ _____    ______ ____
ROOT
ATOM      1  O   UNL     1      14.161  11.362  22.305  0.00  0.00    -0.267 OA
ATOM      2  O   UNL     1      12.257   9.221  16.998  0.00  0.00    -0.253 OA
ATOM      3  N   UNL     1      13.514   9.298  21.425  0.00  0.00    -0.312 N 
ATOM      4  N   UNL     1      13.755   8.159  18.419  0.00  0.00    -0.285 N 
ATOM      5  N   UNL     1      14.440   9.926  17.004  0.00  0.00    -0.297 N 
ATOM      6  C   UNL     1      15.182   7.638  20.420  0.00  0.00    +0.027 C 
ATOM      7  C   UNL     1      12.790   7.089  20.458  0.00  0.00    +0.054 C 
ATOM      8  C   UNL     1      14.176   6.577  20.842  0.00  0.00    +0.018 C 
ATOM      9  C   UNL     1      14.918   8.917  21.226  0.00  0.00    +0.130 C 
ATOM     10  C   UNL     1      15.118   7.892  18.902  0.00  0.00    +0.114 C 
ATOM     11  C   UNL     1      12.717   7.256  18.931  0.00  0.00    +0.119 C 
ATOM     12  C   UNL     1      12.477   8.407  21.139  0.00  0.00    +0.027 A 
ATOM     14  C   UNL     1      11.846  10.897  22.316  0.00  0.00    +0.020 A 
ATOM     15  C   UNL     1      13.276  10.554  22.018  0.00  0.00    +0.255 A 
ATOM     16  C   UNL     1      11.209   8.731  21.440  0.00  0.00    +0.022 A 
ATOM     19  C   UNL     1      10.894   9.997  22.036  0.00  0.00    +0.011 A 
ATOM     23  C   UNL     1      13.404   9.111  17.444  0.00  0.00    +0.302 C 
ATOM     27  H   UNL     1      15.399   9.738  17.259  0.00  0.00    +0.150 HD
ENDROOT
BRANCH  14  13
ATOM     13  C   UNL     1      11.559  12.236  22.928  0.00  0.00    +0.024 C 
ATOM     17  C   UNL     1      10.718  12.083  24.203  0.00  0.00    +0.008 C 
ATOM     18  C   UNL     1      10.857  13.158  21.921  0.00  0.00    +0.008 C 
ATOM     20  C   UNL     1      10.373  13.438  24.818  0.00  0.00    +0.001 C 
ATOM     21  C   UNL     1      10.512  14.511  22.540  0.00  0.00    +0.001 C 
ATOM     22  C   UNL     1       9.684  14.353  23.811  0.00  0.00    +0.000 C 
ENDBRANCH  14  13
BRANCH   5  24
ATOM     24  C   UNL     1      14.242  10.949  16.001  0.00  0.00    +0.068 C 
ATOM     25  C   UNL     1      15.219  10.755  14.848  0.00  0.00    +0.027 C 
ATOM     26  C   UNL     1      14.384  12.336  16.616  0.00  0.00    +0.027 C 
ENDBRANCH   5  24
TORSDOF 2
ENDMDL
MODEL 2
REMARK VINA RESULT:      -6.7      2.905      6.620
REMARK  Name = 9421717
REMARK  4 active torsions:
REMARK  status: ('A' for Active; 'I' for Inactive)
REMARK    1  A    between atoms: N_5  and  C_24
REMARK    2  A    between atoms: C_13  and  C_14
REMARK    3  A    between atoms: C_24  and  C_25
REMARK    4  A    between atoms: C_24  and  C_26
REMARK                            x       y       z     vdW  Elec       q    Type
REMARK                         _______ _______ _______ _____ _____    ______ ____
ROOT
ATOM      1  O   UNL     1      14.250  12.183  18.046  0.00  0.00    -0.267 OA
ATOM      2  O   UNL     1      15.567   6.411  19.195  0.00  0.00    -0.253 OA
ATOM      3  N   UNL     1      13.074  10.220  18.508  0.00  0.00    -0.312 N 
ATOM      4  N   UNL     1      13.929   7.659  20.269  0.00  0.00    -0.285 N 
ATOM      5  N   UNL     1      16.215   7.873  20.838  0.00  0.00    -0.297 N 
ATOM      6  C   UNL     1      12.386   9.545  20.878  0.00  0.00    +0.027 C 
ATOM      7  C   UNL     1      11.830   8.084  18.986  0.00  0.00    +0.054 C 
ATOM      8  C   UNL     1      11.243   8.811  20.194  0.00  0.00    +0.018 C 
ATOM      9  C   UNL     1      12.937  10.608  19.917  0.00  0.00    +0.130 C 
ATOM     10  C   UNL     1      13.481   8.564  21.338  0.00  0.00    +0.114 C 
ATOM     11  C   UNL     1      12.859   7.049  19.470  0.00  0.00    +0.119 C 
ATOM     12  C   UNL     1      12.483   9.052  18.020  0.00  0.00    +0.027 A 
ATOM     14  C   UNL     1      13.781  10.784  16.203  0.00  0.00    +0.020 A 
ATOM     15  C   UNL     1      13.733  11.134  17.661  0.00  0.00    +0.255 A 
ATOM     16  C   UNL     1      12.520   8.778  16.706  0.00  0.00    +0.022 A 
ATOM     19  C   UNL     1      13.182   9.660  15.788  0.00  0.00    +0.011 A 
ATOM     23  C   UNL     1      15.258   7.257  20.040  0.00  0.00    +0.302 C 
ATOM     27  H   UNL     1      15.949   8.450  21.624  0.00  0.00    +0.150 HD
ENDROOT
BRANCH  14  13
ATOM     13  C   UNL     1      14.493  11.727  15.279  0.00  0.00    +0.024 C 
ATOM     17  C   UNL     1      13.604  12.092  14.082  0.00  0.00    +0.008 C 
ATOM     18  C   UNL     1      15.824  11.127  14.804  0.00  0.00    +0.008 C 
ATOM     20  C   UNL     1      14.326  13.015  13.102  0.00  0.00    +0.001 C 
ATOM     21  C   UNL     1      16.542  12.051  13.823  0.00  0.00    +0.001 C 
ATOM     22  C   UNL     1      15.652  12.417  12.641  0.00  0.00    +0.000 C 
ENDBRANCH  14  13
BRANCH   5  24
ATOM     24  C   UNL     1      17.623   7.564  20.730  0.00  0.00    +0.068 C 
ATOM     25  C   UNL     1      17.946   6.290  21.499  0.00  0.00    +0.027 C 
ATOM     26  C   UNL     1      18.466   8.735  21.222  0.00  0.00    +0.027 C 
ENDBRANCH   5  24
TORSDOF 2
ENDMDL
MODEL 3
REMARK VINA RESULT:      -6.6     14.192     18.184
REMARK  Name = 9421717
REMARK  4 active torsions:
REMARK  status: ('A' for Active; 'I' for Inactive)
REMARK    1  A    between atoms: N_5  and  C_24
REMARK    2  A    between atoms: C_13  and  C_14
REMARK    3  A    between atoms: C_24  and  C_25
REMARK    4  A    between atoms: C_24  and  C_26
REMARK                            x       y       z     vdW  Elec       q    Type
REMARK                         _______ _______ _______ _____ _____    ______ ____
ROOT
ATOM      1  O   UNL     1      10.727   7.342   1.840  0.00  0.00    -0.267 OA
ATOM      2  O   UNL     1      13.293   6.580   7.245  0.00  0.00    -0.253 OA
ATOM      3  N   UNL     1      10.065   6.633   3.963  0.00  0.00    -0.312 N 
ATOM      4  N   UNL     1      11.181   7.470   6.869  0.00  0.00    -0.285 N 
ATOM      5  N   UNL     1      13.137   8.767   6.573  0.00  0.00    -0.297 N 
ATOM      6  C   UNL     1       9.084   8.225   5.710  0.00  0.00    +0.027 C 
ATOM      7  C   UNL     1       9.381   5.851   6.257  0.00  0.00    +0.054 C 
ATOM      8  C   UNL     1       8.367   6.992   6.237  0.00  0.00    +0.018 C 
ATOM      9  C   UNL     1       9.519   7.963   4.262  0.00  0.00    +0.130 C 
ATOM     10  C   UNL     1      10.278   8.600   6.609  0.00  0.00    +0.114 C 
ATOM     11  C   UNL     1      10.522   6.206   7.225  0.00  0.00    +0.119 C 
ATOM     12  C   UNL     1       9.939   5.581   4.874  0.00  0.00    +0.027 A 
ATOM     14  C   UNL     1      11.078   5.062   2.340  0.00  0.00    +0.020 A 
ATOM     15  C   UNL     1      10.616   6.448   2.680  0.00  0.00    +0.255 A 
ATOM     16  C   UNL     1      10.338   4.345   4.533  0.00  0.00    +0.022 A 
ATOM     19  C   UNL     1      10.917   4.088   3.246  0.00  0.00    +0.011 A 
ATOM     23  C   UNL     1      12.586   7.538   6.917  0.00  0.00    +0.302 C 
ATOM     27  H   UNL     1      12.556   9.585   6.450  0.00  0.00    +0.150 HD
ENDROOT
BRANCH  14  13
ATOM     13  C   UNL     1      11.688   4.837   0.989  0.00  0.00    +0.024 C 
ATOM     17  C   UNL     1      10.636   4.331  -0.007  0.00  0.00    +0.008 C 
ATOM     18  C   UNL     1      12.868   3.858   1.077  0.00  0.00    +0.008 C 
ATOM     20  C   UNL     1      11.245   4.050  -1.379  0.00  0.00    +0.001 C 
ATOM     21  C   UNL     1      13.473   3.578  -0.296  0.00  0.00    +0.001 C 
ATOM     22  C   UNL     1      12.422   3.083  -1.284  0.00  0.00    +0.000 C 
ENDBRANCH  14  13
BRANCH   5  24
ATOM     24  C   UNL     1      14.563   9.000   6.579  0.00  0.00    +0.068 C 
ATOM     25  C   UNL     1      14.855  10.495   6.589  0.00  0.00    +0.027 C 
ATOM     26  C   UNL     1      15.221   8.317   5.386  0.00  0.00    +0.027 C 
ENDBRANCH   5  24
TORSDOF 2
ENDMDL
MODEL 4
REMARK VINA RESULT:      -6.5      3.107      6.347
REMARK  Name = 9421717
REMARK  4 active torsions:
REMARK  status: ('A' for Active; 'I' for Inactive)
REMARK    1  A    between atoms: N_5  and  C_24
REMARK    2  A    between atoms: C_13  and  C_14
REMARK    3  A    between atoms: C_24  and  C_25
REMARK    4  A    between atoms: C_24  and  C_26
REMARK                            x       y       z     vdW  Elec       q    Type
REMARK                         _______ _______ _______ _____ _____    ______ ____
ROOT
ATOM      1  O   UNL     1      13.846  11.704  19.021  0.00  0.00    -0.267 OA
ATOM      2  O   UNL     1      17.672   7.183  20.160  0.00  0.00    -0.253 OA
ATOM      3  N   UNL     1      13.715   9.401  19.377  0.00  0.00    -0.312 N 
ATOM      4  N   UNL     1      15.590   7.467  21.148  0.00  0.00    -0.285 N 
ATOM      5  N   UNL     1      17.475   8.705  21.864  0.00  0.00    -0.297 N 
ATOM      6  C   UNL     1      13.313   8.379  21.689  0.00  0.00    +0.027 C 
ATOM      7  C   UNL     1      13.603   6.912  19.743  0.00  0.00    +0.054 C 
ATOM      8  C   UNL     1      12.685   7.224  20.922  0.00  0.00    +0.018 C 
ATOM      9  C   UNL     1      13.343   9.616  20.781  0.00  0.00    +0.130 C 
ATOM     10  C   UNL     1      14.717   8.008  22.201  0.00  0.00    +0.114 C 
ATOM     11  C   UNL     1      14.974   6.461  20.274  0.00  0.00    +0.119 C 
ATOM     12  C   UNL     1      13.768   8.114  18.835  0.00  0.00    +0.027 A 
ATOM     14  C   UNL     1      14.182  10.330  17.130  0.00  0.00    +0.020 A 
ATOM     15  C   UNL     1      13.904  10.552  18.588  0.00  0.00    +0.255 A 
ATOM     16  C   UNL     1      13.994   7.947  17.522  0.00  0.00    +0.022 A 
ATOM     19  C   UNL     1      14.205   9.075  16.661  0.00  0.00    +0.011 A 
ATOM     23  C   UNL     1      16.961   7.747  20.998  0.00  0.00    +0.302 C 
ATOM     27  H   UNL     1      16.930   9.055  22.640  0.00  0.00    +0.150 HD
ENDROOT
BRANCH  14  13
ATOM     13  C   UNL     1      14.408  11.536  16.268  0.00  0.00    +0.024 C 
ATOM     17  C   UNL     1      13.747  11.356  14.894  0.00  0.00    +0.008 C 
ATOM     18  C   UNL     1      15.908  11.825  16.115  0.00  0.00    +0.008 C 
ATOM     20  C   UNL     1      14.005  12.553  13.981  0.00  0.00    +0.001 C 
ATOM     21  C   UNL     1      16.162  13.021  15.201  0.00  0.00    +0.001 C 
ATOM     22  C   UNL     1      15.497  12.841  13.841  0.00  0.00    +0.000 C 
ENDBRANCH  14  13
BRANCH   5  24
ATOM     24  C   UNL     1      18.865   9.100  21.840  0.00  0.00    +0.068 C 
ATOM     25  C   UNL     1      19.665   8.283  22.847  0.00  0.00    +0.027 C 
ATOM     26  C   UNL     1      19.002  10.594  22.108  0.00  0.00    +0.027 C 
ENDBRANCH   5  24
TORSDOF 2
ENDMDL
MODEL 5
REMARK VINA RESULT:      -6.3     15.335     19.367
REMARK  Name = 9421717
REMARK  4 active torsions:
REMARK  status: ('A' for Active; 'I' for Inactive)
REMARK    1  A    between atoms: N_5  and  C_24
REMARK    2  A    between atoms: C_13  and  C_14
REMARK    3  A    between atoms: C_24  and  C_25
REMARK    4  A    between atoms: C_24  and  C_26
REMARK                            x       y       z     vdW  Elec       q    Type
REMARK                         _______ _______ _______ _____ _____    ______ ____
ROOT
ATOM      1  O   UNL     1      12.401   7.511   3.250  0.00  0.00    -0.267 OA
ATOM      2  O   UNL     1       9.667   4.794  -1.389  0.00  0.00    -0.253 OA
ATOM      3  N   UNL     1      12.619   5.508   2.070  0.00  0.00    -0.312 N 
ATOM      4  N   UNL     1      11.958   4.836  -1.013  0.00  0.00    -0.285 N 
ATOM      5  N   UNL     1      10.829   6.689  -1.955  0.00  0.00    -0.297 N 
ATOM      6  C   UNL     1      14.189   5.246   0.067  0.00  0.00    +0.027 C 
ATOM      7  C   UNL     1      12.819   3.345   0.796  0.00  0.00    +0.054 C 
ATOM      8  C   UNL     1      14.246   3.781   0.472  0.00  0.00    +0.018 C 
ATOM      9  C   UNL     1      13.711   6.073   1.268  0.00  0.00    +0.130 C 
ATOM     10  C   UNL     1      13.287   5.448  -1.165  0.00  0.00    +0.114 C 
ATOM     11  C   UNL     1      11.951   3.473  -0.467  0.00  0.00    +0.119 C 
ATOM     12  C   UNL     1      12.226   4.176   1.917  0.00  0.00    +0.027 A 
ATOM     14  C   UNL     1      11.027   5.724   3.954  0.00  0.00    +0.020 A 
ATOM     15  C   UNL     1      12.070   6.338   3.067  0.00  0.00    +0.255 A 
ATOM     16  C   UNL     1      11.308   3.646   2.742  0.00  0.00    +0.022 A 
ATOM     19  C   UNL     1      10.701   4.438   3.773  0.00  0.00    +0.011 A 
ATOM     23  C   UNL     1      10.743   5.398  -1.447  0.00  0.00    +0.302 C 
ATOM     27  H   UNL     1      11.724   7.121  -2.137  0.00  0.00    +0.150 HD
ENDROOT
BRANCH  14  13
ATOM     13  C   UNL     1      10.409   6.589   5.012  0.00  0.00    +0.024 C 
ATOM     17  C   UNL     1      11.109   6.383   6.362  0.00  0.00    +0.008 C 
ATOM     18  C   UNL     1       8.903   6.313   5.133  0.00  0.00    +0.008 C 
ATOM     20  C   UNL     1      10.465   7.219   7.466  0.00  0.00    +0.001 C 
ATOM     21  C   UNL     1       8.263   7.149   6.239  0.00  0.00    +0.001 C 
ATOM     22  C   UNL     1       8.968   6.947   7.576  0.00  0.00    +0.000 C 
ENDBRANCH  14  13
BRANCH   5  24
ATOM     24  C   UNL     1       9.672   7.402  -2.448  0.00  0.00    +0.068 C 
ATOM     25  C   UNL     1      10.042   8.233  -3.669  0.00  0.00    +0.027 C 
ATOM     26  C   UNL     1       9.073   8.271  -1.348  0.00  0.00    +0.027 C 
ENDBRANCH   5  24
TORSDOF 2
ENDMDL
MODEL 6
REMARK VINA RESULT:      -6.3     27.300     29.658
REMARK  Name = 9421717
REMARK  4 active torsions:
REMARK  status: ('A' for Active; 'I' for Inactive)
REMARK    1  A    between atoms: N_5  and  C_24
REMARK    2  A    between atoms: C_13  and  C_14
REMARK    3  A    between atoms: C_24  and  C_25
REMARK    4  A    between atoms: C_24  and  C_26
REMARK                            x       y       z     vdW  Elec       q    Type
REMARK                         _______ _______ _______ _____ _____    ______ ____
ROOT
ATOM      1  O   UNL     1      -2.828 -10.704  14.229  0.00  0.00    -0.267 OA
ATOM      2  O   UNL     1      -6.739 -14.827  16.247  0.00  0.00    -0.253 OA
ATOM      3  N   UNL     1      -4.705 -10.746  15.617  0.00  0.00    -0.312 N 
ATOM      4  N   UNL     1      -5.831 -13.102  17.508  0.00  0.00    -0.285 N 
ATOM      5  N   UNL     1      -4.607 -15.074  17.053  0.00  0.00    -0.297 N 
ATOM      6  C   UNL     1      -4.544 -11.044  18.153  0.00  0.00    +0.027 C 
ATOM      7  C   UNL     1      -6.745 -10.816  17.092  0.00  0.00    +0.054 C 
ATOM      8  C   UNL     1      -5.847 -10.260  18.194  0.00  0.00    +0.018 C 
ATOM      9  C   UNL     1      -3.850 -10.780  16.810  0.00  0.00    +0.130 C 
ATOM     10  C   UNL     1      -4.791 -12.546  18.387  0.00  0.00    +0.114 C 
ATOM     11  C   UNL     1      -7.051 -12.294  17.386  0.00  0.00    +0.119 C 
ATOM     12  C   UNL     1      -6.096 -10.682  15.728  0.00  0.00    +0.027 A 
ATOM     14  C   UNL     1      -4.927 -10.532  13.160  0.00  0.00    +0.020 A 
ATOM     15  C   UNL     1      -4.051 -10.671  14.371  0.00  0.00    +0.255 A 
ATOM     16  C   UNL     1      -6.853 -10.533  14.629  0.00  0.00    +0.022 A 
ATOM     19  C   UNL     1      -6.254 -10.459  13.328  0.00  0.00    +0.011 A 
ATOM     23  C   UNL     1      -5.791 -14.366  16.890  0.00  0.00    +0.302 C 
ATOM     27  H   UNL     1      -3.894 -14.761  17.698  0.00  0.00    +0.150 HD
ENDROOT
BRANCH  14  13
ATOM     13  C   UNL     1      -4.261 -10.470  11.818  0.00  0.00    +0.024 C 
ATOM     17  C   UNL     1      -4.638  -9.177  11.081  0.00  0.00    +0.008 C 
ATOM     18  C   UNL     1      -4.619 -11.701  10.973  0.00  0.00    +0.008 C 
ATOM     20  C   UNL     1      -4.009  -9.115   9.691  0.00  0.00    +0.001 C 
ATOM     21  C   UNL     1      -3.991 -11.634   9.583  0.00  0.00    +0.001 C 
ATOM     22  C   UNL     1      -4.362 -10.344   8.859  0.00  0.00    +0.000 C 
ENDBRANCH  14  13
BRANCH   5  24
ATOM     24  C   UNL     1      -4.411 -16.389  16.486  0.00  0.00    +0.068 C 
ATOM     25  C   UNL     1      -4.229 -17.421  17.591  0.00  0.00    +0.027 C 
ATOM     26  C   UNL     1      -3.223 -16.387  15.531  0.00  0.00    +0.027 C 
ENDBRANCH   5  24
TORSDOF 2
ENDMDL
MODEL 7
REMARK VINA RESULT:      -6.3     14.283     18.188
REMARK  Name = 9421717
REMARK  4 active torsions:
REMARK  status: ('A' for Active; 'I' for Inactive)
REMARK    1  A    between atoms: N_5  and  C_24
REMARK    2  A    between atoms: C_13  and  C_14
REMARK    3  A    between atoms: C_24  and  C_25
REMARK    4  A    between atoms: C_24  and  C_26
REMARK                            x       y       z     vdW  Elec       q    Type
REMARK                         _______ _______ _______ _____ _____    ______ ____
ROOT
ATOM      1  O   UNL     1      10.124   4.609   3.132  0.00  0.00    -0.267 OA
ATOM      2  O   UNL     1       9.471  10.362   4.820  0.00  0.00    -0.253 OA
ATOM      3  N   UNL     1      10.691   5.926   4.975  0.00  0.00    -0.312 N 
ATOM      4  N   UNL     1       9.215   8.515   6.204  0.00  0.00    -0.285 N 
ATOM      5  N   UNL     1       7.508   9.182   4.708  0.00  0.00    -0.297 N 
ATOM      6  C   UNL     1       9.188   6.144   7.034  0.00  0.00    +0.027 C 
ATOM      7  C   UNL     1      11.310   7.374   6.940  0.00  0.00    +0.054 C 
ATOM      8  C   UNL     1      10.484   6.409   7.786  0.00  0.00    +0.018 C 
ATOM      9  C   UNL     1       9.519   5.438   5.713  0.00  0.00    +0.130 C 
ATOM     10  C   UNL     1       8.401   7.449   6.806  0.00  0.00    +0.114 C 
ATOM     11  C   UNL     1      10.547   8.701   6.793  0.00  0.00    +0.119 C 
ATOM     12  C   UNL     1      11.609   6.794   5.571  0.00  0.00    +0.027 A 
ATOM     14  C   UNL     1      12.149   5.813   2.976  0.00  0.00    +0.020 A 
ATOM     15  C   UNL     1      10.896   5.392   3.687  0.00  0.00    +0.255 A 
ATOM     16  C   UNL     1      12.734   7.134   4.921  0.00  0.00    +0.022 A 
ATOM     19  C   UNL     1      13.002   6.634   3.603  0.00  0.00    +0.011 A 
ATOM     23  C   UNL     1       8.780   9.418   5.215  0.00  0.00    +0.302 C 
ATOM     27  H   UNL     1       6.892   8.503   5.135  0.00  0.00    +0.150 HD
ENDROOT
BRANCH  14  13
ATOM     13  C   UNL     1      12.386   5.277   1.596  0.00  0.00    +0.024 C 
ATOM     17  C   UNL     1      12.982   3.863   1.655  0.00  0.00    +0.008 C 
ATOM     18  C   UNL     1      13.296   6.217   0.793  0.00  0.00    +0.008 C 
ATOM     20  C   UNL     1      13.276   3.316   0.260  0.00  0.00    +0.001 C 
ATOM     21  C   UNL     1      13.589   5.666  -0.600  0.00  0.00    +0.001 C 
ATOM     22  C   UNL     1      14.173   4.259  -0.537  0.00  0.00    +0.000 C 
ENDBRANCH  14  13
BRANCH   5  24
ATOM     24  C   UNL     1       6.915  10.022   3.693  0.00  0.00    +0.068 C 
ATOM     25  C   UNL     1       5.532  10.487   4.131  0.00  0.00    +0.027 C 
ATOM     26  C   UNL     1       6.854   9.287   2.359  0.00  0.00    +0.027 C 
ENDBRANCH   5  24
TORSDOF 2
ENDMDL
MODEL 8
REMARK VINA RESULT:      -6.2     27.387     29.795
REMARK  Name = 9421717
REMARK  4 active torsions:
REMARK  status: ('A' for Active; 'I' for Inactive)
REMARK    1  A    between atoms: N_5  and  C_24
REMARK    2  A    between atoms: C_13  and  C_14
REMARK    3  A    between atoms: C_24  and  C_25
REMARK    4  A    between atoms: C_24  and  C_26
REMARK                            x       y       z     vdW  Elec       q    Type
REMARK                         _______ _______ _______ _____ _____    ______ ____
ROOT
ATOM      1  O   UNL     1      -5.666 -13.097  15.582  0.00  0.00    -0.267 OA
ATOM      2  O   UNL     1      -9.285  -8.656  17.465  0.00  0.00    -0.253 OA
ATOM      3  N   UNL     1      -6.733 -12.485  17.566  0.00  0.00    -0.312 N 
ATOM      4  N   UNL     1      -9.501 -10.898  18.026  0.00  0.00    -0.285 N 
ATOM      5  N   UNL     1     -10.244 -10.072  15.938  0.00  0.00    -0.297 N 
ATOM      6  C   UNL     1      -9.046 -13.362  18.220  0.00  0.00    +0.027 C 
ATOM      7  C   UNL     1      -7.876 -11.791  19.699  0.00  0.00    +0.054 C 
ATOM      8  C   UNL     1      -8.576 -13.147  19.651  0.00  0.00    +0.018 C 
ATOM      9  C   UNL     1      -7.818 -13.438  17.302  0.00  0.00    +0.130 C 
ATOM     10  C   UNL     1     -10.021 -12.252  17.783  0.00  0.00    +0.114 C 
ATOM     11  C   UNL     1      -8.886 -10.687  19.343  0.00  0.00    +0.119 C 
ATOM     12  C   UNL     1      -6.697 -11.741  18.748  0.00  0.00    +0.027 A 
ATOM     14  C   UNL     1      -4.526 -11.545  16.949  0.00  0.00    +0.020 A 
ATOM     15  C   UNL     1      -5.684 -12.443  16.626  0.00  0.00    +0.255 A 
ATOM     16  C   UNL     1      -5.636 -10.965  19.023  0.00  0.00    +0.022 A 
ATOM     19  C   UNL     1      -4.538 -10.868  18.105  0.00  0.00    +0.011 A 
ATOM     23  C   UNL     1      -9.650  -9.796  17.164  0.00  0.00    +0.302 C 
ATOM     27  H   UNL     1     -10.673 -10.969  15.754  0.00  0.00    +0.150 HD
ENDROOT
BRANCH  14  13
ATOM     13  C   UNL     1      -3.404 -11.464  15.958  0.00  0.00    +0.024 C 
ATOM     17  C   UNL     1      -2.161 -10.823  16.592  0.00  0.00    +0.008 C 
ATOM     18  C   UNL     1      -3.836 -10.688  14.706  0.00  0.00    +0.008 C 
ATOM     20  C   UNL     1      -1.020 -10.686  15.587  0.00  0.00    +0.001 C 
ATOM     21  C   UNL     1      -2.692 -10.551  13.704  0.00  0.00    +0.001 C 
ATOM     22  C   UNL     1      -1.458  -9.922  14.341  0.00  0.00    +0.000 C 
ENDBRANCH  14  13
BRANCH   5  24
ATOM     24  C   UNL     1     -10.474  -9.047  14.945  0.00  0.00    +0.068 C 
ATOM     25  C   UNL     1     -11.930  -8.602  14.971  0.00  0.00    +0.027 C 
ATOM     26  C   UNL     1     -10.072  -9.545  13.562  0.00  0.00    +0.027 C 
ENDBRANCH   5  24
TORSDOF 2
ENDMDL
MODEL 9
REMARK VINA RESULT:      -6.1     27.403     29.580
REMARK  Name = 9421717
REMARK  4 active torsions:
REMARK  status: ('A' for Active; 'I' for Inactive)
REMARK    1  A    between atoms: N_5  and  C_24
REMARK    2  A    between atoms: C_13  and  C_14
REMARK    3  A    between atoms: C_24  and  C_25
REMARK    4  A    between atoms: C_24  and  C_26
REMARK                            x       y       z     vdW  Elec       q    Type
REMARK                         _______ _______ _______ _____ _____    ______ ____
ROOT
ATOM      1  O   UNL     1      -5.819 -12.888  14.218  0.00  0.00    -0.267 OA
ATOM      2  O   UNL     1      -8.577  -8.420  17.184  0.00  0.00    -0.253 OA
ATOM      3  N   UNL     1      -5.889 -12.075  16.405  0.00  0.00    -0.312 N 
ATOM      4  N   UNL     1      -8.268 -10.578  17.984  0.00  0.00    -0.285 N 
ATOM      5  N   UNL     1      -9.986 -10.069  16.439  0.00  0.00    -0.297 N 
ATOM      6  C   UNL     1      -7.520 -12.969  18.162  0.00  0.00    +0.027 C 
ATOM      7  C   UNL     1      -5.965 -11.164  18.751  0.00  0.00    +0.054 C 
ATOM      8  C   UNL     1      -6.459 -12.547  19.168  0.00  0.00    +0.018 C 
ATOM      9  C   UNL     1      -6.865 -13.105  16.781  0.00  0.00    +0.130 C 
ATOM     10  C   UNL     1      -8.696 -11.975  18.145  0.00  0.00    +0.114 C 
ATOM     11  C   UNL     1      -7.134 -10.167  18.821  0.00  0.00    +0.119 C 
ATOM     12  C   UNL     1      -5.382 -11.182  17.352  0.00  0.00    +0.027 A 
ATOM     14  C   UNL     1      -4.342 -11.118  14.725  0.00  0.00    +0.020 A 
ATOM     15  C   UNL     1      -5.415 -12.106  15.079  0.00  0.00    +0.255 A 
ATOM     16  C   UNL     1      -4.404 -10.326  17.014  0.00  0.00    +0.022 A 
ATOM     19  C   UNL     1      -3.881 -10.297  15.678  0.00  0.00    +0.011 A 
ATOM     23  C   UNL     1      -8.918  -9.607  17.200  0.00  0.00    +0.302 C 
ATOM     27  H   UNL     1     -10.353 -11.002  16.566  0.00  0.00    +0.150 HD
ENDROOT
BRANCH  14  13
ATOM     13  C   UNL     1      -3.831 -11.112  13.316  0.00  0.00    +0.024 C 
ATOM     17  C   UNL     1      -2.361 -10.672  13.270  0.00  0.00    +0.008 C 
ATOM     18  C   UNL     1      -4.696 -10.210  12.424  0.00  0.00    +0.008 C 
ATOM     20  C   UNL     1      -1.832 -10.613  11.839  0.00  0.00    +0.001 C 
ATOM     21  C   UNL     1      -4.163 -10.152  10.994  0.00  0.00    +0.001 C 
ATOM     22  C   UNL     1      -2.701  -9.722  10.955  0.00  0.00    +0.000 C 
ENDBRANCH  14  13
BRANCH   5  24
ATOM     24  C   UNL     1     -10.760  -9.195  15.587  0.00  0.00    +0.068 C 
ATOM     25  C   UNL     1     -12.028  -8.747  16.301  0.00  0.00    +0.027 C 
ATOM     26  C   UNL     1     -11.083  -9.886  14.267  0.00  0.00    +0.027 C 
ENDBRANCH   5  24
TORSDOF 2
ENDMDL
MODEL 10
REMARK VINA RESULT:      -6.0     14.196     16.468
REMARK  Name = 9421717
REMARK  4 active torsions:
REMARK  status: ('A' for Active; 'I' for Inactive)
REMARK    1  A    between atoms: N_5  and  C_24
REMARK    2  A    between atoms: C_13  and  C_14
REMARK    3  A    between atoms: C_24  and  C_25
REMARK    4  A    between atoms: C_24  and  C_26
REMARK                            x       y       z     vdW  Elec       q    Type
REMARK                         _______ _______ _______ _____ _____    ______ ____
ROOT
ATOM      1  O   UNL     1      12.449   6.887   3.122  0.00  0.00    -0.267 OA
ATOM      2  O   UNL     1       8.728   9.466   7.106  0.00  0.00    -0.253 OA
ATOM      3  N   UNL     1      11.465   6.317   5.161  0.00  0.00    -0.312 N 
ATOM      4  N   UNL     1       8.653   7.245   6.435  0.00  0.00    -0.285 N 
ATOM      5  N   UNL     1       7.756   8.970   5.090  0.00  0.00    -0.297 N 
ATOM      6  C   UNL     1       9.237   5.070   5.321  0.00  0.00    +0.027 C 
ATOM      7  C   UNL     1      10.409   5.736   7.372  0.00  0.00    +0.054 C 
ATOM      8  C   UNL     1       9.774   4.552   6.647  0.00  0.00    +0.018 C 
ATOM      9  C   UNL     1      10.414   5.561   4.468  0.00  0.00    +0.130 C 
ATOM     10  C   UNL     1       8.186   6.175   5.541  0.00  0.00    +0.114 C 
ATOM     11  C   UNL     1       9.329   6.792   7.659  0.00  0.00    +0.119 C 
ATOM     12  C   UNL     1      11.530   6.350   6.556  0.00  0.00    +0.027 A 
ATOM     14  C   UNL     1      13.586   7.592   5.068  0.00  0.00    +0.020 A 
ATOM     15  C   UNL     1      12.457   6.909   4.353  0.00  0.00    +0.255 A 
ATOM     16  C   UNL     1      12.566   6.947   7.168  0.00  0.00    +0.022 A 
ATOM     19  C   UNL     1      13.606   7.578   6.407  0.00  0.00    +0.011 A 
ATOM     23  C   UNL     1       8.404   8.619   6.268  0.00  0.00    +0.302 C 
ATOM     27  H   UNL     1       7.362   8.268   4.479  0.00  0.00    +0.150 HD
ENDROOT
BRANCH  14  13
ATOM     13  C   UNL     1      14.647   8.249   4.235  0.00  0.00    +0.024 C 
ATOM     17  C   UNL     1      16.042   7.969   4.810  0.00  0.00    +0.008 C 
ATOM     18  C   UNL     1      14.397   9.760   4.126  0.00  0.00    +0.008 C 
ATOM     20  C   UNL     1      17.135   8.669   4.005  0.00  0.00    +0.001 C 
ATOM     21  C   UNL     1      15.493  10.457   3.322  0.00  0.00    +0.001 C 
ATOM     22  C   UNL     1      16.878  10.168   3.892  0.00  0.00    +0.000 C 
ENDBRANCH  14  13
BRANCH   5  24
ATOM     24  C   UNL     1       7.423  10.341   4.772  0.00  0.00    +0.068 C 
ATOM     25  C   UNL     1       5.997  10.431   4.245  0.00  0.00    +0.027 C 
ATOM     26  C   UNL     1       8.419  10.915   3.772  0.00  0.00    +0.027 C 
ENDBRANCH   5  24
TORSDOF 2
ENDMDL
