MODEL 1
REMARK VINA RESULT:      -6.3      0.000      0.000
REMARK  Name = 56775709
REMARK  8 active torsions:
REMARK  status: ('A' for Active; 'I' for Inactive)
REMARK    1  A    between atoms: O_3  and  C_18
REMARK    2  A    between atoms: O_3  and  C_26
REMARK    3  A    between atoms: N_4  and  C_7
REMARK    4  A    between atoms: N_4  and  C_11
REMARK    5  A    between atoms: C_7  and  C_10
REMARK    6  A    between atoms: C_10  and  C_12
REMARK    7  A    between atoms: C_11  and  C_13
REMARK    8  A    between atoms: C_15  and  C_19
REMARK                            x       y       z     vdW  Elec       q    Type
REMARK                         _______ _______ _______ _____ _____    ______ ____
ROOT
ATOM      1  O   UNL     1      12.577   8.826  16.198  0.00  0.00    -0.376 OA
ATOM      7  C   UNL     1      12.641   8.289  18.264  0.00  0.00    +0.072 C 
ATOM      8  C   UNL     1      13.632   8.692  17.177  0.00  0.00    +0.184 C 
ATOM      9  C   UNL     1      11.598   8.359  17.154  0.00  0.00    +0.184 C 
ENDROOT
BRANCH   7   4
ATOM      4  N   UNL     1      12.446   9.425  19.168  0.00  0.00    -0.302 NA
ATOM     27  H   UNL     1      12.220  10.308  18.711  0.00  0.00    +0.123 HD
BRANCH   4  11
ATOM     11  C   UNL     1      11.404   9.091  20.140  0.00  0.00    +0.117 C 
BRANCH  11  13
ATOM     13  C   UNL     1      11.407  10.012  21.314  0.00  0.00    -0.030 A 
ATOM     16  C   UNL     1      11.893  11.312  21.179  0.00  0.00    +0.050 A 
ATOM     17  C   UNL     1      10.925   9.571  22.546  0.00  0.00    +0.005 A 
ATOM     18  C   UNL     1      11.897  12.172  22.276  0.00  0.00    +0.120 A 
ATOM     20  C   UNL     1      10.928  10.432  23.644  0.00  0.00    +0.004 A 
ATOM     21  C   UNL     1      11.415  11.733  23.509  0.00  0.00    +0.045 A 
BRANCH  18   3
ATOM      3  O   UNL     1      12.372  13.441  22.144  0.00  0.00    -0.495 OA
ATOM     26  C   UNL     1      11.409  14.479  21.968  0.00  0.00    +0.277 C 
ENDBRANCH  18   3
ENDBRANCH  11  13
ENDBRANCH   4  11
ENDBRANCH   7   4
BRANCH   7  10
ATOM     10  C   UNL     1      12.846   6.994  18.988  0.00  0.00    +0.085 C 
BRANCH  10  12
ATOM      2  O   UNL     1      15.405   7.205  21.531  0.00  0.00    -0.353 OA
ATOM      5  N   UNL     1      14.080   7.238  21.113  0.00  0.00    -0.083 NA
ATOM     12  C   UNL     1      14.127   7.026  19.795  0.00  0.00    +0.086 A 
ATOM     14  C   UNL     1      15.443   6.855  19.329  0.00  0.00    +0.077 A 
ATOM     15  C   UNL     1      16.206   6.977  20.460  0.00  0.00    +0.186 A 
BRANCH  15  19
ATOM      6  N   UNL     1      18.068   7.885  21.560  0.00  0.00    -0.252 NA
ATOM     19  C   UNL     1      17.612   6.914  20.737  0.00  0.00    +0.109 A 
ATOM     22  C   UNL     1      18.411   5.924  20.188  0.00  0.00    +0.031 A 
ATOM     23  C   UNL     1      19.765   5.930  20.505  0.00  0.00    +0.004 A 
ATOM     24  C   UNL     1      19.390   7.859  21.845  0.00  0.00    +0.111 A 
ATOM     25  C   UNL     1      20.271   6.912  21.348  0.00  0.00    +0.020 A 
ENDBRANCH  15  19
ENDBRANCH  10  12
ENDBRANCH   7  10
TORSDOF 7
ENDMDL
MODEL 2
REMARK VINA RESULT:      -6.2     16.060     19.589
REMARK  Name = 56775709
REMARK  8 active torsions:
REMARK  status: ('A' for Active; 'I' for Inactive)
REMARK    1  A    between atoms: O_3  and  C_18
REMARK    2  A    between atoms: O_3  and  C_26
REMARK    3  A    between atoms: N_4  and  C_7
REMARK    4  A    between atoms: N_4  and  C_11
REMARK    5  A    between atoms: C_7  and  C_10
REMARK    6  A    between atoms: C_10  and  C_12
REMARK    7  A    between atoms: C_11  and  C_13
REMARK    8  A    between atoms: C_15  and  C_19
REMARK                            x       y       z     vdW  Elec       q    Type
REMARK                         _______ _______ _______ _____ _____    ______ ____
ROOT
ATOM      1  O   UNL     1      12.417   8.107   3.004  0.00  0.00    -0.376 OA
ATOM      7  C   UNL     1      11.439   6.208   3.002  0.00  0.00    +0.072 C 
ATOM      8  C   UNL     1      12.329   7.012   3.944  0.00  0.00    +0.184 C 
ATOM      9  C   UNL     1      11.657   7.360   2.026  0.00  0.00    +0.184 C 
ENDROOT
BRANCH   7   4
ATOM      4  N   UNL     1      10.061   6.262   3.496  0.00  0.00    -0.302 NA
ATOM     27  H   UNL     1       9.342   6.245   2.773  0.00  0.00    +0.123 HD
BRANCH   4  11
ATOM     11  C   UNL     1       9.845   5.161   4.435  0.00  0.00    +0.117 C 
BRANCH  11  13
ATOM     13  C   UNL     1       9.544   5.642   5.814  0.00  0.00    -0.030 A 
ATOM     16  C   UNL     1       9.907   4.869   6.917  0.00  0.00    +0.050 A 
ATOM     17  C   UNL     1       8.900   6.865   6.001  0.00  0.00    +0.005 A 
ATOM     18  C   UNL     1       9.625   5.318   8.207  0.00  0.00    +0.120 A 
ATOM     20  C   UNL     1       8.619   7.314   7.291  0.00  0.00    +0.004 A 
ATOM     21  C   UNL     1       8.981   6.541   8.395  0.00  0.00    +0.045 A 
BRANCH  18   3
ATOM      3  O   UNL     1       9.978   4.562   9.283  0.00  0.00    -0.495 OA
ATOM     26  C   UNL     1       9.072   4.537  10.384  0.00  0.00    +0.277 C 
ENDBRANCH  18   3
ENDBRANCH  11  13
ENDBRANCH   4  11
ENDBRANCH   7   4
BRANCH   7  10
ATOM     10  C   UNL     1      11.865   4.829   2.605  0.00  0.00    +0.085 C 
BRANCH  10  12
ATOM      2  O   UNL     1       9.976   4.158  -0.402  0.00  0.00    -0.353 OA
ATOM      5  N   UNL     1      10.069   4.499   0.942  0.00  0.00    -0.083 NA
ATOM     12  C   UNL     1      11.378   4.496   1.210  0.00  0.00    +0.086 A 
ATOM     14  C   UNL     1      12.151   4.162   0.085  0.00  0.00    +0.077 A 
ATOM     15  C   UNL     1      11.222   3.959  -0.900  0.00  0.00    +0.186 A 
BRANCH  15  19
ATOM      6  N   UNL     1      10.104   3.654  -2.939  0.00  0.00    -0.252 NA
ATOM     19  C   UNL     1      11.287   3.600  -2.288  0.00  0.00    +0.109 A 
ATOM     22  C   UNL     1      12.484   3.232  -2.881  0.00  0.00    +0.031 A 
ATOM     23  C   UNL     1      12.465   2.899  -4.231  0.00  0.00    +0.004 A 
ATOM     24  C   UNL     1      10.125   3.322  -4.250  0.00  0.00    +0.111 A 
ATOM     25  C   UNL     1      11.267   2.942  -4.935  0.00  0.00    +0.020 A 
ENDBRANCH  15  19
ENDBRANCH  10  12
ENDBRANCH   7  10
TORSDOF 7
ENDMDL
MODEL 3
REMARK VINA RESULT:      -6.2     25.715     28.768
REMARK  Name = 56775709
REMARK  8 active torsions:
REMARK  status: ('A' for Active; 'I' for Inactive)
REMARK    1  A    between atoms: O_3  and  C_18
REMARK    2  A    between atoms: O_3  and  C_26
REMARK    3  A    between atoms: N_4  and  C_7
REMARK    4  A    between atoms: N_4  and  C_11
REMARK    5  A    between atoms: C_7  and  C_10
REMARK    6  A    between atoms: C_10  and  C_12
REMARK    7  A    between atoms: C_11  and  C_13
REMARK    8  A    between atoms: C_15  and  C_19
REMARK                            x       y       z     vdW  Elec       q    Type
REMARK                         _______ _______ _______ _____ _____    ______ ____
ROOT
ATOM      1  O   UNL     1     -15.752   8.346  21.800  0.00  0.00    -0.376 OA
ATOM      7  C   UNL     1     -13.821   7.469  21.547  0.00  0.00    +0.072 C 
ATOM      8  C   UNL     1     -15.035   7.780  20.679  0.00  0.00    +0.184 C 
ATOM      9  C   UNL     1     -14.674   7.993  22.697  0.00  0.00    +0.184 C 
ENDROOT
BRANCH   7   4
ATOM      4  N   UNL     1     -12.771   8.446  21.255  0.00  0.00    -0.302 NA
ATOM     27  H   UNL     1     -12.509   9.047  22.036  0.00  0.00    +0.123 HD
BRANCH   4  11
ATOM     11  C   UNL     1     -11.588   7.744  20.754  0.00  0.00    +0.117 C 
BRANCH  11  13
ATOM     13  C   UNL     1     -11.112   8.291  19.451  0.00  0.00    -0.030 A 
ATOM     16  C   UNL     1     -10.716   9.625  19.358  0.00  0.00    +0.050 A 
ATOM     17  C   UNL     1     -11.065   7.469  18.325  0.00  0.00    +0.005 A 
ATOM     18  C   UNL     1     -10.272  10.137  18.139  0.00  0.00    +0.120 A 
ATOM     20  C   UNL     1     -10.620   7.982  17.106  0.00  0.00    +0.004 A 
ATOM     21  C   UNL     1     -10.224   9.316  17.013  0.00  0.00    +0.045 A 
BRANCH  18   3
ATOM      3  O   UNL     1      -9.885  11.440  18.049  0.00  0.00    -0.495 OA
ATOM     26  C   UNL     1     -10.873  12.430  18.328  0.00  0.00    +0.277 C 
ENDBRANCH  18   3
ENDBRANCH  11  13
ENDBRANCH   4  11
ENDBRANCH   7   4
BRANCH   7  10
ATOM     10  C   UNL     1     -13.312   6.061  21.603  0.00  0.00    +0.085 C 
BRANCH  10  12
ATOM      2  O   UNL     1     -16.003   3.870  22.611  0.00  0.00    -0.353 OA
ATOM      5  N   UNL     1     -15.317   4.621  21.664  0.00  0.00    -0.083 NA
ATOM     12  C   UNL     1     -14.292   5.163  22.328  0.00  0.00    +0.086 A 
ATOM     14  C   UNL     1     -14.282   4.794  23.685  0.00  0.00    +0.077 A 
ATOM     15  C   UNL     1     -15.377   3.982  23.810  0.00  0.00    +0.186 A 
BRANCH  15  19
ATOM      6  N   UNL     1     -16.166   1.939  24.648  0.00  0.00    -0.252 NA
ATOM     19  C   UNL     1     -15.972   3.254  24.893  0.00  0.00    +0.109 A 
ATOM     22  C   UNL     1     -16.309   3.880  26.082  0.00  0.00    +0.031 A 
ATOM     23  C   UNL     1     -16.882   3.106  27.085  0.00  0.00    +0.004 A 
ATOM     24  C   UNL     1     -16.726   1.219  25.647  0.00  0.00    +0.111 A 
ATOM     25  C   UNL     1     -17.098   1.750  26.871  0.00  0.00    +0.020 A 
ENDBRANCH  15  19
ENDBRANCH  10  12
ENDBRANCH   7  10
TORSDOF 7
ENDMDL
MODEL 4
REMARK VINA RESULT:      -6.0      4.055      7.246
REMARK  Name = 56775709
REMARK  8 active torsions:
REMARK  status: ('A' for Active; 'I' for Inactive)
REMARK    1  A    between atoms: O_3  and  C_18
REMARK    2  A    between atoms: O_3  and  C_26
REMARK    3  A    between atoms: N_4  and  C_7
REMARK    4  A    between atoms: N_4  and  C_11
REMARK    5  A    between atoms: C_7  and  C_10
REMARK    6  A    between atoms: C_10  and  C_12
REMARK    7  A    between atoms: C_11  and  C_13
REMARK    8  A    between atoms: C_15  and  C_19
REMARK                            x       y       z     vdW  Elec       q    Type
REMARK                         _______ _______ _______ _____ _____    ______ ____
ROOT
ATOM      1  O   UNL     1      19.922   8.681  23.379  0.00  0.00    -0.376 OA
ATOM      7  C   UNL     1      19.774   7.287  21.768  0.00  0.00    +0.072 C 
ATOM      8  C   UNL     1      20.283   7.291  23.206  0.00  0.00    +0.184 C 
ATOM      9  C   UNL     1      19.511   8.771  21.996  0.00  0.00    +0.184 C 
ENDROOT
BRANCH   7   4
ATOM      4  N   UNL     1      18.492   6.581  21.724  0.00  0.00    -0.302 NA
ATOM     27  H   UNL     1      17.785   6.927  22.372  0.00  0.00    +0.123 HD
BRANCH   4  11
ATOM     11  C   UNL     1      17.971   6.618  20.357  0.00  0.00    +0.117 C 
BRANCH  11  13
ATOM     13  C   UNL     1      16.539   7.034  20.307  0.00  0.00    -0.030 A 
ATOM     16  C   UNL     1      15.985   7.755  21.365  0.00  0.00    +0.050 A 
ATOM     17  C   UNL     1      15.754   6.702  19.203  0.00  0.00    +0.005 A 
ATOM     18  C   UNL     1      14.646   8.143  21.319  0.00  0.00    +0.120 A 
ATOM     20  C   UNL     1      14.416   7.090  19.157  0.00  0.00    +0.004 A 
ATOM     21  C   UNL     1      13.861   7.811  20.215  0.00  0.00    +0.045 A 
BRANCH  18   3
ATOM      3  O   UNL     1      14.106   8.846  22.352  0.00  0.00    -0.495 OA
ATOM     26  C   UNL     1      14.719  10.092  22.680  0.00  0.00    +0.277 C 
ENDBRANCH  18   3
ENDBRANCH  11  13
ENDBRANCH   4  11
ENDBRANCH   7   4
BRANCH   7  10
ATOM     10  C   UNL     1      20.707   6.875  20.671  0.00  0.00    +0.085 C 
BRANCH  10  12
ATOM      2  O   UNL     1      21.264   3.308  20.832  0.00  0.00    -0.353 OA
ATOM      5  N   UNL     1      20.521   4.422  20.459  0.00  0.00    -0.083 NA
ATOM     12  C   UNL     1      21.222   5.470  20.902  0.00  0.00    +0.086 A 
ATOM     14  C   UNL     1      22.403   5.082  21.558  0.00  0.00    +0.077 A 
ATOM     15  C   UNL     1      22.381   3.714  21.486  0.00  0.00    +0.186 A 
BRANCH  15  19
ATOM      6  N   UNL     1      23.406   2.599  23.276  0.00  0.00    -0.252 NA
ATOM     19  C   UNL     1      23.255   2.669  21.935  0.00  0.00    +0.109 A 
ATOM     22  C   UNL     1      23.879   1.817  21.038  0.00  0.00    +0.031 A 
ATOM     23  C   UNL     1      24.710   0.828  21.551  0.00  0.00    +0.004 A 
ATOM     24  C   UNL     1      24.223   1.624  23.738  0.00  0.00    +0.111 A 
ATOM     25  C   UNL     1      24.891   0.723  22.925  0.00  0.00    +0.020 A 
ENDBRANCH  15  19
ENDBRANCH  10  12
ENDBRANCH   7  10
TORSDOF 7
ENDMDL
MODEL 5
REMARK VINA RESULT:      -6.0     28.035     31.008
REMARK  Name = 56775709
REMARK  8 active torsions:
REMARK  status: ('A' for Active; 'I' for Inactive)
REMARK    1  A    between atoms: O_3  and  C_18
REMARK    2  A    between atoms: O_3  and  C_26
REMARK    3  A    between atoms: N_4  and  C_7
REMARK    4  A    between atoms: N_4  and  C_11
REMARK    5  A    between atoms: C_7  and  C_10
REMARK    6  A    between atoms: C_10  and  C_12
REMARK    7  A    between atoms: C_11  and  C_13
REMARK    8  A    between atoms: C_15  and  C_19
REMARK                            x       y       z     vdW  Elec       q    Type
REMARK                         _______ _______ _______ _____ _____    ______ ____
ROOT
ATOM      1  O   UNL     1     -19.197   4.058  25.591  0.00  0.00    -0.376 OA
ATOM      7  C   UNL     1     -17.347   3.202  26.227  0.00  0.00    +0.072 C 
ATOM      8  C   UNL     1     -17.845   4.552  25.723  0.00  0.00    +0.184 C 
ATOM      9  C   UNL     1     -18.774   2.729  25.972  0.00  0.00    +0.184 C 
ENDROOT
BRANCH   7   4
ATOM      4  N   UNL     1     -17.131   3.291  27.673  0.00  0.00    -0.302 NA
ATOM     27  H   UNL     1     -17.625   2.593  28.228  0.00  0.00    +0.123 HD
BRANCH   4  11
ATOM     11  C   UNL     1     -15.695   3.215  27.949  0.00  0.00    +0.117 C 
BRANCH  11  13
ATOM     13  C   UNL     1     -15.387   2.337  29.114  0.00  0.00    -0.030 A 
ATOM     16  C   UNL     1     -14.531   2.788  30.119  0.00  0.00    +0.050 A 
ATOM     17  C   UNL     1     -15.953   1.065  29.198  0.00  0.00    +0.005 A 
ATOM     18  C   UNL     1     -14.241   1.966  31.208  0.00  0.00    +0.120 A 
ATOM     20  C   UNL     1     -15.664   0.244  30.288  0.00  0.00    +0.004 A 
ATOM     21  C   UNL     1     -14.808   0.694  31.293  0.00  0.00    +0.045 A 
BRANCH  18   3
ATOM      3  O   UNL     1     -13.406   2.406  32.189  0.00  0.00    -0.495 OA
ATOM     26  C   UNL     1     -13.606   3.737  32.663  0.00  0.00    +0.277 C 
ENDBRANCH  18   3
ENDBRANCH  11  13
ENDBRANCH   4  11
ENDBRANCH   7   4
BRANCH   7  10
ATOM     10  C   UNL     1     -16.219   2.531  25.507  0.00  0.00    +0.085 C 
BRANCH  10  12
ATOM      2  O   UNL     1     -15.917   3.919  22.184  0.00  0.00    -0.353 OA
ATOM      5  N   UNL     1     -16.498   3.062  23.112  0.00  0.00    -0.083 NA
ATOM     12  C   UNL     1     -15.848   3.297  24.255  0.00  0.00    +0.086 A 
ATOM     14  C   UNL     1     -14.855   4.282  24.110  0.00  0.00    +0.077 A 
ATOM     15  C   UNL     1     -14.940   4.639  22.791  0.00  0.00    +0.186 A 
BRANCH  15  19
ATOM      6  N   UNL     1     -15.051   6.386  21.230  0.00  0.00    -0.252 NA
ATOM     19  C   UNL     1     -14.247   5.575  21.954  0.00  0.00    +0.109 A 
ATOM     22  C   UNL     1     -12.863   5.619  21.915  0.00  0.00    +0.031 A 
ATOM     23  C   UNL     1     -12.265   6.556  21.080  0.00  0.00    +0.004 A 
ATOM     24  C   UNL     1     -14.434   7.284  20.429  0.00  0.00    +0.111 A 
ATOM     25  C   UNL     1     -13.058   7.407  20.319  0.00  0.00    +0.020 A 
ENDBRANCH  15  19
ENDBRANCH  10  12
ENDBRANCH   7  10
TORSDOF 7
ENDMDL
MODEL 6
REMARK VINA RESULT:      -5.9     26.816     28.598
REMARK  Name = 56775709
REMARK  8 active torsions:
REMARK  status: ('A' for Active; 'I' for Inactive)
REMARK    1  A    between atoms: O_3  and  C_18
REMARK    2  A    between atoms: O_3  and  C_26
REMARK    3  A    between atoms: N_4  and  C_7
REMARK    4  A    between atoms: N_4  and  C_11
REMARK    5  A    between atoms: C_7  and  C_10
REMARK    6  A    between atoms: C_10  and  C_12
REMARK    7  A    between atoms: C_11  and  C_13
REMARK    8  A    between atoms: C_15  and  C_19
REMARK                            x       y       z     vdW  Elec       q    Type
REMARK                         _______ _______ _______ _____ _____    ______ ____
ROOT
ATOM      1  O   UNL     1      -2.136 -14.220  14.090  0.00  0.00    -0.376 OA
ATOM      7  C   UNL     1      -2.353 -12.136  13.674  0.00  0.00    +0.072 C 
ATOM      8  C   UNL     1      -1.227 -13.164  13.702  0.00  0.00    +0.184 C 
ATOM      9  C   UNL     1      -3.230 -13.278  14.175  0.00  0.00    +0.184 C 
ENDROOT
BRANCH   7   4
ATOM      4  N   UNL     1      -2.697 -11.854  12.279  0.00  0.00    -0.302 NA
ATOM     27  H   UNL     1      -3.652 -12.088  12.012  0.00  0.00    +0.123 HD
BRANCH   4  11
ATOM     11  C   UNL     1      -2.438 -10.441  11.997  0.00  0.00    +0.117 C 
BRANCH  11  13
ATOM     13  C   UNL     1      -3.539  -9.806  11.217  0.00  0.00    -0.030 A 
ATOM     16  C   UNL     1      -4.806  -9.671  11.782  0.00  0.00    +0.050 A 
ATOM     17  C   UNL     1      -3.301  -9.349   9.921  0.00  0.00    +0.005 A 
ATOM     18  C   UNL     1      -5.836  -9.079  11.052  0.00  0.00    +0.120 A 
ATOM     20  C   UNL     1      -4.331  -8.756   9.191  0.00  0.00    +0.004 A 
ATOM     21  C   UNL     1      -5.599  -8.621   9.756  0.00  0.00    +0.045 A 
BRANCH  18   3
ATOM      3  O   UNL     1      -7.074  -8.949  11.604  0.00  0.00    -0.495 OA
ATOM     26  C   UNL     1      -7.402  -9.830  12.678  0.00  0.00    +0.277 C 
ENDBRANCH  18   3
ENDBRANCH  11  13
ENDBRANCH   4  11
ENDBRANCH   7   4
BRANCH   7  10
ATOM     10  C   UNL     1      -2.225 -10.898  14.507  0.00  0.00    +0.085 C 
BRANCH  10  12
ATOM      2  O   UNL     1      -4.335 -10.953  17.440  0.00  0.00    -0.353 OA
ATOM      5  N   UNL     1      -3.117 -11.139  16.797  0.00  0.00    -0.083 NA
ATOM     12  C   UNL     1      -3.346 -10.814  15.521  0.00  0.00    +0.086 A 
ATOM     14  C   UNL     1      -4.679 -10.422  15.302  0.00  0.00    +0.077 A 
ATOM     15  C   UNL     1      -5.256 -10.527  16.539  0.00  0.00    +0.186 A 
BRANCH  15  19
ATOM      6  N   UNL     1      -7.296  -9.382  16.364  0.00  0.00    -0.252 NA
ATOM     19  C   UNL     1      -6.572 -10.288  17.059  0.00  0.00    +0.109 A 
ATOM     22  C   UNL     1      -7.032 -10.949  18.186  0.00  0.00    +0.031 A 
ATOM     23  C   UNL     1      -8.319 -10.664  18.627  0.00  0.00    +0.004 A 
ATOM     24  C   UNL     1      -8.543  -9.130  16.823  0.00  0.00    +0.111 A 
ATOM     25  C   UNL     1      -9.095  -9.738  17.939  0.00  0.00    +0.020 A 
ENDBRANCH  15  19
ENDBRANCH  10  12
ENDBRANCH   7  10
TORSDOF 7
ENDMDL
MODEL 7
REMARK VINA RESULT:      -5.9     27.853     30.541
REMARK  Name = 56775709
REMARK  8 active torsions:
REMARK  status: ('A' for Active; 'I' for Inactive)
REMARK    1  A    between atoms: O_3  and  C_18
REMARK    2  A    between atoms: O_3  and  C_26
REMARK    3  A    between atoms: N_4  and  C_7
REMARK    4  A    between atoms: N_4  and  C_11
REMARK    5  A    between atoms: C_7  and  C_10
REMARK    6  A    between atoms: C_10  and  C_12
REMARK    7  A    between atoms: C_11  and  C_13
REMARK    8  A    between atoms: C_15  and  C_19
REMARK                            x       y       z     vdW  Elec       q    Type
REMARK                         _______ _______ _______ _____ _____    ______ ____
ROOT
ATOM      1  O   UNL     1      -8.710 -11.064  13.800  0.00  0.00    -0.376 OA
ATOM      7  C   UNL     1      -9.086  -9.733  15.427  0.00  0.00    +0.072 C 
ATOM      8  C   UNL     1      -8.845 -11.226  15.231  0.00  0.00    +0.184 C 
ATOM      9  C   UNL     1      -9.026  -9.657  13.905  0.00  0.00    +0.184 C 
ENDROOT
BRANCH   7   4
ATOM      4  N   UNL     1      -7.870  -9.129  15.977  0.00  0.00    -0.302 NA
ATOM     27  H   UNL     1      -7.710  -8.158  15.710  0.00  0.00    +0.123 HD
BRANCH   4  11
ATOM     11  C   UNL     1      -7.898  -9.241  17.437  0.00  0.00    +0.117 C 
BRANCH  11  13
ATOM     13  C   UNL     1      -6.764 -10.053  17.965  0.00  0.00    -0.030 A 
ATOM     16  C   UNL     1      -5.635 -10.271  17.176  0.00  0.00    +0.050 A 
ATOM     17  C   UNL     1      -6.833 -10.595  19.248  0.00  0.00    +0.005 A 
ATOM     18  C   UNL     1      -4.575 -11.031  17.669  0.00  0.00    +0.120 A 
ATOM     20  C   UNL     1      -5.772 -11.354  19.742  0.00  0.00    +0.004 A 
ATOM     21  C   UNL     1      -4.643 -11.573  18.952  0.00  0.00    +0.045 A 
BRANCH  18   3
ATOM      3  O   UNL     1      -3.473 -11.243  16.898  0.00  0.00    -0.495 OA
ATOM     26  C   UNL     1      -3.694 -11.537  15.519  0.00  0.00    +0.277 C 
ENDBRANCH  18   3
ENDBRANCH  11  13
ENDBRANCH   4  11
ENDBRANCH   7   4
BRANCH   7  10
ATOM     10  C   UNL     1     -10.331  -9.286  16.129  0.00  0.00    +0.085 C 
BRANCH  10  12
ATOM      2  O   UNL     1     -10.833  -5.843  15.152  0.00  0.00    -0.353 OA
ATOM      5  N   UNL     1     -10.117  -6.849  15.791  0.00  0.00    -0.083 NA
ATOM     12  C   UNL     1     -10.818  -7.965  15.571  0.00  0.00    +0.086 A 
ATOM     14  C   UNL     1     -11.975  -7.726  14.808  0.00  0.00    +0.077 A 
ATOM     15  C   UNL     1     -11.936  -6.378  14.572  0.00  0.00    +0.186 A 
BRANCH  15  19
ATOM      6  N   UNL     1     -14.104  -5.680  14.012  0.00  0.00    -0.252 NA
ATOM     19  C   UNL     1     -12.779  -5.455  13.868  0.00  0.00    +0.109 A 
ATOM     22  C   UNL     1     -12.245  -4.426  13.109  0.00  0.00    +0.031 A 
ATOM     23  C   UNL     1     -13.128  -3.573  12.457  0.00  0.00    +0.004 A 
ATOM     24  C   UNL     1     -14.932  -4.830  13.363  0.00  0.00    +0.111 A 
ATOM     25  C   UNL     1     -14.498  -3.772  12.582  0.00  0.00    +0.020 A 
ENDBRANCH  15  19
ENDBRANCH  10  12
ENDBRANCH   7  10
TORSDOF 7
ENDMDL
MODEL 8
REMARK VINA RESULT:      -5.9     27.013     29.345
REMARK  Name = 56775709
REMARK  8 active torsions:
REMARK  status: ('A' for Active; 'I' for Inactive)
REMARK    1  A    between atoms: O_3  and  C_18
REMARK    2  A    between atoms: O_3  and  C_26
REMARK    3  A    between atoms: N_4  and  C_7
REMARK    4  A    between atoms: N_4  and  C_11
REMARK    5  A    between atoms: C_7  and  C_10
REMARK    6  A    between atoms: C_10  and  C_12
REMARK    7  A    between atoms: C_11  and  C_13
REMARK    8  A    between atoms: C_15  and  C_19
REMARK                            x       y       z     vdW  Elec       q    Type
REMARK                         _______ _______ _______ _____ _____    ______ ____
ROOT
ATOM      1  O   UNL     1      -5.933 -13.916  17.147  0.00  0.00    -0.376 OA
ATOM      7  C   UNL     1      -4.743 -12.151  16.975  0.00  0.00    +0.072 C 
ATOM      8  C   UNL     1      -4.830 -13.360  17.899  0.00  0.00    +0.184 C 
ATOM      9  C   UNL     1      -5.967 -12.750  16.291  0.00  0.00    +0.184 C 
ENDROOT
BRANCH   7   4
ATOM      4  N   UNL     1      -3.584 -12.313  16.095  0.00  0.00    -0.302 NA
ATOM     27  H   UNL     1      -3.758 -12.845  15.243  0.00  0.00    +0.123 HD
BRANCH   4  11
ATOM     11  C   UNL     1      -3.053 -10.993  15.753  0.00  0.00    +0.117 C 
BRANCH  11  13
ATOM     13  C   UNL     1      -3.099 -10.724  14.286  0.00  0.00    -0.030 A 
ATOM     16  C   UNL     1      -4.328 -10.569  13.645  0.00  0.00    +0.050 A 
ATOM     17  C   UNL     1      -1.914 -10.630  13.557  0.00  0.00    +0.005 A 
ATOM     18  C   UNL     1      -4.372 -10.320  12.273  0.00  0.00    +0.120 A 
ATOM     20  C   UNL     1      -1.958 -10.379  12.185  0.00  0.00    +0.004 A 
ATOM     21  C   UNL     1      -3.187 -10.224  11.543  0.00  0.00    +0.045 A 
BRANCH  18   3
ATOM      3  O   UNL     1      -5.571 -10.169  11.648  0.00  0.00    -0.495 OA
ATOM     26  C   UNL     1      -6.249  -8.927  11.836  0.00  0.00    +0.277 C 
ENDBRANCH  18   3
ENDBRANCH  11  13
ENDBRANCH   4  11
ENDBRANCH   7   4
BRANCH   7  10
ATOM     10  C   UNL     1      -4.841 -10.778  17.567  0.00  0.00    +0.085 C 
BRANCH  10  12
ATOM      2  O   UNL     1      -8.310  -9.942  18.133  0.00  0.00    -0.353 OA
ATOM      5  N   UNL     1      -7.116 -10.552  18.499  0.00  0.00    -0.083 NA
ATOM     12  C   UNL     1      -6.265 -10.268  17.509  0.00  0.00    +0.086 A 
ATOM     14  C   UNL     1      -6.861  -9.490  16.501  0.00  0.00    +0.077 A 
ATOM     15  C   UNL     1      -8.145  -9.314  16.942  0.00  0.00    +0.186 A 
BRANCH  15  19
ATOM      6  N   UNL     1      -9.628  -8.953  15.162  0.00  0.00    -0.252 NA
ATOM     19  C   UNL     1      -9.300  -8.631  16.433  0.00  0.00    +0.109 A 
ATOM     22  C   UNL     1     -10.000  -7.722  17.209  0.00  0.00    +0.031 A 
ATOM     23  C   UNL     1     -11.109  -7.103  16.644  0.00  0.00    +0.004 A 
ATOM     24  C   UNL     1     -10.713  -8.330  14.646  0.00  0.00    +0.111 A 
ATOM     25  C   UNL     1     -11.478  -7.407  15.339  0.00  0.00    +0.020 A 
ENDBRANCH  15  19
ENDBRANCH  10  12
ENDBRANCH   7  10
TORSDOF 7
ENDMDL
MODEL 9
REMARK VINA RESULT:      -5.8     27.367     28.818
REMARK  Name = 56775709
REMARK  8 active torsions:
REMARK  status: ('A' for Active; 'I' for Inactive)
REMARK    1  A    between atoms: O_3  and  C_18
REMARK    2  A    between atoms: O_3  and  C_26
REMARK    3  A    between atoms: N_4  and  C_7
REMARK    4  A    between atoms: N_4  and  C_11
REMARK    5  A    between atoms: C_7  and  C_10
REMARK    6  A    between atoms: C_10  and  C_12
REMARK    7  A    between atoms: C_11  and  C_13
REMARK    8  A    between atoms: C_15  and  C_19
REMARK                            x       y       z     vdW  Elec       q    Type
REMARK                         _______ _______ _______ _____ _____    ______ ____
ROOT
ATOM      1  O   UNL     1      -1.788 -13.948  12.954  0.00  0.00    -0.376 OA
ATOM      7  C   UNL     1      -2.633 -12.019  13.311  0.00  0.00    +0.072 C 
ATOM      8  C   UNL     1      -2.916 -13.220  12.415  0.00  0.00    +0.184 C 
ATOM      9  C   UNL     1      -1.408 -12.809  13.760  0.00  0.00    +0.184 C 
ENDROOT
BRANCH   7   4
ATOM      4  N   UNL     1      -3.611 -12.003  14.401  0.00  0.00    -0.302 NA
ATOM     27  H   UNL     1      -3.754 -12.899  14.866  0.00  0.00    +0.123 HD
BRANCH   4  11
ATOM     11  C   UNL     1      -3.217 -10.993  15.384  0.00  0.00    +0.117 C 
BRANCH  11  13
ATOM     13  C   UNL     1      -4.274 -10.757  16.409  0.00  0.00    -0.030 A 
ATOM     16  C   UNL     1      -5.423 -10.040  16.075  0.00  0.00    +0.050 A 
ATOM     17  C   UNL     1      -4.113 -11.253  17.703  0.00  0.00    +0.005 A 
ATOM     18  C   UNL     1      -6.410  -9.818  17.034  0.00  0.00    +0.120 A 
ATOM     20  C   UNL     1      -5.102 -11.031  18.662  0.00  0.00    +0.004 A 
ATOM     21  C   UNL     1      -6.251 -10.314  18.328  0.00  0.00    +0.045 A 
BRANCH  18   3
ATOM      3  O   UNL     1      -7.531  -9.117  16.707  0.00  0.00    -0.495 OA
ATOM     26  C   UNL     1      -8.735  -9.464  17.390  0.00  0.00    +0.277 C 
ENDBRANCH  18   3
ENDBRANCH  11  13
ENDBRANCH   4  11
ENDBRANCH   7   4
BRANCH   7  10
ATOM     10  C   UNL     1      -2.439 -10.674  12.679  0.00  0.00    +0.085 C 
BRANCH  10  12
ATOM      2  O   UNL     1      -5.644  -9.815  11.250  0.00  0.00    -0.353 OA
ATOM      5  N   UNL     1      -4.816 -10.106  12.327  0.00  0.00    -0.083 NA
ATOM     12  C   UNL     1      -3.612 -10.324  11.789  0.00  0.00    +0.086 A 
ATOM     14  C   UNL     1      -3.621 -10.186  10.390  0.00  0.00    +0.077 A 
ATOM     15  C   UNL     1      -4.921  -9.867  10.103  0.00  0.00    +0.186 A 
BRANCH  15  19
ATOM      6  N   UNL     1      -6.709  -8.765   9.059  0.00  0.00    -0.252 NA
ATOM     19  C   UNL     1      -5.646  -9.584   8.897  0.00  0.00    +0.109 A 
ATOM     22  C   UNL     1      -5.260 -10.123   7.681  0.00  0.00    +0.031 A 
ATOM     23  C   UNL     1      -6.013  -9.801   6.558  0.00  0.00    +0.004 A 
ATOM     24  C   UNL     1      -7.418  -8.474   7.944  0.00  0.00    +0.111 A 
ATOM     25  C   UNL     1      -7.114  -8.962   6.684  0.00  0.00    +0.020 A 
ENDBRANCH  15  19
ENDBRANCH  10  12
ENDBRANCH   7  10
TORSDOF 7
ENDMDL
MODEL 10
REMARK VINA RESULT:      -5.7      3.553      7.127
REMARK  Name = 56775709
REMARK  8 active torsions:
REMARK  status: ('A' for Active; 'I' for Inactive)
REMARK    1  A    between atoms: O_3  and  C_18
REMARK    2  A    between atoms: O_3  and  C_26
REMARK    3  A    between atoms: N_4  and  C_7
REMARK    4  A    between atoms: N_4  and  C_11
REMARK    5  A    between atoms: C_7  and  C_10
REMARK    6  A    between atoms: C_10  and  C_12
REMARK    7  A    between atoms: C_11  and  C_13
REMARK    8  A    between atoms: C_15  and  C_19
REMARK                            x       y       z     vdW  Elec       q    Type
REMARK                         _______ _______ _______ _____ _____    ______ ____
ROOT
ATOM      1  O   UNL     1      20.379   9.324  24.475  0.00  0.00    -0.376 OA
ATOM      7  C   UNL     1      19.864   8.782  22.474  0.00  0.00    +0.072 C 
ATOM      8  C   UNL     1      20.385   8.086  23.727  0.00  0.00    +0.184 C 
ATOM      9  C   UNL     1      19.976  10.060  23.298  0.00  0.00    +0.184 C 
ENDROOT
BRANCH   7   4
ATOM      4  N   UNL     1      18.447   8.451  22.307  0.00  0.00    -0.302 NA
ATOM     27  H   UNL     1      17.849   8.696  23.096  0.00  0.00    +0.123 HD
BRANCH   4  11
ATOM     11  C   UNL     1      17.945   9.089  21.090  0.00  0.00    +0.117 C 
BRANCH  11  13
ATOM     13  C   UNL     1      16.748   8.394  20.535  0.00  0.00    -0.030 A 
ATOM     16  C   UNL     1      15.635   9.133  20.136  0.00  0.00    +0.050 A 
ATOM     17  C   UNL     1      16.742   7.004  20.418  0.00  0.00    +0.005 A 
ATOM     18  C   UNL     1      14.515   8.482  19.619  0.00  0.00    +0.120 A 
ATOM     20  C   UNL     1      15.621   6.353  19.900  0.00  0.00    +0.004 A 
ATOM     21  C   UNL     1      14.508   7.092  19.501  0.00  0.00    +0.045 A 
BRANCH  18   3
ATOM      3  O   UNL     1      13.428   9.204  19.229  0.00  0.00    -0.495 OA
ATOM     26  C   UNL     1      12.218   8.484  19.002  0.00  0.00    +0.277 C 
ENDBRANCH  18   3
ENDBRANCH  11  13
ENDBRANCH   4  11
ENDBRANCH   7   4
BRANCH   7  10
ATOM     10  C   UNL     1      20.646   8.666  21.202  0.00  0.00    +0.085 C 
BRANCH  10  12
ATOM      2  O   UNL     1      20.934   5.129  20.521  0.00  0.00    -0.353 OA
ATOM      5  N   UNL     1      20.198   6.300  20.653  0.00  0.00    -0.083 NA
ATOM     12  C   UNL     1      21.094   7.238  20.975  0.00  0.00    +0.086 A 
ATOM     14  C   UNL     1      22.399   6.721  21.060  0.00  0.00    +0.077 A 
ATOM     15  C   UNL     1      22.243   5.392  20.766  0.00  0.00    +0.186 A 
BRANCH  15  19
ATOM      6  N   UNL     1      24.297   4.535  20.030  0.00  0.00    -0.252 NA
ATOM     19  C   UNL     1      23.133   4.272  20.664  0.00  0.00    +0.109 A 
ATOM     22  C   UNL     1      22.796   3.034  21.186  0.00  0.00    +0.031 A 
ATOM     23  C   UNL     1      23.714   1.999  21.048  0.00  0.00    +0.004 A 
ATOM     24  C   UNL     1      25.164   3.503  19.914  0.00  0.00    +0.111 A 
ATOM     25  C   UNL     1      24.922   2.230  20.401  0.00  0.00    +0.020 A 
ENDBRANCH  15  19
ENDBRANCH  10  12
ENDBRANCH   7  10
TORSDOF 7
ENDMDL
