MODEL 1
REMARK VINA RESULT:      -7.3      0.000      0.000
REMARK  Name = 11882875
REMARK  3 active torsions:
REMARK  status: ('A' for Active; 'I' for Inactive)
REMARK    1  A    between atoms: N_7  and  C_10
REMARK    2  A    between atoms: C_18  and  C_23
REMARK    3  A    between atoms: C_21  and  C_24
REMARK                            x       y       z     vdW  Elec       q    Type
REMARK                         _______ _______ _______ _____ _____    ______ ____
ROOT
ATOM      2  O   UNL     1      17.708   5.892  19.041  0.00  0.00    -0.273 OA
ATOM      3  O   UNL     1      21.168   8.156  22.220  0.00  0.00    -0.270 OA
ATOM      6  N   UNL     1      19.063   7.400  21.599  0.00  0.00    -0.286 N 
ATOM      8  N   UNL     1      19.704   5.112  19.836  0.00  0.00    -0.283 N 
ATOM      9  C   UNL     1      18.178   6.263  21.379  0.00  0.00    +0.164 C 
ATOM     10  C   UNL     1      16.233   7.915  21.100  0.00  0.00    +0.077 C 
ATOM     11  C   UNL     1      16.691   6.552  21.618  0.00  0.00    +0.054 C 
ATOM     12  C   UNL     1      17.150   9.001  21.650  0.00  0.00    +0.041 C 
ATOM     13  C   UNL     1      18.589   8.738  21.236  0.00  0.00    +0.111 C 
ATOM     14  C   UNL     1      18.498   5.772  19.979  0.00  0.00    +0.238 C 
ATOM     15  C   UNL     1      20.409   7.232  21.925  0.00  0.00    +0.249 C 
ATOM     16  C   UNL     1      20.996   5.868  21.845  0.00  0.00    +0.059 A 
ATOM     17  C   UNL     1      20.728   4.964  20.801  0.00  0.00    +0.046 A 
ATOM     19  C   UNL     1      22.020   5.581  22.765  0.00  0.00    +0.026 A 
ATOM     20  C   UNL     1      21.537   3.826  20.664  0.00  0.00    +0.025 A 
ATOM     21  C   UNL     1      22.781   4.420  22.642  0.00  0.00    +0.018 A 
ATOM     22  C   UNL     1      22.550   3.549  21.583  0.00  0.00    +0.013 A 
ATOM     32  H   UNL     1      19.824   4.589  18.972  0.00  0.00    +0.155 HD
ENDROOT
BRANCH  21  24
ATOM      5  O   UNL     1      24.796   3.297  23.153  0.00  0.00    -0.463 OA
ATOM     24  C   UNL     1      23.826   4.135  23.595  0.00  0.00    +0.135 A 
ATOM     26  C   UNL     1      24.068   4.532  24.885  0.00  0.00    +0.050 A 
ATOM     29  C   UNL     1      25.272   3.894  25.268  0.00  0.00    +0.042 A 
ATOM     30  C   UNL     1      25.675   3.155  24.179  0.00  0.00    +0.196 A 
ENDBRANCH  21  24
BRANCH  10   7
ATOM      4  O   UNL     1      13.964   6.705  19.940  0.00  0.00    -0.270 OA
ATOM      7  N   UNL     1      14.860   8.167  21.470  0.00  0.00    -0.308 N 
ATOM     18  C   UNL     1      13.791   7.525  20.844  0.00  0.00    +0.251 C 
ATOM     31  H   UNL     1      14.699   8.794  22.249  0.00  0.00    +0.149 HD
BRANCH  18  23
ATOM      1  S   UNL     1      11.323   6.613  21.492  0.00  0.00    -0.092 S 
ATOM     23  C   UNL     1      12.455   7.862  21.353  0.00  0.00    +0.074 A 
ATOM     25  C   UNL     1      12.003   9.078  21.734  0.00  0.00    +0.021 A 
ATOM     27  C   UNL     1      10.650   8.997  22.170  0.00  0.00    +0.008 A 
ATOM     28  C   UNL     1      10.156   7.714  22.090  0.00  0.00    +0.046 A 
ENDBRANCH  18  23
ENDBRANCH  10   7
TORSDOF 3
ENDMDL
MODEL 2
REMARK VINA RESULT:      -7.2      3.048      9.906
REMARK  Name = 11882875
REMARK  3 active torsions:
REMARK  status: ('A' for Active; 'I' for Inactive)
REMARK    1  A    between atoms: N_7  and  C_10
REMARK    2  A    between atoms: C_18  and  C_23
REMARK    3  A    between atoms: C_21  and  C_24
REMARK                            x       y       z     vdW  Elec       q    Type
REMARK                         _______ _______ _______ _____ _____    ______ ____
ROOT
ATOM      2  O   UNL     1      20.401   8.654  21.269  0.00  0.00    -0.273 OA
ATOM      3  O   UNL     1      16.446   5.822  19.389  0.00  0.00    -0.270 OA
ATOM      6  N   UNL     1      18.351   6.188  20.664  0.00  0.00    -0.286 N 
ATOM      8  N   UNL     1      18.155   9.074  21.286  0.00  0.00    -0.283 N 
ATOM      9  C   UNL     1      18.947   6.815  21.838  0.00  0.00    +0.164 C 
ATOM     10  C   UNL     1      21.096   5.490  21.373  0.00  0.00    +0.077 C 
ATOM     11  C   UNL     1      20.147   6.065  22.425  0.00  0.00    +0.054 C 
ATOM     12  C   UNL     1      20.300   4.658  20.374  0.00  0.00    +0.041 C 
ATOM     13  C   UNL     1      19.231   5.510  19.709  0.00  0.00    +0.111 C 
ATOM     14  C   UNL     1      19.251   8.242  21.419  0.00  0.00    +0.238 C 
ATOM     15  C   UNL     1      17.020   6.407  20.309  0.00  0.00    +0.249 C 
ATOM     16  C   UNL     1      16.255   7.461  21.028  0.00  0.00    +0.059 A 
ATOM     17  C   UNL     1      16.787   8.721  21.359  0.00  0.00    +0.046 A 
ATOM     19  C   UNL     1      14.878   7.227  21.185  0.00  0.00    +0.026 A 
ATOM     20  C   UNL     1      15.914   9.737  21.777  0.00  0.00    +0.025 A 
ATOM     21  C   UNL     1      14.034   8.234  21.649  0.00  0.00    +0.018 A 
ATOM     22  C   UNL     1      14.549   9.494  21.932  0.00  0.00    +0.013 A 
ATOM     32  H   UNL     1      18.358  10.069  21.229  0.00  0.00    +0.155 HD
ENDROOT
BRANCH  21  24
ATOM      5  O   UNL     1      11.919   8.981  22.391  0.00  0.00    -0.463 OA
ATOM     24  C   UNL     1      12.623   7.979  21.810  0.00  0.00    +0.135 A 
ATOM     26  C   UNL     1      11.809   6.920  21.499  0.00  0.00    +0.050 A 
ATOM     29  C   UNL     1      10.509   7.294  21.918  0.00  0.00    +0.042 A 
ATOM     30  C   UNL     1      10.630   8.556  22.453  0.00  0.00    +0.196 A 
ENDBRANCH  21  24
BRANCH  10   7
ATOM      4  O   UNL     1      23.609   4.876  20.249  0.00  0.00    -0.270 OA
ATOM      7  N   UNL     1      22.128   4.695  21.996  0.00  0.00    -0.308 N 
ATOM     18  C   UNL     1      23.348   4.437  21.371  0.00  0.00    +0.251 C 
ATOM     31  H   UNL     1      21.955   4.373  22.942  0.00  0.00    +0.149 HD
BRANCH  18  23
ATOM      1  S   UNL     1      25.053   4.373  23.476  0.00  0.00    -0.092 S 
ATOM     23  C   UNL     1      24.309   3.640  22.145  0.00  0.00    +0.074 A 
ATOM     25  C   UNL     1      24.684   2.361  21.922  0.00  0.00    +0.021 A 
ATOM     27  C   UNL     1      25.639   1.942  22.893  0.00  0.00    +0.008 A 
ATOM     28  C   UNL     1      25.929   2.938  23.798  0.00  0.00    +0.046 A 
ENDBRANCH  18  23
ENDBRANCH  10   7
TORSDOF 3
ENDMDL
MODEL 3
REMARK VINA RESULT:      -6.9     28.796     32.897
REMARK  Name = 11882875
REMARK  3 active torsions:
REMARK  status: ('A' for Active; 'I' for Inactive)
REMARK    1  A    between atoms: N_7  and  C_10
REMARK    2  A    between atoms: C_18  and  C_23
REMARK    3  A    between atoms: C_21  and  C_24
REMARK                            x       y       z     vdW  Elec       q    Type
REMARK                         _______ _______ _______ _____ _____    ______ ____
ROOT
ATOM      2  O   UNL     1      -5.587 -14.100  16.552  0.00  0.00    -0.273 OA
ATOM      3  O   UNL     1      -7.221 -10.666  20.121  0.00  0.00    -0.270 OA
ATOM      6  N   UNL     1      -6.553 -11.340  18.002  0.00  0.00    -0.286 N 
ATOM      8  N   UNL     1      -7.400 -14.175  17.943  0.00  0.00    -0.283 N 
ATOM      9  C   UNL     1      -6.875 -12.073  16.784  0.00  0.00    +0.164 C 
ATOM     10  C   UNL     1      -4.766 -11.080  15.708  0.00  0.00    +0.077 C 
ATOM     11  C   UNL     1      -6.216 -11.524  15.514  0.00  0.00    +0.054 C 
ATOM     12  C   UNL     1      -4.685 -10.119  16.888  0.00  0.00    +0.041 C 
ATOM     13  C   UNL     1      -5.205 -10.785  18.151  0.00  0.00    +0.111 C 
ATOM     14  C   UNL     1      -6.534 -13.521  17.085  0.00  0.00    +0.238 C 
ATOM     15  C   UNL     1      -7.399 -11.349  19.111  0.00  0.00    +0.249 C 
ATOM     16  C   UNL     1      -8.553 -12.288  19.120  0.00  0.00    +0.059 A 
ATOM     17  C   UNL     1      -8.476 -13.620  18.673  0.00  0.00    +0.046 A 
ATOM     19  C   UNL     1      -9.701 -11.851  19.803  0.00  0.00    +0.026 A 
ATOM     20  C   UNL     1      -9.525 -14.501  18.981  0.00  0.00    +0.025 A 
ATOM     21  C   UNL     1     -10.755 -12.727  20.056  0.00  0.00    +0.018 A 
ATOM     22  C   UNL     1     -10.661 -14.056  19.657  0.00  0.00    +0.013 A 
ATOM     32  H   UNL     1      -7.314 -15.188  17.972  0.00  0.00    +0.155 HD
ENDROOT
BRANCH  21  24
ATOM      5  O   UNL     1     -12.368 -13.080  21.745  0.00  0.00    -0.463 OA
ATOM     24  C   UNL     1     -11.929 -12.264  20.754  0.00  0.00    +0.135 A 
ATOM     26  C   UNL     1     -12.726 -11.155  20.640  0.00  0.00    +0.050 A 
ATOM     29  C   UNL     1     -13.729 -11.293  21.629  0.00  0.00    +0.042 A 
ATOM     30  C   UNL     1     -13.467 -12.480  22.274  0.00  0.00    +0.196 A 
ENDBRANCH  21  24
BRANCH  10   7
ATOM      4  O   UNL     1      -3.281 -12.377  13.691  0.00  0.00    -0.270 OA
ATOM      7  N   UNL     1      -4.255 -10.463  14.507  0.00  0.00    -0.308 N 
ATOM     18  C   UNL     1      -3.526 -11.177  13.556  0.00  0.00    +0.251 C 
ATOM     31  H   UNL     1      -4.495  -9.491  14.349  0.00  0.00    +0.149 HD
BRANCH  18  23
ATOM      1  S   UNL     1      -4.299  -9.901  11.293  0.00  0.00    -0.092 S 
ATOM     23  C   UNL     1      -3.102 -10.418  12.371  0.00  0.00    +0.074 A 
ATOM     25  C   UNL     1      -1.842 -10.072  12.025  0.00  0.00    +0.021 A 
ATOM     27  C   UNL     1      -1.841  -9.338  10.805  0.00  0.00    +0.008 A 
ATOM     28  C   UNL     1      -3.111  -9.173  10.298  0.00  0.00    +0.046 A 
ENDBRANCH  18  23
ENDBRANCH  10   7
TORSDOF 3
ENDMDL
MODEL 4
REMARK VINA RESULT:      -6.9     28.018     32.747
REMARK  Name = 11882875
REMARK  3 active torsions:
REMARK  status: ('A' for Active; 'I' for Inactive)
REMARK    1  A    between atoms: N_7  and  C_10
REMARK    2  A    between atoms: C_18  and  C_23
REMARK    3  A    between atoms: C_21  and  C_24
REMARK                            x       y       z     vdW  Elec       q    Type
REMARK                         _______ _______ _______ _____ _____    ______ ____
ROOT
ATOM      2  O   UNL     1      -9.525 -12.210  20.519  0.00  0.00    -0.273 OA
ATOM      3  O   UNL     1      -8.005 -12.405  15.534  0.00  0.00    -0.270 OA
ATOM      6  N   UNL     1      -9.181 -11.546  17.342  0.00  0.00    -0.286 N 
ATOM      8  N   UNL     1      -7.422 -12.226  19.623  0.00  0.00    -0.283 N 
ATOM      9  C   UNL     1      -9.142 -10.804  18.596  0.00  0.00    +0.164 C 
ATOM     10  C   UNL     1     -11.710 -10.792  18.591  0.00  0.00    +0.077 C 
ATOM     11  C   UNL     1     -10.426 -10.032  18.923  0.00  0.00    +0.054 C 
ATOM     12  C   UNL     1     -11.653 -11.276  17.146  0.00  0.00    +0.041 C 
ATOM     13  C   UNL     1     -10.442 -12.170  16.935  0.00  0.00    +0.111 C 
ATOM     14  C   UNL     1      -8.743 -11.820  19.651  0.00  0.00    +0.238 C 
ATOM     15  C   UNL     1      -8.017 -11.871  16.644  0.00  0.00    +0.249 C 
ATOM     16  C   UNL     1      -6.703 -11.630  17.298  0.00  0.00    +0.059 A 
ATOM     17  C   UNL     1      -6.442 -11.914  18.651  0.00  0.00    +0.046 A 
ATOM     19  C   UNL     1      -5.640 -11.294  16.443  0.00  0.00    +0.026 A 
ATOM     20  C   UNL     1      -5.112 -11.920  19.099  0.00  0.00    +0.025 A 
ATOM     21  C   UNL     1      -4.330 -11.256  16.918  0.00  0.00    +0.018 A 
ATOM     22  C   UNL     1      -4.064 -11.583  18.242  0.00  0.00    +0.013 A 
ATOM     32  H   UNL     1      -7.092 -12.721  20.448  0.00  0.00    +0.155 HD
ENDROOT
BRANCH  21  24
ATOM      5  O   UNL     1      -2.050 -10.705  16.633  0.00  0.00    -0.463 OA
ATOM     24  C   UNL     1      -3.248 -10.906  16.030  0.00  0.00    +0.135 A 
ATOM     26  C   UNL     1      -3.153 -10.725  14.674  0.00  0.00    +0.050 A 
ATOM     29  C   UNL     1      -1.803 -10.387  14.421  0.00  0.00    +0.042 A 
ATOM     30  C   UNL     1      -1.173 -10.389  15.644  0.00  0.00    +0.196 A 
ENDBRANCH  21  24
BRANCH  10   7
ATOM      4  O   UNL     1     -13.656 -11.161  20.599  0.00  0.00    -0.270 OA
ATOM      7  N   UNL     1     -12.868  -9.958  18.808  0.00  0.00    -0.308 N 
ATOM     18  C   UNL     1     -13.786 -10.210  19.827  0.00  0.00    +0.251 C 
ATOM     31  H   UNL     1     -12.963  -9.137  18.220  0.00  0.00    +0.149 HD
BRANCH  18  23
ATOM      1  S   UNL     1     -15.761  -8.874  18.538  0.00  0.00    -0.092 S 
ATOM     23  C   UNL     1     -14.895  -9.253  19.941  0.00  0.00    +0.074 A 
ATOM     25  C   UNL     1     -15.322  -8.619  21.057  0.00  0.00    +0.021 A 
ATOM     27  C   UNL     1     -16.425  -7.769  20.759  0.00  0.00    +0.008 A 
ATOM     28  C   UNL     1     -16.767  -7.811  19.426  0.00  0.00    +0.046 A 
ENDBRANCH  18  23
ENDBRANCH  10   7
TORSDOF 3
ENDMDL
MODEL 5
REMARK VINA RESULT:      -6.8     22.563     28.939
REMARK  Name = 11882875
REMARK  3 active torsions:
REMARK  status: ('A' for Active; 'I' for Inactive)
REMARK    1  A    between atoms: N_7  and  C_10
REMARK    2  A    between atoms: C_18  and  C_23
REMARK    3  A    between atoms: C_21  and  C_24
REMARK                            x       y       z     vdW  Elec       q    Type
REMARK                         _______ _______ _______ _____ _____    ______ ____
ROOT
ATOM      2  O   UNL     1      -2.907  11.901   4.220  0.00  0.00    -0.273 OA
ATOM      3  O   UNL     1      -3.503   6.796   5.098  0.00  0.00    -0.270 OA
ATOM      6  N   UNL     1      -3.173   9.010   5.710  0.00  0.00    -0.286 N 
ATOM      8  N   UNL     1      -4.568  10.479   3.553  0.00  0.00    -0.283 N 
ATOM      9  C   UNL     1      -3.741  10.344   5.863  0.00  0.00    +0.164 C 
ATOM     10  C   UNL     1      -1.581  11.055   7.054  0.00  0.00    +0.077 C 
ATOM     11  C   UNL     1      -3.101  11.190   6.969  0.00  0.00    +0.054 C 
ATOM     12  C   UNL     1      -1.206   9.580   7.135  0.00  0.00    +0.041 C 
ATOM     13  C   UNL     1      -1.734   8.832   5.922  0.00  0.00    +0.111 C 
ATOM     14  C   UNL     1      -3.669  10.971   4.482  0.00  0.00    +0.238 C 
ATOM     15  C   UNL     1      -3.903   7.959   5.154  0.00  0.00    +0.249 C 
ATOM     16  C   UNL     1      -5.214   8.260   4.520  0.00  0.00    +0.059 A 
ATOM     17  C   UNL     1      -5.444   9.378   3.697  0.00  0.00    +0.046 A 
ATOM     19  C   UNL     1      -6.188   7.250   4.604  0.00  0.00    +0.026 A 
ATOM     20  C   UNL     1      -6.615   9.424   2.925  0.00  0.00    +0.025 A 
ATOM     21  C   UNL     1      -7.368   7.336   3.868  0.00  0.00    +0.018 A 
ATOM     22  C   UNL     1      -7.576   8.416   3.017  0.00  0.00    +0.013 A 
ATOM     32  H   UNL     1      -4.683  11.036   2.710  0.00  0.00    +0.155 HD
ENDROOT
BRANCH  21  24
ATOM      5  O   UNL     1      -9.189   6.184   2.898  0.00  0.00    -0.463 OA
ATOM     24  C   UNL     1      -8.360   6.294   3.966  0.00  0.00    +0.135 A 
ATOM     26  C   UNL     1      -8.665   5.361   4.923  0.00  0.00    +0.050 A 
ATOM     29  C   UNL     1      -9.760   4.623   4.412  0.00  0.00    +0.042 A 
ATOM     30  C   UNL     1     -10.039   5.163   3.177  0.00  0.00    +0.196 A 
ENDBRANCH  21  24
BRANCH  10   7
ATOM      4  O   UNL     1       0.936  12.321   7.203  0.00  0.00    -0.270 OA
ATOM      7  N   UNL     1      -1.066  11.780   8.192  0.00  0.00    -0.308 N 
ATOM     18  C   UNL     1       0.194  12.378   8.185  0.00  0.00    +0.251 C 
ATOM     31  H   UNL     1      -1.684  11.887   8.988  0.00  0.00    +0.149 HD
BRANCH  18  23
ATOM      1  S   UNL     1       2.207  13.371   9.703  0.00  0.00    -0.092 S 
ATOM     23  C   UNL     1       0.563  13.107   9.406  0.00  0.00    +0.074 A 
ATOM     25  C   UNL     1      -0.268  13.606  10.348  0.00  0.00    +0.021 A 
ATOM     27  C   UNL     1       0.472  14.247  11.382  0.00  0.00    +0.008 A 
ATOM     28  C   UNL     1       1.830  14.193  11.157  0.00  0.00    +0.046 A 
ENDBRANCH  18  23
ENDBRANCH  10   7
TORSDOF 3
ENDMDL
MODEL 6
REMARK VINA RESULT:      -6.8     33.275     35.693
REMARK  Name = 11882875
REMARK  3 active torsions:
REMARK  status: ('A' for Active; 'I' for Inactive)
REMARK    1  A    between atoms: N_7  and  C_10
REMARK    2  A    between atoms: C_18  and  C_23
REMARK    3  A    between atoms: C_21  and  C_24
REMARK                            x       y       z     vdW  Elec       q    Type
REMARK                         _______ _______ _______ _____ _____    ______ ____
ROOT
ATOM      2  O   UNL     1     -14.303   3.615  34.538  0.00  0.00    -0.273 OA
ATOM      3  O   UNL     1     -17.534   5.219  30.772  0.00  0.00    -0.270 OA
ATOM      6  N   UNL     1     -15.671   5.367  32.148  0.00  0.00    -0.286 N 
ATOM      8  N   UNL     1     -15.041   2.523  32.670  0.00  0.00    -0.283 N 
ATOM      9  C   UNL     1     -14.340   4.870  32.477  0.00  0.00    +0.164 C 
ATOM     10  C   UNL     1     -14.092   6.823  34.125  0.00  0.00    +0.077 C 
ATOM     11  C   UNL     1     -13.407   5.909  33.109  0.00  0.00    +0.054 C 
ATOM     12  C   UNL     1     -15.336   7.439  33.495  0.00  0.00    +0.041 C 
ATOM     13  C   UNL     1     -16.292   6.350  33.038  0.00  0.00    +0.111 C 
ATOM     14  C   UNL     1     -14.573   3.640  33.337  0.00  0.00    +0.238 C 
ATOM     15  C   UNL     1     -16.452   4.774  31.155  0.00  0.00    +0.249 C 
ATOM     16  C   UNL     1     -15.997   3.487  30.565  0.00  0.00    +0.059 A 
ATOM     17  C   UNL     1     -15.454   2.431  31.321  0.00  0.00    +0.046 A 
ATOM     19  C   UNL     1     -16.331   3.273  29.216  0.00  0.00    +0.026 A 
ATOM     20  C   UNL     1     -15.321   1.168  30.724  0.00  0.00    +0.025 A 
ATOM     21  C   UNL     1     -16.144   2.024  28.626  0.00  0.00    +0.018 A 
ATOM     22  C   UNL     1     -15.653   0.967  29.384  0.00  0.00    +0.013 A 
ATOM     32  H   UNL     1     -14.985   1.646  33.182  0.00  0.00    +0.155 HD
ENDROOT
BRANCH  21  24
ATOM      5  O   UNL     1     -16.940   0.578  26.936  0.00  0.00    -0.463 OA
ATOM     24  C   UNL     1     -16.487   1.820  27.240  0.00  0.00    +0.135 A 
ATOM     26  C   UNL     1     -16.458   2.620  26.127  0.00  0.00    +0.050 A 
ATOM     29  C   UNL     1     -16.925   1.817  25.059  0.00  0.00    +0.042 A 
ATOM     30  C   UNL     1     -17.205   0.585  25.603  0.00  0.00    +0.196 A 
ENDBRANCH  21  24
BRANCH  10   7
ATOM      4  O   UNL     1     -12.707   6.826  36.583  0.00  0.00    -0.270 OA
ATOM      7  N   UNL     1     -13.185   7.849  34.582  0.00  0.00    -0.308 N 
ATOM     18  C   UNL     1     -12.539   7.776  35.816  0.00  0.00    +0.251 C 
ATOM     31  H   UNL     1     -12.989   8.610  33.941  0.00  0.00    +0.149 HD
BRANCH  18  23
ATOM      1  S   UNL     1     -11.286   9.199  37.752  0.00  0.00    -0.092 S 
ATOM     23  C   UNL     1     -11.621   8.881  36.125  0.00  0.00    +0.074 A 
ATOM     25  C   UNL     1     -10.995   9.699  35.249  0.00  0.00    +0.021 A 
ATOM     27  C   UNL     1     -10.187  10.648  35.938  0.00  0.00    +0.008 A 
ATOM     28  C   UNL     1     -10.253  10.490  37.304  0.00  0.00    +0.046 A 
ENDBRANCH  18  23
ENDBRANCH  10   7
TORSDOF 3
ENDMDL
MODEL 7
REMARK VINA RESULT:      -6.8     29.028     32.392
REMARK  Name = 11882875
REMARK  3 active torsions:
REMARK  status: ('A' for Active; 'I' for Inactive)
REMARK    1  A    between atoms: N_7  and  C_10
REMARK    2  A    between atoms: C_18  and  C_23
REMARK    3  A    between atoms: C_21  and  C_24
REMARK                            x       y       z     vdW  Elec       q    Type
REMARK                         _______ _______ _______ _____ _____    ______ ____
ROOT
ATOM      2  O   UNL     1      -7.160 -11.769  20.225  0.00  0.00    -0.273 OA
ATOM      3  O   UNL     1      -7.113 -13.279  15.234  0.00  0.00    -0.270 OA
ATOM      6  N   UNL     1      -7.956 -12.159  17.084  0.00  0.00    -0.286 N 
ATOM      8  N   UNL     1      -5.510 -11.594  18.652  0.00  0.00    -0.283 N 
ATOM      9  C   UNL     1      -7.821 -11.048  18.019  0.00  0.00    +0.164 C 
ATOM     10  C   UNL     1     -10.138 -11.640  18.953  0.00  0.00    +0.077 C 
ATOM     11  C   UNL     1      -9.144 -10.534  18.598  0.00  0.00    +0.054 C 
ATOM     12  C   UNL     1     -10.327 -12.556  17.750  0.00  0.00    +0.041 C 
ATOM     13  C   UNL     1      -8.997 -13.160  17.330  0.00  0.00    +0.111 C 
ATOM     14  C   UNL     1      -6.828 -11.524  19.065  0.00  0.00    +0.238 C 
ATOM     15  C   UNL     1      -6.994 -12.419  16.108  0.00  0.00    +0.249 C 
ATOM     16  C   UNL     1      -5.709 -11.671  16.156  0.00  0.00    +0.059 A 
ATOM     17  C   UNL     1      -5.003 -11.410  17.345  0.00  0.00    +0.046 A 
ATOM     19  C   UNL     1      -5.102 -11.405  14.916  0.00  0.00    +0.026 A 
ATOM     20  C   UNL     1      -3.679 -10.954  17.261  0.00  0.00    +0.025 A 
ATOM     21  C   UNL     1      -3.803 -10.904  14.854  0.00  0.00    +0.018 A 
ATOM     22  C   UNL     1      -3.086 -10.691  16.025  0.00  0.00    +0.013 A 
ATOM     32  H   UNL     1      -4.819 -11.690  19.391  0.00  0.00    +0.155 HD
ENDROOT
BRANCH  21  24
ATOM      5  O   UNL     1      -4.058 -10.511  12.538  0.00  0.00    -0.463 OA
ATOM     24  C   UNL     1      -3.193 -10.633  13.575  0.00  0.00    +0.135 A 
ATOM     26  C   UNL     1      -1.898 -10.465  13.158  0.00  0.00    +0.050 A 
ATOM     29  C   UNL     1      -1.966 -10.224  11.765  0.00  0.00    +0.042 A 
ATOM     30  C   UNL     1      -3.302 -10.262  11.437  0.00  0.00    +0.196 A 
ENDBRANCH  21  24
BRANCH  10   7
ATOM      4  O   UNL     1     -11.796 -12.650  21.000  0.00  0.00    -0.270 OA
ATOM      7  N   UNL     1     -11.400 -11.077  19.373  0.00  0.00    -0.308 N 
ATOM     18  C   UNL     1     -12.162 -11.639  20.397  0.00  0.00    +0.251 C 
ATOM     31  H   UNL     1     -11.690 -10.213  18.929  0.00  0.00    +0.149 HD
BRANCH  18  23
ATOM      1  S   UNL     1     -14.593 -11.783  21.584  0.00  0.00    -0.092 S 
ATOM     23  C   UNL     1     -13.406 -10.933  20.732  0.00  0.00    +0.074 A 
ATOM     25  C   UNL     1     -13.730  -9.654  20.435  0.00  0.00    +0.021 A 
ATOM     27  C   UNL     1     -15.026  -9.337  20.931  0.00  0.00    +0.008 A 
ATOM     28  C   UNL     1     -15.609 -10.405  21.577  0.00  0.00    +0.046 A 
ENDBRANCH  18  23
ENDBRANCH  10   7
TORSDOF 3
ENDMDL
MODEL 8
REMARK VINA RESULT:      -6.7     30.214     34.273
REMARK  Name = 11882875
REMARK  3 active torsions:
REMARK  status: ('A' for Active; 'I' for Inactive)
REMARK    1  A    between atoms: N_7  and  C_10
REMARK    2  A    between atoms: C_18  and  C_23
REMARK    3  A    between atoms: C_21  and  C_24
REMARK                            x       y       z     vdW  Elec       q    Type
REMARK                         _______ _______ _______ _____ _____    ______ ____
ROOT
ATOM      2  O   UNL     1     -13.101   8.346  35.121  0.00  0.00    -0.273 OA
ATOM      3  O   UNL     1     -15.921   6.728  31.043  0.00  0.00    -0.270 OA
ATOM      6  N   UNL     1     -14.114   7.758  32.075  0.00  0.00    -0.286 N 
ATOM      8  N   UNL     1     -13.902   6.265  34.621  0.00  0.00    -0.283 N 
ATOM      9  C   UNL     1     -12.879   7.607  32.836  0.00  0.00    +0.164 C 
ATOM     10  C   UNL     1     -12.435  10.111  32.485  0.00  0.00    +0.077 C 
ATOM     11  C   UNL     1     -11.840   8.707  32.594  0.00  0.00    +0.054 C 
ATOM     12  C   UNL     1     -13.555  10.107  31.451  0.00  0.00    +0.041 C 
ATOM     13  C   UNL     1     -14.632   9.108  31.840  0.00  0.00    +0.111 C 
ATOM     14  C   UNL     1     -13.314   7.470  34.283  0.00  0.00    +0.238 C 
ATOM     15  C   UNL     1     -14.926   6.666  31.767  0.00  0.00    +0.249 C 
ATOM     16  C   UNL     1     -14.628   5.354  32.403  0.00  0.00    +0.059 A 
ATOM     17  C   UNL     1     -14.267   5.208  33.755  0.00  0.00    +0.046 A 
ATOM     19  C   UNL     1     -14.930   4.214  31.638  0.00  0.00    +0.026 A 
ATOM     20  C   UNL     1     -14.283   3.926  34.327  0.00  0.00    +0.025 A 
ATOM     21  C   UNL     1     -14.892   2.944  32.211  0.00  0.00    +0.018 A 
ATOM     22  C   UNL     1     -14.582   2.801  33.558  0.00  0.00    +0.013 A 
ATOM     32  H   UNL     1     -13.988   6.077  35.617  0.00  0.00    +0.155 HD
ENDROOT
BRANCH  21  24
ATOM      5  O   UNL     1     -14.952   0.590  32.012  0.00  0.00    -0.463 OA
ATOM     24  C   UNL     1     -15.201   1.782  31.414  0.00  0.00    +0.135 A 
ATOM     26  C   UNL     1     -15.704   1.603  30.151  0.00  0.00    +0.050 A 
ATOM     29  C   UNL     1     -15.770   0.203  29.953  0.00  0.00    +0.042 A 
ATOM     30  C   UNL     1     -15.302  -0.368  31.114  0.00  0.00    +0.196 A 
ENDBRANCH  21  24
BRANCH  10   7
ATOM      4  O   UNL     1     -10.649  11.348  34.284  0.00  0.00    -0.270 OA
ATOM      7  N   UNL     1     -11.416  11.073  32.136  0.00  0.00    -0.308 N 
ATOM     18  C   UNL     1     -10.571  11.640  33.089  0.00  0.00    +0.251 C 
ATOM     31  H   UNL     1     -11.298  11.283  31.151  0.00  0.00    +0.149 HD
BRANCH  18  23
ATOM      1  S   UNL     1      -9.970  14.219  32.511  0.00  0.00    -0.092 S 
ATOM     23  C   UNL     1      -9.564  12.578  32.574  0.00  0.00    +0.074 A 
ATOM     25  C   UNL     1      -8.320  12.287  32.132  0.00  0.00    +0.021 A 
ATOM     27  C   UNL     1      -7.647  13.469  31.714  0.00  0.00    +0.008 A 
ATOM     28  C   UNL     1      -8.429  14.592  31.865  0.00  0.00    +0.046 A 
ENDBRANCH  18  23
ENDBRANCH  10   7
TORSDOF 3
ENDMDL
MODEL 9
REMARK VINA RESULT:      -6.6     15.774     18.869
REMARK  Name = 11882875
REMARK  3 active torsions:
REMARK  status: ('A' for Active; 'I' for Inactive)
REMARK    1  A    between atoms: N_7  and  C_10
REMARK    2  A    between atoms: C_18  and  C_23
REMARK    3  A    between atoms: C_21  and  C_24
REMARK                            x       y       z     vdW  Elec       q    Type
REMARK                         _______ _______ _______ _____ _____    ______ ____
ROOT
ATOM      2  O   UNL     1       8.468   7.435   8.241  0.00  0.00    -0.273 OA
ATOM      3  O   UNL     1       9.501   8.525   3.246  0.00  0.00    -0.270 OA
ATOM      6  N   UNL     1       9.766   8.735   5.543  0.00  0.00    -0.286 N 
ATOM      8  N   UNL     1       9.023   6.041   6.516  0.00  0.00    -0.283 N 
ATOM      9  C   UNL     1      10.255   8.149   6.785  0.00  0.00    +0.164 C 
ATOM     10  C   UNL     1       9.776  10.387   7.950  0.00  0.00    +0.077 C 
ATOM     11  C   UNL     1      10.692   9.168   7.844  0.00  0.00    +0.054 C 
ATOM     12  C   UNL     1       9.589  11.002   6.568  0.00  0.00    +0.041 C 
ATOM     13  C   UNL     1       8.999   9.982   5.609  0.00  0.00    +0.111 C 
ATOM     14  C   UNL     1       9.156   7.209   7.245  0.00  0.00    +0.238 C 
ATOM     15  C   UNL     1       9.806   8.037   4.335  0.00  0.00    +0.249 C 
ATOM     16  C   UNL     1      10.168   6.595   4.358  0.00  0.00    +0.059 A 
ATOM     17  C   UNL     1       9.692   5.687   5.322  0.00  0.00    +0.046 A 
ATOM     19  C   UNL     1      10.855   6.112   3.231  0.00  0.00    +0.026 A 
ATOM     20  C   UNL     1       9.857   4.311   5.098  0.00  0.00    +0.025 A 
ATOM     21  C   UNL     1      11.054   4.744   3.051  0.00  0.00    +0.018 A 
ATOM     22  C   UNL     1      10.543   3.842   3.977  0.00  0.00    +0.013 A 
ATOM     32  H   UNL     1       8.455   5.314   6.944  0.00  0.00    +0.155 HD
ENDROOT
BRANCH  21  24
ATOM      5  O   UNL     1      11.176   4.538   0.700  0.00  0.00    -0.463 OA
ATOM     24  C   UNL     1      11.764   4.263   1.891  0.00  0.00    +0.135 A 
ATOM     26  C   UNL     1      12.933   3.568   1.714  0.00  0.00    +0.050 A 
ATOM     29  C   UNL     1      13.078   3.402   0.316  0.00  0.00    +0.042 A 
ATOM     30  C   UNL     1      11.984   4.010  -0.256  0.00  0.00    +0.196 A 
ENDBRANCH  21  24
BRANCH  10   7
ATOM      4  O   UNL     1       8.668  11.079  10.450  0.00  0.00    -0.270 OA
ATOM      7  N   UNL     1      10.317  11.355   8.875  0.00  0.00    -0.308 N 
ATOM     18  C   UNL     1       9.706  11.640  10.095  0.00  0.00    +0.251 C 
ATOM     31  H   UNL     1      11.201  11.785   8.627  0.00  0.00    +0.149 HD
BRANCH  18  23
ATOM      1  S   UNL     1      10.707  12.204  12.550  0.00  0.00    -0.092 S 
ATOM     23  C   UNL     1      10.395  12.625  10.942  0.00  0.00    +0.074 A 
ATOM     25  C   UNL     1      10.821  13.858  10.587  0.00  0.00    +0.021 A 
ATOM     27  C   UNL     1      11.444  14.509  11.690  0.00  0.00    +0.008 A 
ATOM     28  C   UNL     1      11.451  13.722  12.820  0.00  0.00    +0.046 A 
ENDBRANCH  18  23
ENDBRANCH  10   7
TORSDOF 3
ENDMDL
MODEL 10
REMARK VINA RESULT:      -6.5     16.663     19.469
REMARK  Name = 11882875
REMARK  3 active torsions:
REMARK  status: ('A' for Active; 'I' for Inactive)
REMARK    1  A    between atoms: N_7  and  C_10
REMARK    2  A    between atoms: C_18  and  C_23
REMARK    3  A    between atoms: C_21  and  C_24
REMARK                            x       y       z     vdW  Elec       q    Type
REMARK                         _______ _______ _______ _____ _____    ______ ____
ROOT
ATOM      2  O   UNL     1      13.227   8.193   6.768  0.00  0.00    -0.273 OA
ATOM      3  O   UNL     1      10.169   4.489   4.736  0.00  0.00    -0.270 OA
ATOM      6  N   UNL     1      10.625   6.579   5.637  0.00  0.00    -0.286 N 
ATOM      8  N   UNL     1      13.431   7.027   4.812  0.00  0.00    -0.283 N 
ATOM      9  C   UNL     1      11.225   7.895   5.455  0.00  0.00    +0.164 C 
ATOM     10  C   UNL     1      10.143   8.622   7.667  0.00  0.00    +0.077 C 
ATOM     11  C   UNL     1      10.553   9.021   6.249  0.00  0.00    +0.054 C 
ATOM     12  C   UNL     1       9.310   7.346   7.613  0.00  0.00    +0.041 C 
ATOM     13  C   UNL     1      10.099   6.225   6.958  0.00  0.00    +0.111 C 
ATOM     14  C   UNL     1      12.699   7.710   5.765  0.00  0.00    +0.238 C 
ATOM     15  C   UNL     1      10.742   5.578   4.673  0.00  0.00    +0.249 C 
ATOM     16  C   UNL     1      11.667   5.795   3.529  0.00  0.00    +0.059 A 
ATOM     17  C   UNL     1      12.946   6.367   3.659  0.00  0.00    +0.046 A 
ATOM     19  C   UNL     1      11.294   5.202   2.311  0.00  0.00    +0.026 A 
ATOM     20  C   UNL     1      13.846   6.270   2.586  0.00  0.00    +0.025 A 
ATOM     21  C   UNL     1      12.183   5.160   1.238  0.00  0.00    +0.018 A 
ATOM     22  C   UNL     1      13.464   5.681   1.380  0.00  0.00    +0.013 A 
ATOM     32  H   UNL     1      14.443   7.094   4.898  0.00  0.00    +0.155 HD
ENDROOT
BRANCH  21  24
ATOM      5  O   UNL     1      12.649   3.627  -0.498  0.00  0.00    -0.463 OA
ATOM     24  C   UNL     1      11.786   4.551  -0.008  0.00  0.00    +0.135 A 
ATOM     26  C   UNL     1      10.702   4.700  -0.834  0.00  0.00    +0.050 A 
ATOM     29  C   UNL     1      10.909   3.806  -1.911  0.00  0.00    +0.042 A 
ATOM     30  C   UNL     1      12.106   3.177  -1.660  0.00  0.00    +0.196 A 
ENDBRANCH  21  24
BRANCH  10   7
ATOM      4  O   UNL     1      11.268  10.740   9.151  0.00  0.00    -0.270 OA
ATOM      7  N   UNL     1       9.409   9.688   8.306  0.00  0.00    -0.308 N 
ATOM     18  C   UNL     1      10.043  10.701   9.025  0.00  0.00    +0.251 C 
ATOM     31  H   UNL     1       8.405   9.707   8.166  0.00  0.00    +0.149 HD
BRANCH  18  23
ATOM      1  S   UNL     1       8.626  12.964   8.560  0.00  0.00    -0.092 S 
ATOM     23  C   UNL     1       9.163  11.734   9.589  0.00  0.00    +0.074 A 
ATOM     25  C   UNL     1       8.717  11.827  10.862  0.00  0.00    +0.021 A 
ATOM     27  C   UNL     1       7.883  12.970  11.019  0.00  0.00    +0.008 A 
ATOM     28  C   UNL     1       7.749  13.678   9.846  0.00  0.00    +0.046 A 
ENDBRANCH  18  23
ENDBRANCH  10   7
TORSDOF 3
ENDMDL
