MODEL 1
REMARK VINA RESULT:      -6.7      0.000      0.000
REMARK  Name = 7143813
REMARK  3 active torsions:
REMARK  status: ('A' for Active; 'I' for Inactive)
REMARK    1  A    between atoms: N_6  and  C_21
REMARK    2  A    between atoms: C_18  and  C_20
REMARK    3  A    between atoms: C_27  and  C_30
REMARK                            x       y       z     vdW  Elec       q    Type
REMARK                         _______ _______ _______ _____ _____    ______ ____
ROOT
ATOM      1  O   UNL     1      14.130  11.838  18.621  0.00  0.00    -0.267 OA
ATOM      2  O   UNL     1      10.776   8.849  19.748  0.00  0.00    -0.252 OA
ATOM      4  N   UNL     1      12.596   7.464  20.121  0.00  0.00    -0.284 N 
ATOM      5  N   UNL     1      14.624   9.719  19.456  0.00  0.00    -0.311 N 
ATOM      6  N   UNL     1      11.850   8.951  21.796  0.00  0.00    -0.269 N 
ATOM      8  C   UNL     1      14.099   7.576  18.152  0.00  0.00    +0.027 C 
ATOM      9  C   UNL     1      15.050   7.430  20.423  0.00  0.00    +0.054 C 
ATOM     10  C   UNL     1      15.228   6.962  18.977  0.00  0.00    +0.018 C 
ATOM     11  C   UNL     1      12.728   7.128  18.701  0.00  0.00    +0.114 C 
ATOM     12  C   UNL     1      14.262   9.102  18.169  0.00  0.00    +0.130 C 
ATOM     13  C   UNL     1      13.688   6.929  20.957  0.00  0.00    +0.119 C 
ATOM     14  C   UNL     1      15.102   8.944  20.518  0.00  0.00    +0.027 A 
ATOM     15  C   UNL     1      15.531   9.535  21.644  0.00  0.00    +0.022 A 
ATOM     16  C   UNL     1      14.543  11.123  19.535  0.00  0.00    +0.262 A 
ATOM     17  C   UNL     1      11.664   8.453  20.509  0.00  0.00    +0.306 C 
ATOM     18  C   UNL     1      14.989  11.753  20.827  0.00  0.00    +0.082 A 
ATOM     19  C   UNL     1      15.475  10.961  21.795  0.00  0.00    +0.018 A 
ATOM     31  H   UNL     1      12.280   8.357  22.495  0.00  0.00    +0.156 HD
ENDROOT
BRANCH   6  21
ATOM     21  C   UNL     1      11.508  10.244  22.259  0.00  0.00    +0.036 A 
ATOM     24  C   UNL     1      11.558  11.328  21.386  0.00  0.00    +0.042 A 
ATOM     25  C   UNL     1      11.126  10.426  23.586  0.00  0.00    +0.023 A 
ATOM     27  C   UNL     1      11.221  12.602  21.843  0.00  0.00    +0.054 A 
ATOM     28  C   UNL     1      10.789  11.700  24.043  0.00  0.00    +0.003 A 
ATOM     29  C   UNL     1      10.837  12.788  23.171  0.00  0.00    +0.019 A 
BRANCH  27  30
ATOM      7  N   UNL     1      11.309  14.622  20.224  0.00  0.00    -0.191 NA
ATOM     30  C   UNL     1      11.269  13.716  20.950  0.00  0.00    +0.099 C 
ENDBRANCH  27  30
ENDBRANCH   6  21
BRANCH  18  20
ATOM      3  O   UNL     1      15.136  14.104  20.027  0.00  0.00    -0.463 OA
ATOM     20  C   UNL     1      14.916  13.209  21.033  0.00  0.00    +0.140 A 
ATOM     22  C   UNL     1      14.629  13.882  22.206  0.00  0.00    +0.050 A 
ATOM     23  C   UNL     1      14.677  15.263  21.898  0.00  0.00    +0.042 A 
ATOM     26  C   UNL     1      14.989  15.346  20.561  0.00  0.00    +0.196 A 
ENDBRANCH  18  20
TORSDOF 3
ENDMDL
MODEL 2
REMARK VINA RESULT:      -6.6      2.340      4.063
REMARK  Name = 7143813
REMARK  3 active torsions:
REMARK  status: ('A' for Active; 'I' for Inactive)
REMARK    1  A    between atoms: N_6  and  C_21
REMARK    2  A    between atoms: C_18  and  C_20
REMARK    3  A    between atoms: C_27  and  C_30
REMARK                            x       y       z     vdW  Elec       q    Type
REMARK                         _______ _______ _______ _____ _____    ______ ____
ROOT
ATOM      1  O   UNL     1      10.987  10.180  22.252  0.00  0.00    -0.267 OA
ATOM      2  O   UNL     1      14.900   7.704  22.339  0.00  0.00    -0.252 OA
ATOM      4  N   UNL     1      14.606   7.782  20.042  0.00  0.00    -0.284 N 
ATOM      5  N   UNL     1      12.084   9.576  20.286  0.00  0.00    -0.311 N 
ATOM      6  N   UNL     1      15.685   9.548  21.180  0.00  0.00    -0.269 N 
ATOM      8  C   UNL     1      12.270   7.140  19.515  0.00  0.00    +0.027 C 
ATOM      9  C   UNL     1      13.379   8.925  18.224  0.00  0.00    +0.054 C 
ATOM     10  C   UNL     1      12.419   7.739  18.118  0.00  0.00    +0.018 C 
ATOM     11  C   UNL     1      13.642   6.680  20.050  0.00  0.00    +0.114 C 
ATOM     12  C   UNL     1      11.613   8.188  20.423  0.00  0.00    +0.130 C 
ATOM     13  C   UNL     1      14.755   8.424  18.722  0.00  0.00    +0.119 C 
ATOM     14  C   UNL     1      12.849   9.974  19.185  0.00  0.00    +0.027 A 
ATOM     15  C   UNL     1      13.175  11.266  19.021  0.00  0.00    +0.022 A 
ATOM     16  C   UNL     1      11.662  10.492  21.270  0.00  0.00    +0.262 A 
ATOM     17  C   UNL     1      15.064   8.304  21.273  0.00  0.00    +0.306 C 
ATOM     18  C   UNL     1      12.082  11.925  21.083  0.00  0.00    +0.082 A 
ATOM     19  C   UNL     1      12.781  12.253  19.985  0.00  0.00    +0.018 A 
ATOM     31  H   UNL     1      16.150   9.801  20.317  0.00  0.00    +0.156 HD
ENDROOT
BRANCH   6  21
ATOM     21  C   UNL     1      15.732  10.544  22.184  0.00  0.00    +0.036 A 
ATOM     24  C   UNL     1      14.668  10.686  23.071  0.00  0.00    +0.042 A 
ATOM     25  C   UNL     1      16.842  11.380  22.278  0.00  0.00    +0.023 A 
ATOM     27  C   UNL     1      14.715  11.668  24.059  0.00  0.00    +0.054 A 
ATOM     28  C   UNL     1      16.890  12.362  23.266  0.00  0.00    +0.003 A 
ATOM     29  C   UNL     1      15.826  12.507  24.157  0.00  0.00    +0.019 A 
BRANCH  27  30
ATOM      7  N   UNL     1      12.740  11.938  25.714  0.00  0.00    -0.191 NA
ATOM     30  C   UNL     1      13.626  11.816  24.972  0.00  0.00    +0.099 C 
ENDBRANCH  27  30
ENDBRANCH   6  21
BRANCH  18  20
ATOM      3  O   UNL     1      10.573  12.917  22.795  0.00  0.00    -0.463 OA
ATOM     20  C   UNL     1      11.725  12.962  22.066  0.00  0.00    +0.140 A 
ATOM     22  C   UNL     1      12.451  14.089  22.404  0.00  0.00    +0.050 A 
ATOM     23  C   UNL     1      11.698  14.769  23.392  0.00  0.00    +0.042 A 
ATOM     26  C   UNL     1      10.565  14.016  23.595  0.00  0.00    +0.196 A 
ENDBRANCH  18  20
TORSDOF 3
ENDMDL
MODEL 3
REMARK VINA RESULT:      -6.2     27.929     30.088
REMARK  Name = 7143813
REMARK  3 active torsions:
REMARK  status: ('A' for Active; 'I' for Inactive)
REMARK    1  A    between atoms: N_6  and  C_21
REMARK    2  A    between atoms: C_18  and  C_20
REMARK    3  A    between atoms: C_27  and  C_30
REMARK                            x       y       z     vdW  Elec       q    Type
REMARK                         _______ _______ _______ _____ _____    ______ ____
ROOT
ATOM      1  O   UNL     1      -6.422 -10.286  15.090  0.00  0.00    -0.267 OA
ATOM      2  O   UNL     1      -6.063 -13.697  11.977  0.00  0.00    -0.252 OA
ATOM      4  N   UNL     1      -4.352 -12.347  11.191  0.00  0.00    -0.284 N 
ATOM      5  N   UNL     1      -4.725 -10.297  13.492  0.00  0.00    -0.311 N 
ATOM      6  N   UNL     1      -3.965 -13.886  12.939  0.00  0.00    -0.269 N 
ATOM      8  C   UNL     1      -5.199 -10.025  10.989  0.00  0.00    +0.027 C 
ATOM      9  C   UNL     1      -2.894 -10.434  11.765  0.00  0.00    +0.054 C 
ATOM     10  C   UNL     1      -3.764  -9.507  10.915  0.00  0.00    +0.018 C 
ATOM     11  C   UNL     1      -5.274 -11.473  10.461  0.00  0.00    +0.114 C 
ATOM     12  C   UNL     1      -5.681  -9.909  12.442  0.00  0.00    +0.130 C 
ATOM     13  C   UNL     1      -2.957 -11.866  11.185  0.00  0.00    +0.119 C 
ATOM     14  C   UNL     1      -3.364 -10.455  13.208  0.00  0.00    +0.027 A 
ATOM     15  C   UNL     1      -2.493 -10.699  14.199  0.00  0.00    +0.022 A 
ATOM     16  C   UNL     1      -5.232 -10.420  14.801  0.00  0.00    +0.262 A 
ATOM     17  C   UNL     1      -4.879 -13.350  12.034  0.00  0.00    +0.306 C 
ATOM     18  C   UNL     1      -4.237 -10.740  15.883  0.00  0.00    +0.082 A 
ATOM     19  C   UNL     1      -2.939 -10.840  15.555  0.00  0.00    +0.018 A 
ATOM     31  H   UNL     1      -2.982 -13.891  12.698  0.00  0.00    +0.156 HD
ENDROOT
BRANCH   6  21
ATOM     21  C   UNL     1      -4.258 -14.433  14.211  0.00  0.00    +0.036 A 
ATOM     24  C   UNL     1      -5.319 -13.925  14.956  0.00  0.00    +0.042 A 
ATOM     25  C   UNL     1      -3.483 -15.477  14.710  0.00  0.00    +0.023 A 
ATOM     27  C   UNL     1      -5.606 -14.465  16.210  0.00  0.00    +0.054 A 
ATOM     28  C   UNL     1      -3.770 -16.016  15.964  0.00  0.00    +0.003 A 
ATOM     29  C   UNL     1      -4.832 -15.510  16.714  0.00  0.00    +0.019 A 
BRANCH  27  30
ATOM      7  N   UNL     1      -7.578 -13.525  17.603  0.00  0.00    -0.191 NA
ATOM     30  C   UNL     1      -6.694 -13.947  16.978  0.00  0.00    +0.099 C 
ENDBRANCH  27  30
ENDBRANCH   6  21
BRANCH  18  20
ATOM      3  O   UNL     1      -5.732 -10.272  17.816  0.00  0.00    -0.463 OA
ATOM     20  C   UNL     1      -4.659 -10.924  17.282  0.00  0.00    +0.140 A 
ATOM     22  C   UNL     1      -4.082 -11.739  18.237  0.00  0.00    +0.050 A 
ATOM     23  C   UNL     1      -4.845 -11.575  19.419  0.00  0.00    +0.042 A 
ATOM     26  C   UNL     1      -5.836 -10.672  19.111  0.00  0.00    +0.196 A 
ENDBRANCH  18  20
TORSDOF 3
ENDMDL
MODEL 4
REMARK VINA RESULT:      -6.2     14.311     17.168
REMARK  Name = 7143813
REMARK  3 active torsions:
REMARK  status: ('A' for Active; 'I' for Inactive)
REMARK    1  A    between atoms: N_6  and  C_21
REMARK    2  A    between atoms: C_18  and  C_20
REMARK    3  A    between atoms: C_27  and  C_30
REMARK                            x       y       z     vdW  Elec       q    Type
REMARK                         _______ _______ _______ _____ _____    ______ ____
ROOT
ATOM      1  O   UNL     1      13.840   6.331   7.066  0.00  0.00    -0.267 OA
ATOM      2  O   UNL     1      10.543   4.494   4.381  0.00  0.00    -0.252 OA
ATOM      4  N   UNL     1       9.279   6.170   5.361  0.00  0.00    -0.284 N 
ATOM      5  N   UNL     1      11.717   7.282   6.929  0.00  0.00    -0.311 N 
ATOM      6  N   UNL     1      10.599   6.615   3.455  0.00  0.00    -0.269 N 
ATOM      8  C   UNL     1       9.625   6.097   7.815  0.00  0.00    +0.027 C 
ATOM      9  C   UNL     1       9.411   8.267   6.663  0.00  0.00    +0.054 C 
ATOM     10  C   UNL     1       9.048   7.505   7.939  0.00  0.00    +0.018 C 
ATOM     11  C   UNL     1       9.041   5.387   6.575  0.00  0.00    +0.114 C 
ATOM     12  C   UNL     1      11.154   6.204   7.759  0.00  0.00    +0.130 C 
ATOM     13  C   UNL     1       8.778   7.555   5.446  0.00  0.00    +0.119 C 
ATOM     14  C   UNL     1      10.916   8.337   6.478  0.00  0.00    +0.027 A 
ATOM     15  C   UNL     1      11.468   9.367   5.817  0.00  0.00    +0.022 A 
ATOM     16  C   UNL     1      13.103   7.241   6.683  0.00  0.00    +0.262 A 
ATOM     17  C   UNL     1      10.169   5.670   4.384  0.00  0.00    +0.306 C 
ATOM     18  C   UNL     1      13.685   8.387   5.901  0.00  0.00    +0.082 A 
ATOM     19  C   UNL     1      12.874   9.390   5.529  0.00  0.00    +0.018 A 
ATOM     31  H   UNL     1       9.998   7.401   3.238  0.00  0.00    +0.156 HD
ENDROOT
BRANCH   6  21
ATOM     21  C   UNL     1      11.833   6.614   2.759  0.00  0.00    +0.036 A 
ATOM     24  C   UNL     1      12.528   5.420   2.583  0.00  0.00    +0.042 A 
ATOM     25  C   UNL     1      12.345   7.808   2.258  0.00  0.00    +0.023 A 
ATOM     27  C   UNL     1      13.743   5.420   1.898  0.00  0.00    +0.054 A 
ATOM     28  C   UNL     1      13.560   7.808   1.573  0.00  0.00    +0.003 A 
ATOM     29  C   UNL     1      14.259   6.614   1.393  0.00  0.00    +0.019 A 
BRANCH  27  30
ATOM      7  N   UNL     1      15.040   3.203   1.565  0.00  0.00    -0.191 NA
ATOM     30  C   UNL     1      14.459   4.198   1.714  0.00  0.00    +0.099 C 
ENDBRANCH  27  30
ENDBRANCH   6  21
BRANCH  18  20
ATOM      3  O   UNL     1      16.003   9.233   6.213  0.00  0.00    -0.463 OA
ATOM     20  C   UNL     1      15.116   8.431   5.557  0.00  0.00    +0.140 A 
ATOM     22  C   UNL     1      15.770   7.712   4.575  0.00  0.00    +0.050 A 
ATOM     23  C   UNL     1      17.131   8.098   4.635  0.00  0.00    +0.042 A 
ATOM     26  C   UNL     1      17.221   9.025   5.647  0.00  0.00    +0.196 A 
ENDBRANCH  18  20
TORSDOF 3
ENDMDL
MODEL 5
REMARK VINA RESULT:      -6.2     15.388     18.241
REMARK  Name = 7143813
REMARK  3 active torsions:
REMARK  status: ('A' for Active; 'I' for Inactive)
REMARK    1  A    between atoms: N_6  and  C_21
REMARK    2  A    between atoms: C_18  and  C_20
REMARK    3  A    between atoms: C_27  and  C_30
REMARK                            x       y       z     vdW  Elec       q    Type
REMARK                         _______ _______ _______ _____ _____    ______ ____
ROOT
ATOM      1  O   UNL     1      10.545   4.414   4.672  0.00  0.00    -0.267 OA
ATOM      2  O   UNL     1      14.203   5.924   2.266  0.00  0.00    -0.252 OA
ATOM      4  N   UNL     1      12.580   6.248   0.644  0.00  0.00    -0.284 N 
ATOM      5  N   UNL     1      10.302   5.327   2.542  0.00  0.00    -0.311 N 
ATOM      6  N   UNL     1      12.977   7.887   2.297  0.00  0.00    -0.269 N 
ATOM      8  C   UNL     1      11.228   4.179   0.446  0.00  0.00    +0.027 C 
ATOM      9  C   UNL     1      10.142   6.386   0.260  0.00  0.00    +0.054 C 
ATOM     10  C   UNL     1      10.141   4.959  -0.292  0.00  0.00    +0.018 C 
ATOM     11  C   UNL     1      12.604   4.843   0.230  0.00  0.00    +0.114 C 
ATOM     12  C   UNL     1      10.845   4.103   1.930  0.00  0.00    +0.130 C 
ATOM     13  C   UNL     1      11.518   7.036  -0.010  0.00  0.00    +0.119 C 
ATOM     14  C   UNL     1       9.865   6.396   1.752  0.00  0.00    +0.027 A 
ATOM     15  C   UNL     1       9.272   7.456   2.322  0.00  0.00    +0.022 A 
ATOM     16  C   UNL     1      10.174   5.335   3.945  0.00  0.00    +0.262 A 
ATOM     17  C   UNL     1      13.328   6.644   1.776  0.00  0.00    +0.306 C 
ATOM     18  C   UNL     1       9.547   6.558   4.558  0.00  0.00    +0.082 A 
ATOM     19  C   UNL     1       9.110   7.534   3.746  0.00  0.00    +0.018 A 
ATOM     31  H   UNL     1      12.586   8.586   1.677  0.00  0.00    +0.156 HD
ENDROOT
BRANCH   6  21
ATOM     21  C   UNL     1      13.093   8.301   3.646  0.00  0.00    +0.036 A 
ATOM     24  C   UNL     1      12.946   7.370   4.671  0.00  0.00    +0.042 A 
ATOM     25  C   UNL     1      13.351   9.637   3.939  0.00  0.00    +0.023 A 
ATOM     27  C   UNL     1      13.060   7.778   5.999  0.00  0.00    +0.054 A 
ATOM     28  C   UNL     1      13.464  10.046   5.268  0.00  0.00    +0.003 A 
ATOM     29  C   UNL     1      13.319   9.117   6.298  0.00  0.00    +0.019 A 
BRANCH  27  30
ATOM      7  N   UNL     1      12.793   6.053   7.913  0.00  0.00    -0.191 NA
ATOM     30  C   UNL     1      12.912   6.827   7.054  0.00  0.00    +0.099 C 
ENDBRANCH  27  30
ENDBRANCH   6  21
BRANCH  18  20
ATOM      3  O   UNL     1       9.244   5.611   6.839  0.00  0.00    -0.463 OA
ATOM     20  C   UNL     1       9.392   6.690   6.017  0.00  0.00    +0.140 A 
ATOM     22  C   UNL     1       9.373   7.854   6.761  0.00  0.00    +0.050 A 
ATOM     23  C   UNL     1       9.204   7.464   8.111  0.00  0.00    +0.042 A 
ATOM     26  C   UNL     1       9.131   6.090   8.106  0.00  0.00    +0.196 A 
ENDBRANCH  18  20
TORSDOF 3
ENDMDL
MODEL 6
REMARK VINA RESULT:      -6.1      2.108      6.093
REMARK  Name = 7143813
REMARK  3 active torsions:
REMARK  status: ('A' for Active; 'I' for Inactive)
REMARK    1  A    between atoms: N_6  and  C_21
REMARK    2  A    between atoms: C_18  and  C_20
REMARK    3  A    between atoms: C_27  and  C_30
REMARK                            x       y       z     vdW  Elec       q    Type
REMARK                         _______ _______ _______ _____ _____    ______ ____
ROOT
ATOM      1  O   UNL     1      11.774   9.230  21.587  0.00  0.00    -0.267 OA
ATOM      2  O   UNL     1      11.244  13.734  20.648  0.00  0.00    -0.252 OA
ATOM      4  N   UNL     1      11.901  13.930  22.861  0.00  0.00    -0.284 N 
ATOM      5  N   UNL     1      12.319  10.867  23.153  0.00  0.00    -0.311 N 
ATOM      6  N   UNL     1      13.506  13.748  21.139  0.00  0.00    -0.269 N 
ATOM      8  C   UNL     1      10.548  12.371  24.235  0.00  0.00    +0.027 C 
ATOM      9  C   UNL     1      12.935  12.717  24.751  0.00  0.00    +0.054 C 
ATOM     10  C   UNL     1      11.555  12.501  25.375  0.00  0.00    +0.018 C 
ATOM     11  C   UNL     1      10.555  13.646  23.366  0.00  0.00    +0.114 C 
ATOM     12  C   UNL     1      10.893  11.113  23.426  0.00  0.00    +0.130 C 
ATOM     13  C   UNL     1      12.921  14.023  23.923  0.00  0.00    +0.119 C 
ATOM     14  C   UNL     1      13.316  11.555  23.852  0.00  0.00    +0.027 A 
ATOM     15  C   UNL     1      14.608  11.239  23.669  0.00  0.00    +0.022 A 
ATOM     16  C   UNL     1      12.624   9.858  22.220  0.00  0.00    +0.262 A 
ATOM     17  C   UNL     1      12.156  13.806  21.477  0.00  0.00    +0.306 C 
ATOM     18  C   UNL     1      14.083   9.557  22.003  0.00  0.00    +0.082 A 
ATOM     19  C   UNL     1      14.992  10.223  22.732  0.00  0.00    +0.018 A 
ATOM     31  H   UNL     1      14.183  14.202  21.741  0.00  0.00    +0.156 HD
ENDROOT
BRANCH   6  21
ATOM     21  C   UNL     1      14.068  13.093  20.017  0.00  0.00    +0.036 A 
ATOM     24  C   UNL     1      13.367  12.066  19.392  0.00  0.00    +0.042 A 
ATOM     25  C   UNL     1      15.322  13.478  19.548  0.00  0.00    +0.023 A 
ATOM     27  C   UNL     1      13.922  11.420  18.287  0.00  0.00    +0.054 A 
ATOM     28  C   UNL     1      15.877  12.833  18.443  0.00  0.00    +0.003 A 
ATOM     29  C   UNL     1      15.177  11.804  17.813  0.00  0.00    +0.019 A 
BRANCH  27  30
ATOM      7  N   UNL     1      12.623   9.509  17.117  0.00  0.00    -0.191 NA
ATOM     30  C   UNL     1      13.206  10.367  17.641  0.00  0.00    +0.099 C 
ENDBRANCH  27  30
ENDBRANCH   6  21
BRANCH  18  20
ATOM      3  O   UNL     1      14.045   7.265  21.036  0.00  0.00    -0.463 OA
ATOM     20  C   UNL     1      14.519   8.544  21.027  0.00  0.00    +0.140 A 
ATOM     22  C   UNL     1      15.425   8.702  19.995  0.00  0.00    +0.050 A 
ATOM     23  C   UNL     1      15.508   7.451  19.339  0.00  0.00    +0.042 A 
ATOM     26  C   UNL     1      14.651   6.610  20.010  0.00  0.00    +0.196 A 
ENDBRANCH  18  20
TORSDOF 3
ENDMDL
MODEL 7
REMARK VINA RESULT:      -6.0     27.714     30.451
REMARK  Name = 7143813
REMARK  3 active torsions:
REMARK  status: ('A' for Active; 'I' for Inactive)
REMARK    1  A    between atoms: N_6  and  C_21
REMARK    2  A    between atoms: C_18  and  C_20
REMARK    3  A    between atoms: C_27  and  C_30
REMARK                            x       y       z     vdW  Elec       q    Type
REMARK                         _______ _______ _______ _____ _____    ______ ____
ROOT
ATOM      1  O   UNL     1      -4.938 -14.868  16.257  0.00  0.00    -0.267 OA
ATOM      2  O   UNL     1      -2.383 -11.018  16.578  0.00  0.00    -0.252 OA
ATOM      4  N   UNL     1      -2.616 -11.071  14.274  0.00  0.00    -0.284 N 
ATOM      5  N   UNL     1      -4.441 -13.581  14.378  0.00  0.00    -0.311 N 
ATOM      6  N   UNL     1      -4.282 -10.093  15.632  0.00  0.00    -0.269 N 
ATOM      8  C   UNL     1      -2.056 -13.348  13.469  0.00  0.00    +0.027 C 
ATOM      9  C   UNL     1      -3.899 -12.088  12.421  0.00  0.00    +0.054 C 
ATOM     10  C   UNL     1      -2.742 -13.047  12.138  0.00  0.00    +0.018 C 
ATOM     11  C   UNL     1      -1.535 -12.045  14.110  0.00  0.00    +0.114 C 
ATOM     12  C   UNL     1      -3.057 -14.082  14.373  0.00  0.00    +0.130 C 
ATOM     13  C   UNL     1      -3.340 -10.778  13.022  0.00  0.00    +0.119 C 
ATOM     14  C   UNL     1      -4.894 -12.701  13.389  0.00  0.00    +0.027 A 
ATOM     15  C   UNL     1      -6.187 -12.343  13.347  0.00  0.00    +0.022 A 
ATOM     16  C   UNL     1      -5.299 -14.090  15.372  0.00  0.00    +0.262 A 
ATOM     17  C   UNL     1      -3.048 -10.736  15.577  0.00  0.00    +0.306 C 
ATOM     18  C   UNL     1      -6.733 -13.634  15.325  0.00  0.00    +0.082 A 
ATOM     19  C   UNL     1      -7.117 -12.821  14.329  0.00  0.00    +0.018 A 
ATOM     31  H   UNL     1      -4.582  -9.537  14.840  0.00  0.00    +0.156 HD
ENDROOT
BRANCH   6  21
ATOM     21  C   UNL     1      -5.210 -10.137  16.700  0.00  0.00    +0.036 A 
ATOM     24  C   UNL     1      -6.479  -9.586  16.537  0.00  0.00    +0.042 A 
ATOM     25  C   UNL     1      -4.848 -10.728  17.907  0.00  0.00    +0.023 A 
ATOM     27  C   UNL     1      -7.393  -9.629  17.590  0.00  0.00    +0.054 A 
ATOM     28  C   UNL     1      -5.762 -10.771  18.960  0.00  0.00    +0.003 A 
ATOM     29  C   UNL     1      -7.034 -10.221  18.802  0.00  0.00    +0.019 A 
BRANCH  27  30
ATOM      7  N   UNL     1      -9.756  -8.611  17.294  0.00  0.00    -0.191 NA
ATOM     30  C   UNL     1      -8.696  -9.067  17.428  0.00  0.00    +0.099 C 
ENDBRANCH  27  30
ENDBRANCH   6  21
BRANCH  18  20
ATOM      3  O   UNL     1      -8.512 -15.165  16.149  0.00  0.00    -0.463 OA
ATOM     20  C   UNL     1      -7.710 -14.077  16.333  0.00  0.00    +0.140 A 
ATOM     22  C   UNL     1      -7.969 -13.506  17.565  0.00  0.00    +0.050 A 
ATOM     23  C   UNL     1      -8.985 -14.289  18.165  0.00  0.00    +0.042 A 
ATOM     26  C   UNL     1      -9.281 -15.285  17.264  0.00  0.00    +0.196 A 
ENDBRANCH  18  20
TORSDOF 3
ENDMDL
MODEL 8
REMARK VINA RESULT:      -6.0     28.510     31.845
REMARK  Name = 7143813
REMARK  3 active torsions:
REMARK  status: ('A' for Active; 'I' for Inactive)
REMARK    1  A    between atoms: N_6  and  C_21
REMARK    2  A    between atoms: C_18  and  C_20
REMARK    3  A    between atoms: C_27  and  C_30
REMARK                            x       y       z     vdW  Elec       q    Type
REMARK                         _______ _______ _______ _____ _____    ______ ____
ROOT
ATOM      1  O   UNL     1      -9.192 -13.106  15.212  0.00  0.00    -0.267 OA
ATOM      2  O   UNL     1      -9.098  -8.614  16.338  0.00  0.00    -0.252 OA
ATOM      4  N   UNL     1     -10.533  -9.345  18.003  0.00  0.00    -0.284 N 
ATOM      5  N   UNL     1     -10.282 -12.308  17.111  0.00  0.00    -0.311 N 
ATOM      6  N   UNL     1      -8.193  -9.476  18.286  0.00  0.00    -0.269 N 
ATOM      8  C   UNL     1     -12.304 -10.741  16.972  0.00  0.00    +0.027 C 
ATOM      9  C   UNL     1     -11.375 -11.354  19.173  0.00  0.00    +0.054 C 
ATOM     10  C   UNL     1     -12.661 -11.305  18.346  0.00  0.00    +0.018 C 
ATOM     11  C   UNL     1     -11.697  -9.329  17.114  0.00  0.00    +0.114 C 
ATOM     12  C   UNL     1     -11.347 -11.720  16.281  0.00  0.00    +0.130 C 
ATOM     13  C   UNL     1     -10.815  -9.922  19.332  0.00  0.00    +0.119 C 
ATOM     14  C   UNL     1     -10.330 -12.231  18.507  0.00  0.00    +0.027 A 
ATOM     15  C   UNL     1      -9.410 -12.868  19.249  0.00  0.00    +0.022 A 
ATOM     16  C   UNL     1      -9.266 -13.014  16.438  0.00  0.00    +0.262 A 
ATOM     17  C   UNL     1      -9.251  -9.101  17.462  0.00  0.00    +0.306 C 
ATOM     18  C   UNL     1      -8.223 -13.679  17.296  0.00  0.00    +0.082 A 
ATOM     19  C   UNL     1      -8.345 -13.604  18.631  0.00  0.00    +0.018 A 
ATOM     31  H   UNL     1      -8.328  -9.476  19.289  0.00  0.00    +0.156 HD
ENDROOT
BRANCH   6  21
ATOM     21  C   UNL     1      -6.904  -9.888  17.870  0.00  0.00    +0.036 A 
ATOM     24  C   UNL     1      -6.101 -10.630  18.733  0.00  0.00    +0.042 A 
ATOM     25  C   UNL     1      -6.445  -9.547  16.600  0.00  0.00    +0.023 A 
ATOM     27  C   UNL     1      -4.831 -11.034  18.323  0.00  0.00    +0.054 A 
ATOM     28  C   UNL     1      -5.175  -9.951  16.190  0.00  0.00    +0.003 A 
ATOM     29  C   UNL     1      -4.368 -10.695  17.051  0.00  0.00    +0.019 A 
BRANCH  27  30
ATOM      7  N   UNL     1      -3.332 -12.415  19.921  0.00  0.00    -0.191 NA
ATOM     30  C   UNL     1      -4.005 -11.797  19.204  0.00  0.00    +0.099 C 
ENDBRANCH  27  30
ENDBRANCH   6  21
BRANCH  18  20
ATOM      3  O   UNL     1      -7.130 -15.764  16.491  0.00  0.00    -0.463 OA
ATOM     20  C   UNL     1      -7.097 -14.416  16.699  0.00  0.00    +0.140 A 
ATOM     22  C   UNL     1      -5.887 -13.904  16.270  0.00  0.00    +0.050 A 
ATOM     23  C   UNL     1      -5.141 -15.001  15.774  0.00  0.00    +0.042 A 
ATOM     26  C   UNL     1      -5.941 -16.109  15.931  0.00  0.00    +0.196 A 
ENDBRANCH  18  20
TORSDOF 3
ENDMDL
MODEL 9
REMARK VINA RESULT:      -5.9     27.284     30.758
REMARK  Name = 7143813
REMARK  3 active torsions:
REMARK  status: ('A' for Active; 'I' for Inactive)
REMARK    1  A    between atoms: N_6  and  C_21
REMARK    2  A    between atoms: C_18  and  C_20
REMARK    3  A    between atoms: C_27  and  C_30
REMARK                            x       y       z     vdW  Elec       q    Type
REMARK                         _______ _______ _______ _____ _____    ______ ____
ROOT
ATOM      1  O   UNL     1      -4.483 -12.451  17.981  0.00  0.00    -0.267 OA
ATOM      2  O   UNL     1      -8.261 -14.564  16.333  0.00  0.00    -0.252 OA
ATOM      4  N   UNL     1      -9.294 -12.707  17.258  0.00  0.00    -0.284 N 
ATOM      5  N   UNL     1      -6.585 -11.454  18.113  0.00  0.00    -0.311 N 
ATOM      6  N   UNL     1      -8.381 -12.619  15.082  0.00  0.00    -0.269 N 
ATOM      8  C   UNL     1      -8.463 -12.405  19.574  0.00  0.00    +0.027 C 
ATOM      9  C   UNL     1      -8.892 -10.437  18.151  0.00  0.00    +0.054 C 
ATOM     10  C   UNL     1      -8.996 -10.974  19.579  0.00  0.00    +0.018 C 
ATOM     11  C   UNL     1      -9.287 -13.280  18.606  0.00  0.00    +0.114 C 
ATOM     12  C   UNL     1      -6.975 -12.366  19.201  0.00  0.00    +0.130 C 
ATOM     13  C   UNL     1      -9.761 -11.308  17.214  0.00  0.00    +0.119 C 
ATOM     14  C   UNL     1      -7.455 -10.454  17.663  0.00  0.00    +0.027 A 
ATOM     15  C   UNL     1      -7.041  -9.563  16.748  0.00  0.00    +0.022 A 
ATOM     16  C   UNL     1      -5.277 -11.586  17.608  0.00  0.00    +0.262 A 
ATOM     17  C   UNL     1      -8.621 -13.388  16.219  0.00  0.00    +0.306 C 
ATOM     18  C   UNL     1      -4.858 -10.600  16.551  0.00  0.00    +0.082 A 
ATOM     19  C   UNL     1      -5.722  -9.639  16.189  0.00  0.00    +0.018 A 
ATOM     31  H   UNL     1      -9.009 -11.855  14.864  0.00  0.00    +0.156 HD
ENDROOT
BRANCH   6  21
ATOM     21  C   UNL     1      -7.312 -12.776  14.167  0.00  0.00    +0.036 A 
ATOM     24  C   UNL     1      -6.130 -13.385  14.580  0.00  0.00    +0.042 A 
ATOM     25  C   UNL     1      -7.449 -12.319  12.859  0.00  0.00    +0.023 A 
ATOM     27  C   UNL     1      -5.077 -13.538  13.678  0.00  0.00    +0.054 A 
ATOM     28  C   UNL     1      -6.397 -12.473  11.956  0.00  0.00    +0.003 A 
ATOM     29  C   UNL     1      -5.211 -13.082  12.366  0.00  0.00    +0.019 A 
BRANCH  27  30
ATOM      7  N   UNL     1      -2.875 -14.670  14.438  0.00  0.00    -0.191 NA
ATOM     30  C   UNL     1      -3.863 -14.163  14.097  0.00  0.00    +0.099 C 
ENDBRANCH  27  30
ENDBRANCH   6  21
BRANCH  18  20
ATOM      3  O   UNL     1      -2.378 -10.771  16.662  0.00  0.00    -0.463 OA
ATOM     20  C   UNL     1      -3.524 -10.665  15.929  0.00  0.00    +0.140 A 
ATOM     22  C   UNL     1      -3.220 -10.634  14.582  0.00  0.00    +0.050 A 
ATOM     23  C   UNL     1      -1.810 -10.725  14.487  0.00  0.00    +0.042 A 
ATOM     26  C   UNL     1      -1.345 -10.806  15.779  0.00  0.00    +0.196 A 
ENDBRANCH  18  20
TORSDOF 3
ENDMDL
MODEL 10
REMARK VINA RESULT:      -5.9     28.540     30.353
REMARK  Name = 7143813
REMARK  3 active torsions:
REMARK  status: ('A' for Active; 'I' for Inactive)
REMARK    1  A    between atoms: N_6  and  C_21
REMARK    2  A    between atoms: C_18  and  C_20
REMARK    3  A    between atoms: C_27  and  C_30
REMARK                            x       y       z     vdW  Elec       q    Type
REMARK                         _______ _______ _______ _____ _____    ______ ____
ROOT
ATOM      1  O   UNL     1      -5.509 -13.819  15.490  0.00  0.00    -0.267 OA
ATOM      2  O   UNL     1      -8.999 -11.187  13.960  0.00  0.00    -0.252 OA
ATOM      4  N   UNL     1      -8.666 -10.145  16.003  0.00  0.00    -0.284 N 
ATOM      5  N   UNL     1      -6.251 -11.967  16.696  0.00  0.00    -0.311 N 
ATOM      6  N   UNL     1      -7.374  -9.546  14.120  0.00  0.00    -0.269 N 
ATOM      8  C   UNL     1      -8.573 -11.877  17.775  0.00  0.00    +0.027 C 
ATOM      9  C   UNL     1      -7.087  -9.911  17.891  0.00  0.00    +0.054 C 
ATOM     10  C   UNL     1      -7.938 -10.867  18.729  0.00  0.00    +0.018 C 
ATOM     11  C   UNL     1      -9.445 -11.150  16.729  0.00  0.00    +0.114 C 
ATOM     12  C   UNL     1      -7.453 -12.701  17.127  0.00  0.00    +0.130 C 
ATOM     13  C   UNL     1      -7.996  -9.170  16.884  0.00  0.00    +0.119 C 
ATOM     14  C   UNL     1      -6.006 -10.662  17.134  0.00  0.00    +0.027 A 
ATOM     15  C   UNL     1      -4.853 -10.051  16.821  0.00  0.00    +0.022 A 
ATOM     16  C   UNL     1      -5.330 -12.669  15.894  0.00  0.00    +0.262 A 
ATOM     17  C   UNL     1      -8.392 -10.347  14.632  0.00  0.00    +0.306 C 
ATOM     18  C   UNL     1      -4.066 -11.941  15.521  0.00  0.00    +0.082 A 
ATOM     19  C   UNL     1      -3.870 -10.704  16.005  0.00  0.00    +0.018 A 
ATOM     31  H   UNL     1      -7.200  -8.643  14.543  0.00  0.00    +0.156 HD
ENDROOT
BRANCH   6  21
ATOM     21  C   UNL     1      -6.511  -9.862  13.043  0.00  0.00    +0.036 A 
ATOM     24  C   UNL     1      -6.138 -11.185  12.820  0.00  0.00    +0.042 A 
ATOM     25  C   UNL     1      -6.039  -8.848  12.214  0.00  0.00    +0.023 A 
ATOM     27  C   UNL     1      -5.287 -11.495  11.759  0.00  0.00    +0.054 A 
ATOM     28  C   UNL     1      -5.189  -9.158  11.153  0.00  0.00    +0.003 A 
ATOM     29  C   UNL     1      -4.812 -10.482  10.926  0.00  0.00    +0.019 A 
BRANCH  27  30
ATOM      7  N   UNL     1      -4.589 -13.954  11.338  0.00  0.00    -0.191 NA
ATOM     30  C   UNL     1      -4.902 -12.851  11.526  0.00  0.00    +0.099 C 
ENDBRANCH  27  30
ENDBRANCH   6  21
BRANCH  18  20
ATOM      3  O   UNL     1      -2.866 -13.915  14.600  0.00  0.00    -0.463 OA
ATOM     20  C   UNL     1      -3.048 -12.565  14.660  0.00  0.00    +0.140 A 
ATOM     22  C   UNL     1      -2.158 -11.933  13.812  0.00  0.00    +0.050 A 
ATOM     23  C   UNL     1      -1.390 -12.954  13.203  0.00  0.00    +0.042 A 
ATOM     26  C   UNL     1      -1.858 -14.141  13.716  0.00  0.00    +0.196 A 
ENDBRANCH  18  20
TORSDOF 3
ENDMDL
