REMARK  Name = 45783568
REMARK  10 active torsions:
REMARK  status: ('A' for Active; 'I' for Inactive)
REMARK    1  A    between atoms: O_2  and  C_29
REMARK    2  A    between atoms: O_2  and  C_30
REMARK    3  A    between atoms: O_3  and  C_31
REMARK    4  A    between atoms: O_3  and  C_32
REMARK    5  A    between atoms: N_4  and  C_13
REMARK    6  A    between atoms: N_5  and  C_22
REMARK    7  A    between atoms: C_9  and  C_14
REMARK    8  A    between atoms: C_13  and  C_15
REMARK    9  A    between atoms: C_20  and  C_25
REMARK   10  A    between atoms: C_30  and  C_31
REMARK                            x       y       z     vdW  Elec       q    Type
REMARK                         _______ _______ _______ _____ _____    ______ ____
ROOT
ATOM      4  N   UNL     1      -4.093  -0.131  -0.936  0.00  0.00    -0.287 NA
ATOM      9  C   UNL     1      -3.967  -1.351  -0.113  0.00  0.00    +0.146 C 
ATOM     10  C   UNL     1      -4.482  -2.487  -1.016  0.00  0.00    +0.030 C 
ATOM     11  C   UNL     1      -5.194  -0.374  -1.868  0.00  0.00    +0.085 C 
ATOM     12  C   UNL     1      -4.931  -1.802  -2.299  0.00  0.00    +0.017 C 
ENDROOT
BRANCH   9  14
ATOM      1  O   UNL     1      -2.413  -2.275   1.531  0.00  0.00    -0.336 OA
ATOM      6  N   UNL     1      -1.418  -1.213  -0.172  0.00  0.00    -0.190 NA
ATOM      7  N   UNL     1      -1.035  -2.362   1.769  0.00  0.00    -0.056 NA
ATOM     14  C   UNL     1      -2.551  -1.584   0.369  0.00  0.00    +0.245 A 
ATOM     20  C   UNL     1      -0.517  -1.713   0.723  0.00  0.00    +0.204 A 
BRANCH  20  25
ATOM      8  N   UNL     1       2.720  -0.681  -0.789  0.00  0.00    -0.221 NA
ATOM     25  C   UNL     1       0.896  -1.547   0.540  0.00  0.00    +0.041 A 
ATOM     26  C   UNL     1       1.802  -2.063   1.461  0.00  0.00    +0.018 A 
ATOM     27  C   UNL     1       1.402  -0.871  -0.558  0.00  0.00    +0.126 A 
ATOM     28  C   UNL     1       3.167  -1.888   1.258  0.00  0.00    +0.068 A 
ATOM     29  C   UNL     1       3.571  -1.196   0.127  0.00  0.00    +0.215 A 
BRANCH  29   2
ATOM      2  O   UNL     1       4.910  -1.011  -0.096  0.00  0.00    -0.474 OA
BRANCH   2  30
ATOM     30  C   UNL     1       5.270  -0.294  -1.271  0.00  0.00    +0.258 C 
BRANCH  30  31
ATOM     31  C   UNL     1       6.780  -0.171  -1.332  0.00  0.00    +0.200 C 
BRANCH  31   3
ATOM      3  O   UNL     1       7.234   0.546  -0.190  0.00  0.00    -0.380 OA
ATOM     32  C   UNL     1       8.649   0.673  -0.183  0.00  0.00    +0.194 C 
ENDBRANCH  31   3
ENDBRANCH  30  31
ENDBRANCH   2  30
ENDBRANCH  29   2
ENDBRANCH  20  25
ENDBRANCH   9  14
BRANCH   4  13
ATOM     13  C   UNL     1      -4.300   1.076  -0.146  0.00  0.00    +0.122 C 
BRANCH  13  15
ATOM      5  N   UNL     1      -1.474   2.251   1.898  0.00  0.00    -0.349 N 
ATOM     15  C   UNL     1      -3.011   1.590   0.439  0.00  0.00    -0.008 A 
ATOM     16  C   UNL     1      -1.847   1.976  -0.284  0.00  0.00    +0.004 A 
ATOM     17  C   UNL     1      -2.751   1.771   1.778  0.00  0.00    +0.091 A 
ATOM     18  C   UNL     1      -0.899   2.386   0.655  0.00  0.00    +0.049 A 
ATOM     19  C   UNL     1      -1.510   2.015  -1.651  0.00  0.00    +0.010 A 
ATOM     21  C   UNL     1       0.376   2.835   0.293  0.00  0.00    +0.026 A 
ATOM     22  C   UNL     1      -0.837   2.566   3.158  0.00  0.00    +0.149 C 
ATOM     23  C   UNL     1      -0.238   2.462  -2.028  0.00  0.00    +0.001 A 
ATOM     24  C   UNL     1       0.689   2.865  -1.069  0.00  0.00    +0.002 A 
ENDBRANCH  13  15
ENDBRANCH   4  13
TORSDOF 8
