REMARK  Name = 9424317
REMARK  3 active torsions:
REMARK  status: ('A' for Active; 'I' for Inactive)
REMARK    1  A    between atoms: N_6  and  C_9
REMARK    2  A    between atoms: N_8  and  C_23
REMARK    3  A    between atoms: C_23  and  C_24
REMARK                            x       y       z     vdW  Elec       q    Type
REMARK                         _______ _______ _______ _____ _____    ______ ____
ROOT
ATOM      1 BR   UNL     1      -7.001  -0.288  -1.929  0.00  0.00    -0.050 Br
ATOM      2  O   UNL     1       0.283  -1.255   1.870  0.00  0.00    -0.273 OA
ATOM      3  O   UNL     1      -2.962   2.477   0.215  0.00  0.00    -0.270 OA
ATOM      5  N   UNL     1      -1.021   1.204   0.167  0.00  0.00    -0.286 N 
ATOM      7  N   UNL     1      -1.926  -1.377   1.296  0.00  0.00    -0.283 N 
ATOM      9  C   UNL     1       1.893   1.027   0.224  0.00  0.00    +0.078 C 
ATOM     10  C   UNL     1      -0.397  -0.081  -0.125  0.00  0.00    +0.164 C 
ATOM     11  C   UNL     1       1.071   0.004  -0.560  0.00  0.00    +0.054 C 
ATOM     12  C   UNL     1       1.181   2.375   0.198  0.00  0.00    +0.041 C 
ATOM     13  C   UNL     1      -0.211   2.251   0.795  0.00  0.00    +0.111 C 
ATOM     14  C   UNL     1      -0.631  -0.929   1.112  0.00  0.00    +0.238 C 
ATOM     15  C   UNL     1      -2.401   1.388   0.079  0.00  0.00    +0.249 C 
ATOM     16  C   UNL     1      -3.268   0.196  -0.119  0.00  0.00    +0.059 A 
ATOM     17  C   UNL     1      -3.075  -1.026   0.551  0.00  0.00    +0.046 A 
ATOM     19  C   UNL     1      -4.444   0.403  -0.861  0.00  0.00    +0.030 A 
ATOM     20  C   UNL     1      -4.098  -1.988   0.515  0.00  0.00    +0.025 A 
ATOM     21  C   UNL     1      -5.426  -0.584  -0.926  0.00  0.00    +0.019 A 
ATOM     22  C   UNL     1      -5.259  -1.774  -0.227  0.00  0.00    +0.017 A 
ATOM     27  H   UNL     1      -2.045  -2.118   1.982  0.00  0.00    +0.155 HD
ENDROOT
BRANCH   9   6
ATOM      4  O   UNL     1       4.212  -0.521   0.968  0.00  0.00    -0.253 OA
ATOM      6  N   UNL     1       3.225   1.139  -0.322  0.00  0.00    -0.296 N 
ATOM      8  N   UNL     1       5.459   0.662  -0.591  0.00  0.00    -0.296 N 
ATOM     18  C   UNL     1       4.291   0.346   0.099  0.00  0.00    +0.300 C 
ATOM     26  H   UNL     1       3.378   1.776  -1.097  0.00  0.00    +0.151 HD
ATOM     28  H   UNL     1       5.424   1.382  -1.306  0.00  0.00    +0.151 HD
BRANCH   8  23
ATOM     23  C   UNL     1       6.715  -0.008  -0.351  0.00  0.00    +0.132 C 
BRANCH  23  24
ATOM     24  C   UNL     1       6.816  -1.192  -1.255  0.00  0.00    -0.016 C 
ATOM     25  C   UNL     1       6.973  -2.449  -0.823  0.00  0.00    +0.005 C 
ENDBRANCH  23  24
ENDBRANCH   8  23
ENDBRANCH   9   6
TORSDOF 3
