REMARK  Name = 11912772
REMARK  5 active torsions:
REMARK  status: ('A' for Active; 'I' for Inactive)
REMARK    1  A    between atoms: O_3  and  C_14
REMARK    2  A    between atoms: O_3  and  C_23
REMARK    3  A    between atoms: N_7  and  C_13
REMARK    4  A    between atoms: N_8  and  C_17
REMARK    5  A    between atoms: C_25  and  C_28
REMARK                            x       y       z     vdW  Elec       q    Type
REMARK                         _______ _______ _______ _____ _____    ______ ____
ROOT
ATOM      1  O   UNL     1       2.070  -1.036   1.295  0.00  0.00    -0.368 OA
ATOM      2  O   UNL     1       0.118   1.311   0.990  0.00  0.00    -0.368 OA
ATOM     11  C   UNL     1       0.173   0.022   0.344  0.00  0.00    +0.173 C 
ATOM     12  C   UNL     1       1.639  -0.303   0.137  0.00  0.00    +0.192 C 
ATOM     13  C   UNL     1      -0.309  -1.052   1.290  0.00  0.00    +0.130 C 
ATOM     14  C   UNL     1       2.272   1.067   0.074  0.00  0.00    +0.235 C 
ATOM     15  C   UNL     1       0.933  -1.336   2.118  0.00  0.00    +0.185 C 
ATOM     16  C   UNL     1       1.448   1.845   1.075  0.00  0.00    +0.207 C 
ENDROOT
BRANCH  13   7
ATOM      7  N   UNL     1      -0.701  -2.233   0.552  0.00  0.00    -0.306 N 
ATOM      9  N   UNL     1      -2.838  -1.406   0.178  0.00  0.00    -0.214 NA
ATOM     10  N   UNL     1      -2.168  -3.563  -0.662  0.00  0.00    -0.223 NA
ATOM     24  C   UNL     1      -1.957  -2.408  -0.002  0.00  0.00    +0.216 A 
ATOM     25  C   UNL     1      -4.053  -1.610  -0.374  0.00  0.00    +0.076 A 
ATOM     26  C   UNL     1      -3.403  -3.700  -1.188  0.00  0.00    +0.116 A 
ATOM     27  C   UNL     1      -4.395  -2.748  -1.075  0.00  0.00    +0.048 A 
ATOM     35  H   UNL     1      -0.017  -2.960   0.376  0.00  0.00    +0.149 HD
BRANCH  25  28
ATOM      5  O   UNL     1      -5.534   3.028  -0.865  0.00  0.00    -0.453 OA
ATOM      6  O   UNL     1      -7.605   2.599   0.290  0.00  0.00    -0.453 OA
ATOM     28  C   UNL     1      -5.000  -0.537  -0.185  0.00  0.00    +0.004 A 
ATOM     29  C   UNL     1      -4.708   0.739  -0.672  0.00  0.00    +0.059 A 
ATOM     30  C   UNL     1      -6.208  -0.787   0.489  0.00  0.00    +0.014 A 
ATOM     31  C   UNL     1      -5.644   1.732  -0.466  0.00  0.00    +0.167 A 
ATOM     32  C   UNL     1      -6.827   1.487   0.194  0.00  0.00    +0.166 A 
ATOM     33  C   UNL     1      -7.139   0.236   0.684  0.00  0.00    +0.050 A 
ATOM     34  C   UNL     1      -6.780   3.572  -0.384  0.00  0.00    +0.466 C 
ENDBRANCH  25  28
ENDBRANCH  13   7
BRANCH  14   3
ATOM      3  O   UNL     1       3.643   1.068   0.401  0.00  0.00    -0.442 OA
BRANCH   3  23
ATOM      4  O   UNL     1       4.186   0.853  -1.820  0.00  0.00    -0.226 OA
ATOM      8  N   UNL     1       5.828   0.969  -0.185  0.00  0.00    -0.278 N 
ATOM     23  C   UNL     1       4.529   0.954  -0.647  0.00  0.00    +0.401 C 
ATOM     36  H   UNL     1       5.966   1.012   0.820  0.00  0.00    +0.152 HD
BRANCH   8  17
ATOM     17  C   UNL     1       6.986   0.866  -1.045  0.00  0.00    +0.076 C 
ATOM     18  C   UNL     1       8.166   1.663  -0.477  0.00  0.00    +0.022 C 
ATOM     19  C   UNL     1       7.368  -0.599  -1.281  0.00  0.00    +0.022 C 
ATOM     20  C   UNL     1       8.774   1.006   0.762  0.00  0.00    +0.002 C 
ATOM     21  C   UNL     1       7.977  -1.252  -0.041  0.00  0.00    +0.002 C 
ATOM     22  C   UNL     1       9.156  -0.447   0.499  0.00  0.00    +0.000 C 
ENDBRANCH   8  17
ENDBRANCH   3  23
ENDBRANCH  14   3
TORSDOF 5
