MODEL 1
REMARK VINA RESULT:      -6.8      0.000      0.000
REMARK  Name = 51137843
REMARK  3 active torsions:
REMARK  status: ('A' for Active; 'I' for Inactive)
REMARK    1  A    between atoms: C_9  and  C_13
REMARK    2  A    between atoms: C_14  and  C_15
REMARK    3  A    between atoms: C_16  and  C_17
REMARK                            x       y       z     vdW  Elec       q    Type
REMARK                         _______ _______ _______ _____ _____    ______ ____
ROOT
ATOM      2  O   UNL     1      12.094   6.203  19.343  0.00  0.00    -0.268 OA
ATOM      3  N   UNL     1      13.172   8.091  20.158  0.00  0.00    -0.295 N 
ATOM      9  C   UNL     1      13.902   9.901  21.521  0.00  0.00    +0.095 C 
ATOM     10  C   UNL     1      14.378   8.572  22.128  0.00  0.00    +0.033 C 
ATOM     11  C   UNL     1      13.586   9.494  20.074  0.00  0.00    +0.121 C 
ATOM     12  C   UNL     1      13.496   7.527  21.458  0.00  0.00    +0.109 C 
ATOM     14  C   UNL     1      12.487   7.359  19.202  0.00  0.00    +0.266 C 
ENDROOT
BRANCH  14  15
ATOM      6  N   UNL     1      10.894   8.277  17.659  0.00  0.00    -0.247 NA
ATOM      7  N   UNL     1      12.936   8.966  15.863  0.00  0.00    -0.259 NA
ATOM     15  C   UNL     1      12.191   8.022  17.921  0.00  0.00    +0.144 A 
ATOM     18  C   UNL     1      13.194   8.361  17.039  0.00  0.00    +0.143 A 
ATOM     21  C   UNL     1      10.636   8.882  16.482  0.00  0.00    +0.131 A 
ATOM     22  C   UNL     1      11.639   9.220  15.600  0.00  0.00    +0.130 A 
ENDBRANCH  14  15
BRANCH   9  13
ATOM      1  O   UNL     1      13.091  11.456  23.239  0.00  0.00    -0.420 OA
ATOM      4  N   UNL     1      11.475  10.253  22.266  0.00  0.00    -0.112 NA
ATOM      5  N   UNL     1      10.886  11.078  23.205  0.00  0.00    -0.107 NA
ATOM     13  C   UNL     1      12.762  10.507  22.321  0.00  0.00    +0.222 A 
ATOM     16  C   UNL     1      11.866  11.762  23.748  0.00  0.00    +0.250 A 
BRANCH  16  17
ATOM      8  N   UNL     1      13.055  14.054  26.423  0.00  0.00    -0.263 NA
ATOM     17  C   UNL     1      11.846  12.763  24.775  0.00  0.00    +0.057 A 
ATOM     19  C   UNL     1      10.665  13.405  25.129  0.00  0.00    +0.016 A 
ATOM     20  C   UNL     1      13.004  13.120  25.446  0.00  0.00    +0.124 A 
ATOM     23  C   UNL     1      10.678  14.372  26.128  0.00  0.00    +0.020 A 
ATOM     24  C   UNL     1      11.888  14.656  26.740  0.00  0.00    +0.111 A 
ENDBRANCH  16  17
ENDBRANCH   9  13
TORSDOF 3
ENDMDL
MODEL 2
REMARK VINA RESULT:      -6.7      4.773      7.541
REMARK  Name = 51137843
REMARK  3 active torsions:
REMARK  status: ('A' for Active; 'I' for Inactive)
REMARK    1  A    between atoms: C_9  and  C_13
REMARK    2  A    between atoms: C_14  and  C_15
REMARK    3  A    between atoms: C_16  and  C_17
REMARK                            x       y       z     vdW  Elec       q    Type
REMARK                         _______ _______ _______ _____ _____    ______ ____
ROOT
ATOM      2  O   UNL     1      12.419  10.382  19.614  0.00  0.00    -0.268 OA
ATOM      3  N   UNL     1      13.679   8.449  19.350  0.00  0.00    -0.295 N 
ATOM      9  C   UNL     1      15.227   6.666  19.654  0.00  0.00    +0.095 C 
ATOM     10  C   UNL     1      14.123   6.578  20.718  0.00  0.00    +0.033 C 
ATOM     11  C   UNL     1      14.578   7.571  18.597  0.00  0.00    +0.121 C 
ATOM     12  C   UNL     1      13.494   7.965  20.709  0.00  0.00    +0.109 C 
ATOM     14  C   UNL     1      13.112   9.638  18.922  0.00  0.00    +0.266 C 
ENDROOT
BRANCH  14  15
ATOM      6  N   UNL     1      14.384  10.918  17.340  0.00  0.00    -0.247 NA
ATOM      7  N   UNL     1      12.831   9.949  15.214  0.00  0.00    -0.259 NA
ATOM     15  C   UNL     1      13.369  10.052  17.533  0.00  0.00    +0.144 A 
ATOM     18  C   UNL     1      12.607   9.576  16.489  0.00  0.00    +0.143 A 
ATOM     21  C   UNL     1      14.608  11.292  16.064  0.00  0.00    +0.131 A 
ATOM     22  C   UNL     1      13.845  10.816  15.020  0.00  0.00    +0.130 A 
ENDBRANCH  14  15
BRANCH   9  13
ATOM      1  O   UNL     1      17.471   6.197  20.533  0.00  0.00    -0.420 OA
ATOM      4  N   UNL     1      16.930   8.367  20.535  0.00  0.00    -0.112 NA
ATOM      5  N   UNL     1      18.206   8.246  21.052  0.00  0.00    -0.107 NA
ATOM     13  C   UNL     1      16.540   7.148  20.247  0.00  0.00    +0.222 A 
ATOM     16  C   UNL     1      18.481   6.963  21.031  0.00  0.00    +0.250 A 
BRANCH  16  17
ATOM      8  N   UNL     1      21.291   5.794  23.167  0.00  0.00    -0.263 NA
ATOM     17  C   UNL     1      19.658   6.256  21.445  0.00  0.00    +0.057 A 
ATOM     19  C   UNL     1      20.308   5.379  20.585  0.00  0.00    +0.016 A 
ATOM     20  C   UNL     1      20.185   6.428  22.715  0.00  0.00    +0.124 A 
ATOM     23  C   UNL     1      21.447   4.707  21.014  0.00  0.00    +0.020 A 
ATOM     24  C   UNL     1      21.894   4.949  22.303  0.00  0.00    +0.111 A 
ENDBRANCH  16  17
ENDBRANCH   9  13
TORSDOF 3
ENDMDL
MODEL 3
REMARK VINA RESULT:      -6.4     27.388     28.737
REMARK  Name = 51137843
REMARK  3 active torsions:
REMARK  status: ('A' for Active; 'I' for Inactive)
REMARK    1  A    between atoms: C_9  and  C_13
REMARK    2  A    between atoms: C_14  and  C_15
REMARK    3  A    between atoms: C_16  and  C_17
REMARK                            x       y       z     vdW  Elec       q    Type
REMARK                         _______ _______ _______ _____ _____    ______ ____
ROOT
ATOM      2  O   UNL     1      -4.237 -13.988  15.413  0.00  0.00    -0.268 OA
ATOM      3  N   UNL     1      -4.458 -12.161  16.830  0.00  0.00    -0.295 N 
ATOM      9  C   UNL     1      -5.239 -10.604  18.452  0.00  0.00    +0.095 C 
ATOM     10  C   UNL     1      -4.840 -11.916  19.146  0.00  0.00    +0.033 C 
ATOM     11  C   UNL     1      -4.512 -10.724  17.105  0.00  0.00    +0.121 C 
ATOM     12  C   UNL     1      -4.805 -12.933  18.013  0.00  0.00    +0.109 C 
ATOM     14  C   UNL     1      -4.200 -12.775  15.616  0.00  0.00    +0.266 C 
ENDROOT
BRANCH  14  15
ATOM      6  N   UNL     1      -2.576 -11.570  14.324  0.00  0.00    -0.247 NA
ATOM      7  N   UNL     1      -4.558 -10.674  12.552  0.00  0.00    -0.259 NA
ATOM     15  C   UNL     1      -3.873 -11.909  14.472  0.00  0.00    +0.144 A 
ATOM     18  C   UNL     1      -4.846 -11.469  13.602  0.00  0.00    +0.143 A 
ATOM     21  C   UNL     1      -2.288 -10.774  13.274  0.00  0.00    +0.131 A 
ATOM     22  C   UNL     1      -3.262 -10.334  12.404  0.00  0.00    +0.130 A 
ENDBRANCH  14  15
BRANCH   9  13
ATOM      1  O   UNL     1      -7.237  -9.586  17.454  0.00  0.00    -0.420 OA
ATOM      4  N   UNL     1      -7.678 -10.991  19.137  0.00  0.00    -0.112 NA
ATOM      5  N   UNL     1      -8.880 -10.494  18.672  0.00  0.00    -0.107 NA
ATOM     13  C   UNL     1      -6.747 -10.434  18.399  0.00  0.00    +0.222 A 
ATOM     16  C   UNL     1      -8.575  -9.678  17.690  0.00  0.00    +0.250 A 
BRANCH  16  17
ATOM      8  N   UNL     1     -10.395  -8.519  14.662  0.00  0.00    -0.263 NA
ATOM     17  C   UNL     1      -9.417  -8.884  16.843  0.00  0.00    +0.057 A 
ATOM     19  C   UNL     1     -10.058  -7.750  17.328  0.00  0.00    +0.016 A 
ATOM     20  C   UNL     1      -9.616  -9.222  15.514  0.00  0.00    +0.124 A 
ATOM     23  C   UNL     1     -10.869  -7.001  16.482  0.00  0.00    +0.020 A 
ATOM     24  C   UNL     1     -11.002  -7.423  15.169  0.00  0.00    +0.111 A 
ENDBRANCH  16  17
ENDBRANCH   9  13
TORSDOF 3
ENDMDL
MODEL 4
REMARK VINA RESULT:      -6.3     26.897     28.129
REMARK  Name = 51137843
REMARK  3 active torsions:
REMARK  status: ('A' for Active; 'I' for Inactive)
REMARK    1  A    between atoms: C_9  and  C_13
REMARK    2  A    between atoms: C_14  and  C_15
REMARK    3  A    between atoms: C_16  and  C_17
REMARK                            x       y       z     vdW  Elec       q    Type
REMARK                         _______ _______ _______ _____ _____    ______ ____
ROOT
ATOM      2  O   UNL     1      -5.868 -12.741  11.278  0.00  0.00    -0.268 OA
ATOM      3  N   UNL     1      -3.675 -12.351  11.935  0.00  0.00    -0.295 N 
ATOM      9  C   UNL     1      -1.667 -12.133  13.195  0.00  0.00    +0.095 C 
ATOM     10  C   UNL     1      -2.061 -13.616  13.102  0.00  0.00    +0.033 C 
ATOM     11  C   UNL     1      -2.476 -11.518  12.044  0.00  0.00    +0.121 C 
ATOM     12  C   UNL     1      -3.529 -13.581  12.698  0.00  0.00    +0.109 C 
ATOM     14  C   UNL     1      -4.858 -12.041  11.283  0.00  0.00    +0.266 C 
ENDROOT
BRANCH  14  15
ATOM      6  N   UNL     1      -5.276  -9.678  11.258  0.00  0.00    -0.247 NA
ATOM      7  N   UNL     1      -4.665  -9.536   8.524  0.00  0.00    -0.259 NA
ATOM     15  C   UNL     1      -4.915 -10.766  10.549  0.00  0.00    +0.144 A 
ATOM     18  C   UNL     1      -4.614 -10.696   9.206  0.00  0.00    +0.143 A 
ATOM     21  C   UNL     1      -5.327  -8.517  10.575  0.00  0.00    +0.131 A 
ATOM     22  C   UNL     1      -5.027  -8.447   9.232  0.00  0.00    +0.130 A 
ENDBRANCH  14  15
BRANCH   9  13
ATOM      1  O   UNL     1      -3.222 -11.509  14.990  0.00  0.00    -0.420 OA
ATOM      4  N   UNL     1      -1.072 -11.125  15.475  0.00  0.00    -0.112 NA
ATOM      5  N   UNL     1      -1.831 -10.731  16.560  0.00  0.00    -0.107 NA
ATOM     13  C   UNL     1      -1.924 -11.571  14.582  0.00  0.00    +0.222 A 
ATOM     16  C   UNL     1      -3.079 -10.973  16.233  0.00  0.00    +0.250 A 
BRANCH  16  17
ATOM      8  N   UNL     1      -6.511  -9.809  17.064  0.00  0.00    -0.263 NA
ATOM     17  C   UNL     1      -4.292 -10.765  16.969  0.00  0.00    +0.057 A 
ATOM     19  C   UNL     1      -4.452 -11.280  18.250  0.00  0.00    +0.016 A 
ATOM     20  C   UNL     1      -5.342 -10.043  16.426  0.00  0.00    +0.124 A 
ATOM     23  C   UNL     1      -5.640 -11.062  18.939  0.00  0.00    +0.020 A 
ATOM     24  C   UNL     1      -6.629 -10.326  18.308  0.00  0.00    +0.111 A 
ENDBRANCH  16  17
ENDBRANCH   9  13
TORSDOF 3
ENDMDL
MODEL 5
REMARK VINA RESULT:      -6.2      7.472     10.264
REMARK  Name = 51137843
REMARK  3 active torsions:
REMARK  status: ('A' for Active; 'I' for Inactive)
REMARK    1  A    between atoms: C_9  and  C_13
REMARK    2  A    between atoms: C_14  and  C_15
REMARK    3  A    between atoms: C_16  and  C_17
REMARK                            x       y       z     vdW  Elec       q    Type
REMARK                         _______ _______ _______ _____ _____    ______ ____
ROOT
ATOM      2  O   UNL     1      21.975   4.236  23.733  0.00  0.00    -0.268 OA
ATOM      3  N   UNL     1      21.313   5.881  22.234  0.00  0.00    -0.295 N 
ATOM      9  C   UNL     1      20.035   7.349  20.863  0.00  0.00    +0.095 C 
ATOM     10  C   UNL     1      19.804   7.692  22.343  0.00  0.00    +0.033 C 
ATOM     11  C   UNL     1      21.337   6.538  20.925  0.00  0.00    +0.121 C 
ATOM     12  C   UNL     1      20.281   6.451  23.085  0.00  0.00    +0.109 C 
ATOM     14  C   UNL     1      22.079   4.804  22.647  0.00  0.00    +0.266 C 
ENDROOT
BRANCH  14  15
ATOM      6  N   UNL     1      24.090   5.127  21.377  0.00  0.00    -0.247 NA
ATOM      7  N   UNL     1      23.925   2.527  20.337  0.00  0.00    -0.259 NA
ATOM     15  C   UNL     1      23.089   4.288  21.709  0.00  0.00    +0.144 A 
ATOM     18  C   UNL     1      23.008   3.011  21.198  0.00  0.00    +0.143 A 
ATOM     21  C   UNL     1      25.007   4.644  20.515  0.00  0.00    +0.131 A 
ATOM     22  C   UNL     1      24.925   3.367  20.004  0.00  0.00    +0.130 A 
ENDBRANCH  14  15
BRANCH   9  13
ATOM      1  O   UNL     1      17.639   7.309  20.330  0.00  0.00    -0.420 OA
ATOM      4  N   UNL     1      18.751   5.491  19.651  0.00  0.00    -0.112 NA
ATOM      5  N   UNL     1      17.426   5.339  19.292  0.00  0.00    -0.107 NA
ATOM     13  C   UNL     1      18.830   6.654  20.254  0.00  0.00    +0.222 A 
ATOM     16  C   UNL     1      16.814   6.423  19.707  0.00  0.00    +0.250 A 
BRANCH  16  17
ATOM      8  N   UNL     1      13.255   6.961  20.639  0.00  0.00    -0.263 NA
ATOM     17  C   UNL     1      15.437   6.811  19.608  0.00  0.00    +0.057 A 
ATOM     19  C   UNL     1      14.936   7.389  18.448  0.00  0.00    +0.016 A 
ATOM     20  C   UNL     1      14.563   6.619  20.666  0.00  0.00    +0.124 A 
ATOM     23  C   UNL     1      13.596   7.756  18.382  0.00  0.00    +0.020 A 
ATOM     24  C   UNL     1      12.805   7.521  19.495  0.00  0.00    +0.111 A 
ENDBRANCH  16  17
ENDBRANCH   9  13
TORSDOF 3
ENDMDL
MODEL 6
REMARK VINA RESULT:      -6.1     27.515     29.005
REMARK  Name = 51137843
REMARK  3 active torsions:
REMARK  status: ('A' for Active; 'I' for Inactive)
REMARK    1  A    between atoms: C_9  and  C_13
REMARK    2  A    between atoms: C_14  and  C_15
REMARK    3  A    between atoms: C_16  and  C_17
REMARK                            x       y       z     vdW  Elec       q    Type
REMARK                         _______ _______ _______ _____ _____    ______ ____
ROOT
ATOM      2  O   UNL     1      -4.480 -13.944  14.167  0.00  0.00    -0.268 OA
ATOM      3  N   UNL     1      -4.357 -12.268  15.770  0.00  0.00    -0.295 N 
ATOM      9  C   UNL     1      -4.850 -10.742  17.529  0.00  0.00    +0.095 C 
ATOM     10  C   UNL     1      -4.802 -12.174  18.085  0.00  0.00    +0.033 C 
ATOM     11  C   UNL     1      -4.096 -10.893  16.200  0.00  0.00    +0.121 C 
ATOM     12  C   UNL     1      -4.938 -13.052  16.848  0.00  0.00    +0.109 C 
ATOM     14  C   UNL     1      -4.179 -12.800  14.503  0.00  0.00    +0.266 C 
ENDROOT
BRANCH  14  15
ATOM      6  N   UNL     1      -4.452 -11.119  12.812  0.00  0.00    -0.247 NA
ATOM      7  N   UNL     1      -1.701 -11.137  12.262  0.00  0.00    -0.259 NA
ATOM     15  C   UNL     1      -3.597 -11.924  13.473  0.00  0.00    +0.144 A 
ATOM     18  C   UNL     1      -2.246 -11.933  13.203  0.00  0.00    +0.143 A 
ATOM     21  C   UNL     1      -3.908 -10.323  11.870  0.00  0.00    +0.131 A 
ATOM     22  C   UNL     1      -2.557 -10.332  11.599  0.00  0.00    +0.130 A 
ENDBRANCH  14  15
BRANCH   9  13
ATOM      1  O   UNL     1      -7.176 -10.755  18.314  0.00  0.00    -0.420 OA
ATOM      4  N   UNL     1      -6.787  -9.312  16.650  0.00  0.00    -0.112 NA
ATOM      5  N   UNL     1      -8.123  -9.218  16.992  0.00  0.00    -0.107 NA
ATOM     13  C   UNL     1      -6.274 -10.220  17.446  0.00  0.00    +0.222 A 
ATOM     16  C   UNL     1      -8.305 -10.077  17.966  0.00  0.00    +0.250 A 
BRANCH  16  17
ATOM      8  N   UNL     1     -10.580 -11.838  20.323  0.00  0.00    -0.263 NA
ATOM     17  C   UNL     1      -9.487 -10.407  18.709  0.00  0.00    +0.057 A 
ATOM     19  C   UNL     1     -10.656  -9.669  18.563  0.00  0.00    +0.016 A 
ATOM     20  C   UNL     1      -9.501 -11.473  19.593  0.00  0.00    +0.124 A 
ATOM     23  C   UNL     1     -11.786 -10.012  19.296  0.00  0.00    +0.020 A 
ATOM     24  C   UNL     1     -11.697 -11.097  20.154  0.00  0.00    +0.111 A 
ENDBRANCH  16  17
ENDBRANCH   9  13
TORSDOF 3
ENDMDL
MODEL 7
REMARK VINA RESULT:      -5.8     26.835     28.517
REMARK  Name = 51137843
REMARK  3 active torsions:
REMARK  status: ('A' for Active; 'I' for Inactive)
REMARK    1  A    between atoms: C_9  and  C_13
REMARK    2  A    between atoms: C_14  and  C_15
REMARK    3  A    between atoms: C_16  and  C_17
REMARK                            x       y       z     vdW  Elec       q    Type
REMARK                         _______ _______ _______ _____ _____    ______ ____
ROOT
ATOM      2  O   UNL     1      -5.603 -13.385  11.171  0.00  0.00    -0.268 OA
ATOM      3  N   UNL     1      -4.181 -11.688  11.873  0.00  0.00    -0.295 N 
ATOM      9  C   UNL     1      -2.571 -10.393  13.055  0.00  0.00    +0.095 C 
ATOM     10  C   UNL     1      -1.875 -11.574  12.360  0.00  0.00    +0.033 C 
ATOM     11  C   UNL     1      -3.899 -10.312  12.289  0.00  0.00    +0.121 C 
ATOM     12  C   UNL     1      -3.013 -12.536  12.046  0.00  0.00    +0.109 C 
ATOM     14  C   UNL     1      -5.393 -12.204  11.442  0.00  0.00    +0.266 C 
ENDROOT
BRANCH  14  15
ATOM      6  N   UNL     1      -7.304 -11.112  12.398  0.00  0.00    -0.247 NA
ATOM      7  N   UNL     1      -7.794  -9.736  10.004  0.00  0.00    -0.259 NA
ATOM     15  C   UNL     1      -6.522 -11.269  11.312  0.00  0.00    +0.144 A 
ATOM     18  C   UNL     1      -6.762 -10.593  10.136  0.00  0.00    +0.143 A 
ATOM     21  C   UNL     1      -8.336 -10.255  12.266  0.00  0.00    +0.131 A 
ATOM     22  C   UNL     1      -8.577  -9.580  11.090  0.00  0.00    +0.130 A 
ENDBRANCH  14  15
BRANCH   9  13
ATOM      1  O   UNL     1      -3.899 -10.491  15.117  0.00  0.00    -0.420 OA
ATOM      4  N   UNL     1      -1.718 -10.882  15.422  0.00  0.00    -0.112 NA
ATOM      5  N   UNL     1      -2.342 -10.966  16.652  0.00  0.00    -0.107 NA
ATOM     13  C   UNL     1      -2.664 -10.602  14.556  0.00  0.00    +0.222 A 
ATOM     16  C   UNL     1      -3.613 -10.731  16.427  0.00  0.00    +0.250 A 
BRANCH  16  17
ATOM      8  N   UNL     1      -5.669 -11.286  19.475  0.00  0.00    -0.263 NA
ATOM     17  C   UNL     1      -4.727 -10.690  17.330  0.00  0.00    +0.057 A 
ATOM     19  C   UNL     1      -5.911 -10.051  16.980  0.00  0.00    +0.016 A 
ATOM     20  C   UNL     1      -4.657 -11.287  18.578  0.00  0.00    +0.124 A 
ATOM     23  C   UNL     1      -6.973 -10.028  17.877  0.00  0.00    +0.020 A 
ATOM     24  C   UNL     1      -6.803 -10.655  19.100  0.00  0.00    +0.111 A 
ENDBRANCH  16  17
ENDBRANCH   9  13
TORSDOF 3
ENDMDL
MODEL 8
REMARK VINA RESULT:      -5.8     22.737     24.648
REMARK  Name = 51137843
REMARK  3 active torsions:
REMARK  status: ('A' for Active; 'I' for Inactive)
REMARK    1  A    between atoms: C_9  and  C_13
REMARK    2  A    between atoms: C_14  and  C_15
REMARK    3  A    between atoms: C_16  and  C_17
REMARK                            x       y       z     vdW  Elec       q    Type
REMARK                         _______ _______ _______ _____ _____    ______ ____
ROOT
ATOM      2  O   UNL     1     -11.217  12.293  14.668  0.00  0.00    -0.268 OA
ATOM      3  N   UNL     1     -10.418  10.688  16.145  0.00  0.00    -0.295 N 
ATOM      9  C   UNL     1     -10.239   8.894  17.699  0.00  0.00    +0.095 C 
ATOM     10  C   UNL     1     -10.682   8.351  16.331  0.00  0.00    +0.033 C 
ATOM     11  C   UNL     1      -9.658  10.265  17.323  0.00  0.00    +0.121 C 
ATOM     12  C   UNL     1     -11.187   9.584  15.594  0.00  0.00    +0.109 C 
ATOM     14  C   UNL     1     -10.508  11.967  15.618  0.00  0.00    +0.266 C 
ENDROOT
BRANCH  14  15
ATOM      6  N   UNL     1      -8.399  13.072  15.916  0.00  0.00    -0.247 NA
ATOM      7  N   UNL     1      -9.532  14.878  17.739  0.00  0.00    -0.259 NA
ATOM     15  C   UNL     1      -9.703  13.022  16.254  0.00  0.00    +0.144 A 
ATOM     18  C   UNL     1     -10.259  13.909  17.149  0.00  0.00    +0.143 A 
ATOM     21  C   UNL     1      -7.671  14.041  16.506  0.00  0.00    +0.131 A 
ATOM     22  C   UNL     1      -8.228  14.928  17.402  0.00  0.00    +0.130 A 
ENDBRANCH  14  15
BRANCH   9  13
ATOM      1  O   UNL     1     -11.746   7.686  19.215  0.00  0.00    -0.420 OA
ATOM      4  N   UNL     1     -12.093   9.895  19.158  0.00  0.00    -0.112 NA
ATOM      5  N   UNL     1     -13.001   9.343  20.041  0.00  0.00    -0.107 NA
ATOM     13  C   UNL     1     -11.382   8.892  18.699  0.00  0.00    +0.222 A 
ATOM     16  C   UNL     1     -12.762   8.053  20.044  0.00  0.00    +0.250 A 
BRANCH  16  17
ATOM      8  N   UNL     1     -15.424   5.829  21.382  0.00  0.00    -0.263 NA
ATOM     17  C   UNL     1     -13.393   6.989  20.770  0.00  0.00    +0.057 A 
ATOM     19  C   UNL     1     -12.648   6.109  21.545  0.00  0.00    +0.016 A 
ATOM     20  C   UNL     1     -14.766   6.809  20.722  0.00  0.00    +0.124 A 
ATOM     23  C   UNL     1     -13.289   5.087  22.238  0.00  0.00    +0.020 A 
ATOM     24  C   UNL     1     -14.666   4.992  22.125  0.00  0.00    +0.111 A 
ENDBRANCH  16  17
ENDBRANCH   9  13
TORSDOF 3
ENDMDL
MODEL 9
REMARK VINA RESULT:      -5.8     29.446     31.350
REMARK  Name = 51137843
REMARK  3 active torsions:
REMARK  status: ('A' for Active; 'I' for Inactive)
REMARK    1  A    between atoms: C_9  and  C_13
REMARK    2  A    between atoms: C_14  and  C_15
REMARK    3  A    between atoms: C_16  and  C_17
REMARK                            x       y       z     vdW  Elec       q    Type
REMARK                         _______ _______ _______ _____ _____    ______ ____
ROOT
ATOM      2  O   UNL     1     -14.679  -7.281  14.131  0.00  0.00    -0.268 OA
ATOM      3  N   UNL     1     -13.748  -5.271  13.435  0.00  0.00    -0.295 N 
ATOM      9  C   UNL     1     -13.031  -3.407  12.140  0.00  0.00    +0.095 C 
ATOM     10  C   UNL     1     -14.565  -3.410  12.236  0.00  0.00    +0.033 C 
ATOM     11  C   UNL     1     -12.638  -4.324  13.307  0.00  0.00    +0.121 C 
ATOM     12  C   UNL     1     -14.902  -4.832  12.667  0.00  0.00    +0.109 C 
ATOM     14  C   UNL     1     -13.746  -6.481  14.110  0.00  0.00    +0.266 C 
ENDROOT
BRANCH  14  15
ATOM      6  N   UNL     1     -11.718  -7.754  14.266  0.00  0.00    -0.247 NA
ATOM      7  N   UNL     1     -11.118  -6.611  16.757  0.00  0.00    -0.259 NA
ATOM     15  C   UNL     1     -12.526  -6.846  14.848  0.00  0.00    +0.144 A 
ATOM     18  C   UNL     1     -12.231  -6.284  16.071  0.00  0.00    +0.143 A 
ATOM     21  C   UNL     1     -10.605  -8.082  14.952  0.00  0.00    +0.131 A 
ATOM     22  C   UNL     1     -10.311  -7.521  16.176  0.00  0.00    +0.130 A 
ENDBRANCH  14  15
BRANCH   9  13
ATOM      1  O   UNL     1     -11.555  -4.744  10.705  0.00  0.00    -0.420 OA
ATOM      4  N   UNL     1     -12.968  -3.427   9.577  0.00  0.00    -0.112 NA
ATOM      5  N   UNL     1     -12.202  -4.117   8.657  0.00  0.00    -0.107 NA
ATOM     13  C   UNL     1     -12.556  -3.824  10.759  0.00  0.00    +0.222 A 
ATOM     16  C   UNL     1     -11.391  -4.873   9.359  0.00  0.00    +0.250 A 
BRANCH  16  17
ATOM      8  N   UNL     1      -8.207  -6.169   7.943  0.00  0.00    -0.263 NA
ATOM     17  C   UNL     1     -10.380  -5.798   8.936  0.00  0.00    +0.057 A 
ATOM     19  C   UNL     1     -10.553  -7.169   9.087  0.00  0.00    +0.016 A 
ATOM     20  C   UNL     1      -9.200  -5.352   8.363  0.00  0.00    +0.124 A 
ATOM     23  C   UNL     1      -9.554  -8.040   8.667  0.00  0.00    +0.020 A 
ATOM     24  C   UNL     1      -8.411  -7.495   8.106  0.00  0.00    +0.111 A 
ENDBRANCH  16  17
ENDBRANCH   9  13
TORSDOF 3
ENDMDL
MODEL 10
REMARK VINA RESULT:      -5.8     15.154     17.820
REMARK  Name = 51137843
REMARK  3 active torsions:
REMARK  status: ('A' for Active; 'I' for Inactive)
REMARK    1  A    between atoms: C_9  and  C_13
REMARK    2  A    between atoms: C_14  and  C_15
REMARK    3  A    between atoms: C_16  and  C_17
REMARK                            x       y       z     vdW  Elec       q    Type
REMARK                         _______ _______ _______ _____ _____    ______ ____
ROOT
ATOM      2  O   UNL     1       9.646   7.867   1.761  0.00  0.00    -0.268 OA
ATOM      3  N   UNL     1       9.553   6.282   3.456  0.00  0.00    -0.295 N 
ATOM      9  C   UNL     1       9.586   5.184   5.568  0.00  0.00    +0.095 C 
ATOM     10  C   UNL     1       8.371   6.122   5.491  0.00  0.00    +0.033 C 
ATOM     11  C   UNL     1       9.956   5.023   4.087  0.00  0.00    +0.121 C 
ATOM     12  C   UNL     1       8.706   7.063   4.343  0.00  0.00    +0.109 C 
ATOM     14  C   UNL     1       9.952   6.768   2.221  0.00  0.00    +0.266 C 
ENDROOT
BRANCH  14  15
ATOM      6  N   UNL     1      10.206   5.016   0.602  0.00  0.00    -0.247 NA
ATOM      7  N   UNL     1      13.001   5.237   0.709  0.00  0.00    -0.259 NA
ATOM     15  C   UNL     1      10.821   5.910   1.401  0.00  0.00    +0.144 A 
ATOM     18  C   UNL     1      12.194   6.019   1.454  0.00  0.00    +0.143 A 
ATOM     21  C   UNL     1      11.013   4.233  -0.143  0.00  0.00    +0.131 A 
ATOM     22  C   UNL     1      12.386   4.342  -0.090  0.00  0.00    +0.130 A 
ENDBRANCH  14  15
BRANCH   9  13
ATOM      1  O   UNL     1      11.585   6.567   5.913  0.00  0.00    -0.420 OA
ATOM      4  N   UNL     1      10.858   5.544   7.764  0.00  0.00    -0.112 NA
ATOM      5  N   UNL     1      11.978   6.282   8.097  0.00  0.00    -0.107 NA
ATOM     13  C   UNL     1      10.666   5.740   6.481  0.00  0.00    +0.222 A 
ATOM     16  C   UNL     1      12.369   6.862   6.986  0.00  0.00    +0.250 A 
BRANCH  16  17
ATOM      8  N   UNL     1      14.326  10.001   6.613  0.00  0.00    -0.263 NA
ATOM     17  C   UNL     1      13.473   7.742   6.734  0.00  0.00    +0.057 A 
ATOM     19  C   UNL     1      14.720   7.245   6.375  0.00  0.00    +0.016 A 
ATOM     20  C   UNL     1      13.329   9.116   6.838  0.00  0.00    +0.124 A 
ATOM     23  C   UNL     1      15.771   8.123   6.137  0.00  0.00    +0.020 A 
ATOM     24  C   UNL     1      15.524   9.480   6.267  0.00  0.00    +0.111 A 
ENDBRANCH  16  17
ENDBRANCH   9  13
TORSDOF 3
ENDMDL
