MODEL 1
REMARK VINA RESULT:      -7.8      0.000      0.000
REMARK  Name = 71693633
REMARK  8 active torsions:
REMARK  status: ('A' for Active; 'I' for Inactive)
REMARK    1  A    between atoms: O_2  and  C_10
REMARK    2  A    between atoms: N_5  and  C_13
REMARK    3  A    between atoms: N_6  and  C_18
REMARK    4  A    between atoms: C_7  and  C_10
REMARK    5  A    between atoms: C_8  and  C_9
REMARK    6  A    between atoms: C_19  and  C_20
REMARK    7  A    between atoms: C_19  and  C_21
REMARK    8  A    between atoms: C_21  and  C_22
REMARK                            x       y       z     vdW  Elec       q    Type
REMARK                         _______ _______ _______ _____ _____    ______ ____
ROOT
ATOM      9  C   UNL     1      16.226   7.492  19.858  0.00  0.00    -0.017 A 
ATOM     14  C   UNL     1      16.632   6.251  19.365  0.00  0.00    +0.008 A 
ATOM     15  C   UNL     1      17.086   8.237  20.664  0.00  0.00    +0.008 A 
ATOM     16  C   UNL     1      17.898   5.757  19.680  0.00  0.00    +0.023 A 
ATOM     17  C   UNL     1      18.351   7.742  20.978  0.00  0.00    +0.023 A 
ATOM     18  C   UNL     1      18.758   6.502  20.486  0.00  0.00    +0.033 A 
ENDROOT
BRANCH   9   8
ATOM      1  O   UNL     1      14.514   7.525  18.223  0.00  0.00    -0.361 OA
ATOM      3  O   UNL     1      11.034   8.279  18.111  0.00  0.00    -0.273 OA
ATOM      5  N   UNL     1      12.400   7.947  19.970  0.00  0.00    -0.295 N 
ATOM      7  C   UNL     1      13.743   7.602  20.497  0.00  0.00    +0.134 C 
ATOM      8  C   UNL     1      14.853   8.030  19.516  0.00  0.00    +0.171 C 
ATOM     11  C   UNL     1      13.374   8.174  17.714  0.00  0.00    +0.256 C 
ATOM     12  C   UNL     1      12.152   8.118  18.608  0.00  0.00    +0.242 C 
ATOM     13  C   UNL     1      11.263   7.866  20.883  0.00  0.00    +0.132 C 
BRANCH   7  10
ATOM     10  C   UNL     1      13.998   8.192  21.891  0.00  0.00    +0.181 C 
BRANCH  10   2
ATOM      2  O   UNL     1      14.558   7.181  22.704  0.00  0.00    -0.393 OA
ATOM     28  H   UNL     1      14.857   7.605  23.526  0.00  0.00    +0.209 HD
ENDBRANCH  10   2
ENDBRANCH   7  10
ENDBRANCH   9   8
BRANCH  18   6
ATOM      4  O   UNL     1      20.125   6.186  23.145  0.00  0.00    -0.275 OA
ATOM      6  N   UNL     1      20.024   6.007  20.799  0.00  0.00    -0.285 N 
ATOM     20  C   UNL     1      20.611   5.868  22.063  0.00  0.00    +0.218 C 
ATOM     29  H   UNL     1      20.583   5.707  20.003  0.00  0.00    +0.155 HD
BRANCH  20  19
ATOM     19  C   UNL     1      22.014   5.286  21.994  0.00  0.00    +0.101 C 
BRANCH  19  21
ATOM     21  C   UNL     1      22.062   4.032  21.119  0.00  0.00    +0.044 C 
BRANCH  21  22
ATOM     22  C   UNL     1      22.904   2.925  21.704  0.00  0.00    -0.047 A 
ATOM     23  C   UNL     1      22.918   2.714  23.083  0.00  0.00    +0.003 A 
ATOM     24  C   UNL     1      23.666   2.111  20.866  0.00  0.00    +0.003 A 
ATOM     25  C   UNL     1      23.695   1.690  23.623  0.00  0.00    +0.000 A 
ATOM     26  C   UNL     1      24.443   1.087  21.407  0.00  0.00    +0.000 A 
ATOM     27  C   UNL     1      24.457   0.876  22.786  0.00  0.00    +0.000 A 
ENDBRANCH  21  22
ENDBRANCH  19  21
ENDBRANCH  20  19
ENDBRANCH  18   6
TORSDOF 7
ENDMDL
MODEL 2
REMARK VINA RESULT:      -7.6      2.449      9.788
REMARK  Name = 71693633
REMARK  8 active torsions:
REMARK  status: ('A' for Active; 'I' for Inactive)
REMARK    1  A    between atoms: O_2  and  C_10
REMARK    2  A    between atoms: N_5  and  C_13
REMARK    3  A    between atoms: N_6  and  C_18
REMARK    4  A    between atoms: C_7  and  C_10
REMARK    5  A    between atoms: C_8  and  C_9
REMARK    6  A    between atoms: C_19  and  C_20
REMARK    7  A    between atoms: C_19  and  C_21
REMARK    8  A    between atoms: C_21  and  C_22
REMARK                            x       y       z     vdW  Elec       q    Type
REMARK                         _______ _______ _______ _____ _____    ______ ____
ROOT
ATOM      9  C   UNL     1      18.589   6.067  20.550  0.00  0.00    -0.017 A 
ATOM     14  C   UNL     1      17.665   6.562  21.471  0.00  0.00    +0.008 A 
ATOM     15  C   UNL     1      18.175   5.724  19.263  0.00  0.00    +0.008 A 
ATOM     16  C   UNL     1      16.327   6.712  21.104  0.00  0.00    +0.023 A 
ATOM     17  C   UNL     1      16.838   5.874  18.897  0.00  0.00    +0.023 A 
ATOM     18  C   UNL     1      15.913   6.368  19.818  0.00  0.00    +0.033 A 
ENDROOT
BRANCH   9   8
ATOM      1  O   UNL     1      20.506   4.693  20.350  0.00  0.00    -0.361 OA
ATOM      3  O   UNL     1      24.024   5.050  20.787  0.00  0.00    -0.273 OA
ATOM      5  N   UNL     1      22.389   6.708  20.671  0.00  0.00    -0.295 N 
ATOM      7  C   UNL     1      20.959   7.049  20.472  0.00  0.00    +0.134 C 
ATOM      8  C   UNL     1      20.041   5.905  20.946  0.00  0.00    +0.171 C 
ATOM     11  C   UNL     1      21.762   4.328  20.869  0.00  0.00    +0.256 C 
ATOM     12  C   UNL     1      22.838   5.389  20.751  0.00  0.00    +0.242 C 
ATOM     13  C   UNL     1      23.375   7.776  20.537  0.00  0.00    +0.132 C 
BRANCH   7  10
ATOM     10  C   UNL     1      20.570   8.370  21.153  0.00  0.00    +0.181 C 
BRANCH  10   2
ATOM      2  O   UNL     1      20.615   8.176  22.552  0.00  0.00    -0.393 OA
ATOM     28  H   UNL     1      19.839   8.623  22.930  0.00  0.00    +0.209 HD
ENDBRANCH  10   2
ENDBRANCH   7  10
ENDBRANCH   9   8
BRANCH  18   6
ATOM      4  O   UNL     1      14.585   8.443  18.095  0.00  0.00    -0.275 OA
ATOM      6  N   UNL     1      14.576   6.519  19.452  0.00  0.00    -0.285 N 
ATOM     20  C   UNL     1      14.008   7.502  18.631  0.00  0.00    +0.218 C 
ATOM     29  H   UNL     1      13.940   5.819  19.830  0.00  0.00    +0.155 HD
BRANCH  20  19
ATOM     19  C   UNL     1      12.506   7.328  18.468  0.00  0.00    +0.101 C 
BRANCH  19  21
ATOM     21  C   UNL     1      11.757   8.642  18.700  0.00  0.00    +0.044 C 
BRANCH  21  22
ATOM     22  C   UNL     1      11.474   8.923  20.155  0.00  0.00    -0.047 A 
ATOM     23  C   UNL     1      11.856  10.142  20.717  0.00  0.00    +0.003 A 
ATOM     24  C   UNL     1      10.832   7.965  20.938  0.00  0.00    +0.003 A 
ATOM     25  C   UNL     1      11.594  10.401  22.062  0.00  0.00    +0.000 A 
ATOM     26  C   UNL     1      10.570   8.225  22.283  0.00  0.00    +0.000 A 
ATOM     27  C   UNL     1      10.951   9.443  22.845  0.00  0.00    +0.000 A 
ENDBRANCH  21  22
ENDBRANCH  19  21
ENDBRANCH  20  19
ENDBRANCH  18   6
TORSDOF 7
ENDMDL
MODEL 3
REMARK VINA RESULT:      -7.5      1.584      2.053
REMARK  Name = 71693633
REMARK  8 active torsions:
REMARK  status: ('A' for Active; 'I' for Inactive)
REMARK    1  A    between atoms: O_2  and  C_10
REMARK    2  A    between atoms: N_5  and  C_13
REMARK    3  A    between atoms: N_6  and  C_18
REMARK    4  A    between atoms: C_7  and  C_10
REMARK    5  A    between atoms: C_8  and  C_9
REMARK    6  A    between atoms: C_19  and  C_20
REMARK    7  A    between atoms: C_19  and  C_21
REMARK    8  A    between atoms: C_21  and  C_22
REMARK                            x       y       z     vdW  Elec       q    Type
REMARK                         _______ _______ _______ _____ _____    ______ ____
ROOT
ATOM      9  C   UNL     1      15.804   6.881  19.799  0.00  0.00    -0.017 A 
ATOM     14  C   UNL     1      16.420   6.199  18.749  0.00  0.00    +0.008 A 
ATOM     15  C   UNL     1      16.466   7.032  21.017  0.00  0.00    +0.008 A 
ATOM     16  C   UNL     1      17.699   5.668  18.920  0.00  0.00    +0.023 A 
ATOM     17  C   UNL     1      17.744   6.500  21.187  0.00  0.00    +0.023 A 
ATOM     18  C   UNL     1      18.361   5.819  20.138  0.00  0.00    +0.033 A 
ENDROOT
BRANCH   9   8
ATOM      1  O   UNL     1      13.518   6.639  20.364  0.00  0.00    -0.361 OA
ATOM      3  O   UNL     1      10.606   8.692  20.375  0.00  0.00    -0.273 OA
ATOM      5  N   UNL     1      12.838   9.321  20.137  0.00  0.00    -0.295 N 
ATOM      7  C   UNL     1      14.263   8.909  20.114  0.00  0.00    +0.134 C 
ATOM      8  C   UNL     1      14.416   7.459  19.615  0.00  0.00    +0.171 C 
ATOM     11  C   UNL     1      12.181   6.943  20.049  0.00  0.00    +0.256 C 
ATOM     12  C   UNL     1      11.795   8.398  20.225  0.00  0.00    +0.242 C 
ATOM     13  C   UNL     1      12.535  10.738  20.316  0.00  0.00    +0.132 C 
BRANCH   7  10
ATOM     10  C   UNL     1      15.136   9.861  19.284  0.00  0.00    +0.181 C 
BRANCH  10   2
ATOM      2  O   UNL     1      16.084  10.457  20.146  0.00  0.00    -0.393 OA
ATOM     28  H   UNL     1      16.902  10.580  19.635  0.00  0.00    +0.209 HD
ENDBRANCH  10   2
ENDBRANCH   7  10
ENDBRANCH   9   8
BRANCH  18   6
ATOM      4  O   UNL     1      21.018   7.191  20.448  0.00  0.00    -0.275 OA
ATOM      6  N   UNL     1      19.640   5.288  20.307  0.00  0.00    -0.285 N 
ATOM     20  C   UNL     1      20.850   5.975  20.461  0.00  0.00    +0.218 C 
ATOM     29  H   UNL     1      19.690   4.271  20.325  0.00  0.00    +0.155 HD
BRANCH  20  19
ATOM     19  C   UNL     1      22.037   5.039  20.620  0.00  0.00    +0.101 C 
BRANCH  19  21
ATOM     21  C   UNL     1      21.606   3.662  21.128  0.00  0.00    +0.044 C 
BRANCH  21  22
ATOM     22  C   UNL     1      22.750   2.831  21.655  0.00  0.00    -0.047 A 
ATOM     23  C   UNL     1      23.627   2.208  20.767  0.00  0.00    +0.003 A 
ATOM     24  C   UNL     1      22.932   2.688  23.031  0.00  0.00    +0.003 A 
ATOM     25  C   UNL     1      24.685   1.441  21.254  0.00  0.00    +0.000 A 
ATOM     26  C   UNL     1      23.990   1.921  23.517  0.00  0.00    +0.000 A 
ATOM     27  C   UNL     1      24.866   1.298  22.630  0.00  0.00    +0.000 A 
ENDBRANCH  21  22
ENDBRANCH  19  21
ENDBRANCH  20  19
ENDBRANCH  18   6
TORSDOF 7
ENDMDL
MODEL 4
REMARK VINA RESULT:      -6.9     29.479     32.982
REMARK  Name = 71693633
REMARK  8 active torsions:
REMARK  status: ('A' for Active; 'I' for Inactive)
REMARK    1  A    between atoms: O_2  and  C_10
REMARK    2  A    between atoms: N_5  and  C_13
REMARK    3  A    between atoms: N_6  and  C_18
REMARK    4  A    between atoms: C_7  and  C_10
REMARK    5  A    between atoms: C_8  and  C_9
REMARK    6  A    between atoms: C_19  and  C_20
REMARK    7  A    between atoms: C_19  and  C_21
REMARK    8  A    between atoms: C_21  and  C_22
REMARK                            x       y       z     vdW  Elec       q    Type
REMARK                         _______ _______ _______ _____ _____    ______ ____
ROOT
ATOM      9  C   UNL     1     -13.493   6.960  21.552  0.00  0.00    -0.017 A 
ATOM     14  C   UNL     1     -12.972   5.676  21.719  0.00  0.00    +0.008 A 
ATOM     15  C   UNL     1     -14.560   7.388  22.340  0.00  0.00    +0.008 A 
ATOM     16  C   UNL     1     -13.522   4.821  22.675  0.00  0.00    +0.023 A 
ATOM     17  C   UNL     1     -15.109   6.532  23.295  0.00  0.00    +0.023 A 
ATOM     18  C   UNL     1     -14.590   5.249  23.464  0.00  0.00    +0.033 A 
ENDROOT
BRANCH   9   8
ATOM      1  O   UNL     1     -11.497   7.609  20.457  0.00  0.00    -0.361 OA
ATOM      3  O   UNL     1     -10.607   9.317  17.460  0.00  0.00    -0.273 OA
ATOM      5  N   UNL     1     -12.680   8.461  18.095  0.00  0.00    -0.295 N 
ATOM      7  C   UNL     1     -13.474   7.709  19.098  0.00  0.00    +0.134 C 
ATOM      8  C   UNL     1     -12.897   7.888  20.515  0.00  0.00    +0.171 C 
ATOM     11  C   UNL     1     -10.820   8.593  19.713  0.00  0.00    +0.256 C 
ATOM     12  C   UNL     1     -11.345   8.808  18.308  0.00  0.00    +0.242 C 
ATOM     13  C   UNL     1     -13.241   8.627  16.758  0.00  0.00    +0.132 C 
BRANCH   7  10
ATOM     10  C   UNL     1     -14.963   8.085  19.070  0.00  0.00    +0.181 C 
BRANCH  10   2
ATOM      2  O   UNL     1     -15.718   6.895  18.965  0.00  0.00    -0.393 OA
ATOM     28  H   UNL     1     -16.469   7.082  18.376  0.00  0.00    +0.209 HD
ENDBRANCH  10   2
ENDBRANCH   7  10
ENDBRANCH   9   8
BRANCH  18   6
ATOM      4  O   UNL     1     -16.343   2.828  23.139  0.00  0.00    -0.275 OA
ATOM      6  N   UNL     1     -15.138   4.394  24.419  0.00  0.00    -0.285 N 
ATOM     20  C   UNL     1     -15.942   3.266  24.213  0.00  0.00    +0.218 C 
ATOM     29  H   UNL     1     -14.916   4.623  25.386  0.00  0.00    +0.155 HD
BRANCH  20  19
ATOM     19  C   UNL     1     -16.345   2.591  25.515  0.00  0.00    +0.101 C 
BRANCH  19  21
ATOM     21  C   UNL     1     -16.256   3.553  26.701  0.00  0.00    +0.044 C 
BRANCH  21  22
ATOM     22  C   UNL     1     -15.943   2.866  28.008  0.00  0.00    -0.047 A 
ATOM     23  C   UNL     1     -15.331   3.578  29.041  0.00  0.00    +0.003 A 
ATOM     24  C   UNL     1     -16.266   1.521  28.184  0.00  0.00    +0.003 A 
ATOM     25  C   UNL     1     -15.043   2.943  30.249  0.00  0.00    +0.000 A 
ATOM     26  C   UNL     1     -15.977   0.887  29.392  0.00  0.00    +0.000 A 
ATOM     27  C   UNL     1     -15.366   1.598  30.424  0.00  0.00    +0.000 A 
ENDBRANCH  21  22
ENDBRANCH  19  21
ENDBRANCH  20  19
ENDBRANCH  18   6
TORSDOF 7
ENDMDL
MODEL 5
REMARK VINA RESULT:      -6.7     28.017     30.157
REMARK  Name = 71693633
REMARK  8 active torsions:
REMARK  status: ('A' for Active; 'I' for Inactive)
REMARK    1  A    between atoms: O_2  and  C_10
REMARK    2  A    between atoms: N_5  and  C_13
REMARK    3  A    between atoms: N_6  and  C_18
REMARK    4  A    between atoms: C_7  and  C_10
REMARK    5  A    between atoms: C_8  and  C_9
REMARK    6  A    between atoms: C_19  and  C_20
REMARK    7  A    between atoms: C_19  and  C_21
REMARK    8  A    between atoms: C_21  and  C_22
REMARK                            x       y       z     vdW  Elec       q    Type
REMARK                         _______ _______ _______ _____ _____    ______ ____
ROOT
ATOM      9  C   UNL     1      -6.867  -9.903  16.712  0.00  0.00    -0.017 A 
ATOM     14  C   UNL     1      -7.067 -10.002  15.335  0.00  0.00    +0.008 A 
ATOM     15  C   UNL     1      -5.583 -10.031  17.242  0.00  0.00    +0.008 A 
ATOM     16  C   UNL     1      -5.982 -10.230  14.488  0.00  0.00    +0.023 A 
ATOM     17  C   UNL     1      -4.499 -10.259  16.395  0.00  0.00    +0.023 A 
ATOM     18  C   UNL     1      -4.698 -10.358  15.017  0.00  0.00    +0.033 A 
ENDROOT
BRANCH   9   8
ATOM      1  O   UNL     1      -9.118  -9.178  16.820  0.00  0.00    -0.361 OA
ATOM      3  O   UNL     1     -11.847  -9.483  19.089  0.00  0.00    -0.273 OA
ATOM      5  N   UNL     1      -9.832 -10.654  19.059  0.00  0.00    -0.295 N 
ATOM      7  C   UNL     1      -8.537 -10.909  18.381  0.00  0.00    +0.134 C 
ATOM      8  C   UNL     1      -8.044  -9.655  17.632  0.00  0.00    +0.171 C 
ATOM     11  C   UNL     1     -10.165  -8.680  17.616  0.00  0.00    +0.256 C 
ATOM     12  C   UNL     1     -10.710  -9.652  18.642  0.00  0.00    +0.242 C 
ATOM     13  C   UNL     1     -10.302 -11.635  20.034  0.00  0.00    +0.132 C 
BRANCH   7  10
ATOM     10  C   UNL     1      -7.458 -11.421  19.346  0.00  0.00    +0.181 C 
BRANCH  10   2
ATOM      2  O   UNL     1      -7.086 -10.355  20.197  0.00  0.00    -0.393 OA
ATOM     28  H   UNL     1      -7.214  -9.530  19.698  0.00  0.00    +0.209 HD
ENDBRANCH  10   2
ENDBRANCH   7  10
ENDBRANCH   9   8
BRANCH  18   6
ATOM      4  O   UNL     1      -3.699 -12.902  13.766  0.00  0.00    -0.275 OA
ATOM      6  N   UNL     1      -3.614 -10.585  14.170  0.00  0.00    -0.285 N 
ATOM     20  C   UNL     1      -3.197 -11.795  13.601  0.00  0.00    +0.218 C 
ATOM     29  H   UNL     1      -3.064  -9.760  13.937  0.00  0.00    +0.155 HD
BRANCH  20  19
ATOM     19  C   UNL     1      -1.963 -11.634  12.727  0.00  0.00    +0.101 C 
BRANCH  19  21
ATOM     21  C   UNL     1      -1.979 -10.308  11.965  0.00  0.00    +0.044 C 
BRANCH  21  22
ATOM     22  C   UNL     1      -2.939 -10.298  10.800  0.00  0.00    -0.047 A 
ATOM     23  C   UNL     1      -3.293  -9.090  10.199  0.00  0.00    +0.003 A 
ATOM     24  C   UNL     1      -3.471 -11.496  10.324  0.00  0.00    +0.003 A 
ATOM     25  C   UNL     1      -4.179  -9.081   9.122  0.00  0.00    +0.000 A 
ATOM     26  C   UNL     1      -4.357 -11.486   9.247  0.00  0.00    +0.000 A 
ATOM     27  C   UNL     1      -4.711 -10.279   8.646  0.00  0.00    +0.000 A 
ENDBRANCH  21  22
ENDBRANCH  19  21
ENDBRANCH  20  19
ENDBRANCH  18   6
TORSDOF 7
ENDMDL
MODEL 6
REMARK VINA RESULT:      -6.6     27.345     30.582
REMARK  Name = 71693633
REMARK  8 active torsions:
REMARK  status: ('A' for Active; 'I' for Inactive)
REMARK    1  A    between atoms: O_2  and  C_10
REMARK    2  A    between atoms: N_5  and  C_13
REMARK    3  A    between atoms: N_6  and  C_18
REMARK    4  A    between atoms: C_7  and  C_10
REMARK    5  A    between atoms: C_8  and  C_9
REMARK    6  A    between atoms: C_19  and  C_20
REMARK    7  A    between atoms: C_19  and  C_21
REMARK    8  A    between atoms: C_21  and  C_22
REMARK                            x       y       z     vdW  Elec       q    Type
REMARK                         _______ _______ _______ _____ _____    ______ ____
ROOT
ATOM      9  C   UNL     1      -7.625 -11.063  18.664  0.00  0.00    -0.017 A 
ATOM     14  C   UNL     1      -7.704 -10.785  17.299  0.00  0.00    +0.008 A 
ATOM     15  C   UNL     1      -6.387 -11.066  19.305  0.00  0.00    +0.008 A 
ATOM     16  C   UNL     1      -6.543 -10.509  16.576  0.00  0.00    +0.023 A 
ATOM     17  C   UNL     1      -5.227 -10.791  18.582  0.00  0.00    +0.023 A 
ATOM     18  C   UNL     1      -5.304 -10.512  17.217  0.00  0.00    +0.033 A 
ENDROOT
BRANCH   9   8
ATOM      1  O   UNL     1      -9.756 -10.241  19.288  0.00  0.00    -0.361 OA
ATOM      3  O   UNL     1     -12.809 -11.593  20.528  0.00  0.00    -0.273 OA
ATOM      5  N   UNL     1     -10.978 -12.711  19.616  0.00  0.00    -0.295 N 
ATOM      7  C   UNL     1      -9.640 -12.620  18.981  0.00  0.00    +0.134 C 
ATOM      8  C   UNL     1      -8.885 -11.361  19.450  0.00  0.00    +0.171 C 
ATOM     11  C   UNL     1     -10.838 -10.313  20.184  0.00  0.00    +0.256 C 
ATOM     12  C   UNL     1     -11.649 -11.590  20.109  0.00  0.00    +0.242 C 
ATOM     13  C   UNL     1     -11.709 -13.970  19.502  0.00  0.00    +0.132 C 
BRANCH   7  10
ATOM     10  C   UNL     1      -8.791 -13.878  19.217  0.00  0.00    +0.181 C 
BRANCH  10   2
ATOM      2  O   UNL     1      -8.427 -13.915  20.582  0.00  0.00    -0.393 OA
ATOM     28  H   UNL     1      -9.146 -14.361  21.060  0.00  0.00    +0.209 HD
ENDBRANCH  10   2
ENDBRANCH   7  10
ENDBRANCH   9   8
BRANCH  18   6
ATOM      4  O   UNL     1      -3.601 -12.302  15.505  0.00  0.00    -0.275 OA
ATOM      6  N   UNL     1      -4.145 -10.236  16.494  0.00  0.00    -0.285 N 
ATOM     20  C   UNL     1      -3.392 -11.108  15.696  0.00  0.00    +0.218 C 
ATOM     29  H   UNL     1      -3.812  -9.275  16.555  0.00  0.00    +0.155 HD
BRANCH  20  19
ATOM     19  C   UNL     1      -2.186 -10.429  15.066  0.00  0.00    +0.101 C 
BRANCH  19  21
ATOM     21  C   UNL     1      -1.757 -11.126  13.774  0.00  0.00    +0.044 C 
BRANCH  21  22
ATOM     22  C   UNL     1      -2.280 -10.454  12.528  0.00  0.00    -0.047 A 
ATOM     23  C   UNL     1      -1.421  -9.697  11.731  0.00  0.00    +0.003 A 
ATOM     24  C   UNL     1      -3.622 -10.590  12.174  0.00  0.00    +0.003 A 
ATOM     25  C   UNL     1      -1.904  -9.077  10.579  0.00  0.00    +0.000 A 
ATOM     26  C   UNL     1      -4.105  -9.969  11.022  0.00  0.00    +0.000 A 
ATOM     27  C   UNL     1      -3.246  -9.213  10.225  0.00  0.00    +0.000 A 
ENDBRANCH  21  22
ENDBRANCH  19  21
ENDBRANCH  20  19
ENDBRANCH  18   6
TORSDOF 7
ENDMDL
MODEL 7
REMARK VINA RESULT:      -6.5     31.465     34.075
REMARK  Name = 71693633
REMARK  8 active torsions:
REMARK  status: ('A' for Active; 'I' for Inactive)
REMARK    1  A    between atoms: O_2  and  C_10
REMARK    2  A    between atoms: N_5  and  C_13
REMARK    3  A    between atoms: N_6  and  C_18
REMARK    4  A    between atoms: C_7  and  C_10
REMARK    5  A    between atoms: C_8  and  C_9
REMARK    6  A    between atoms: C_19  and  C_20
REMARK    7  A    between atoms: C_19  and  C_21
REMARK    8  A    between atoms: C_21  and  C_22
REMARK                            x       y       z     vdW  Elec       q    Type
REMARK                         _______ _______ _______ _____ _____    ______ ____
ROOT
ATOM      9  C   UNL     1     -11.074  -8.233  17.087  0.00  0.00    -0.017 A 
ATOM     14  C   UNL     1     -10.667  -6.952  16.713  0.00  0.00    +0.008 A 
ATOM     15  C   UNL     1     -12.331  -8.703  16.709  0.00  0.00    +0.008 A 
ATOM     16  C   UNL     1     -11.519  -6.142  15.961  0.00  0.00    +0.023 A 
ATOM     17  C   UNL     1     -13.182  -7.893  15.958  0.00  0.00    +0.023 A 
ATOM     18  C   UNL     1     -12.776  -6.612  15.584  0.00  0.00    +0.033 A 
ENDROOT
BRANCH   9   8
ATOM      1  O   UNL     1     -10.926  -9.665  18.966  0.00  0.00    -0.361 OA
ATOM      3  O   UNL     1      -8.731 -12.218  20.130  0.00  0.00    -0.273 OA
ATOM      5  N   UNL     1      -8.845 -11.238  18.018  0.00  0.00    -0.295 N 
ATOM      7  C   UNL     1      -9.529 -10.282  17.112  0.00  0.00    +0.134 C 
ATOM      8  C   UNL     1     -10.150  -9.113  17.902  0.00  0.00    +0.171 C 
ATOM     11  C   UNL     1     -10.100 -10.288  19.919  0.00  0.00    +0.256 C 
ATOM     12  C   UNL     1      -9.177 -11.356  19.368  0.00  0.00    +0.242 C 
ATOM     13  C   UNL     1      -7.974 -12.246  17.421  0.00  0.00    +0.132 C 
BRANCH   7  10
ATOM     10  C   UNL     1      -8.603  -9.755  16.007  0.00  0.00    +0.181 C 
BRANCH  10   2
ATOM      2  O   UNL     1      -7.647  -8.901  16.602  0.00  0.00    -0.393 OA
ATOM     28  H   UNL     1      -7.753  -8.023  16.198  0.00  0.00    +0.209 HD
ENDBRANCH  10   2
ENDBRANCH   7  10
ENDBRANCH   9   8
BRANCH  18   6
ATOM      4  O   UNL     1     -13.625  -6.817  12.707  0.00  0.00    -0.275 OA
ATOM      6  N   UNL     1     -13.627  -5.802  14.832  0.00  0.00    -0.285 N 
ATOM     20  C   UNL     1     -14.002  -5.950  13.490  0.00  0.00    +0.218 C 
ATOM     29  H   UNL     1     -14.024  -5.008  15.330  0.00  0.00    +0.155 HD
BRANCH  20  19
ATOM     19  C   UNL     1     -14.952  -4.857  13.027  0.00  0.00    +0.101 C 
BRANCH  19  21
ATOM     21  C   UNL     1     -14.215  -3.543  12.760  0.00  0.00    +0.044 C 
BRANCH  21  22
ATOM     22  C   UNL     1     -13.530  -3.502  11.416  0.00  0.00    -0.047 A 
ATOM     23  C   UNL     1     -14.287  -3.365  10.252  0.00  0.00    +0.003 A 
ATOM     24  C   UNL     1     -12.141  -3.600  11.338  0.00  0.00    +0.003 A 
ATOM     25  C   UNL     1     -13.654  -3.326   9.010  0.00  0.00    +0.000 A 
ATOM     26  C   UNL     1     -11.509  -3.561  10.095  0.00  0.00    +0.000 A 
ATOM     27  C   UNL     1     -12.265  -3.424   8.932  0.00  0.00    +0.000 A 
ENDBRANCH  21  22
ENDBRANCH  19  21
ENDBRANCH  20  19
ENDBRANCH  18   6
TORSDOF 7
ENDMDL
MODEL 8
REMARK VINA RESULT:      -6.5     29.465     32.414
REMARK  Name = 71693633
REMARK  8 active torsions:
REMARK  status: ('A' for Active; 'I' for Inactive)
REMARK    1  A    between atoms: O_2  and  C_10
REMARK    2  A    between atoms: N_5  and  C_13
REMARK    3  A    between atoms: N_6  and  C_18
REMARK    4  A    between atoms: C_7  and  C_10
REMARK    5  A    between atoms: C_8  and  C_9
REMARK    6  A    between atoms: C_19  and  C_20
REMARK    7  A    between atoms: C_19  and  C_21
REMARK    8  A    between atoms: C_21  and  C_22
REMARK                            x       y       z     vdW  Elec       q    Type
REMARK                         _______ _______ _______ _____ _____    ______ ____
ROOT
ATOM      9  C   UNL     1     -12.565   7.798  19.188  0.00  0.00    -0.017 A 
ATOM     14  C   UNL     1     -11.720   7.018  19.979  0.00  0.00    +0.008 A 
ATOM     15  C   UNL     1     -13.906   7.947  19.538  0.00  0.00    +0.008 A 
ATOM     16  C   UNL     1     -12.219   6.387  21.119  0.00  0.00    +0.023 A 
ATOM     17  C   UNL     1     -14.404   7.316  20.678  0.00  0.00    +0.023 A 
ATOM     18  C   UNL     1     -13.561   6.536  21.469  0.00  0.00    +0.033 A 
ENDROOT
BRANCH   9   8
ATOM      1  O   UNL     1     -12.956   8.242  16.897  0.00  0.00    -0.361 OA
ATOM      3  O   UNL     1     -11.831  10.596  14.470  0.00  0.00    -0.273 OA
ATOM      5  N   UNL     1     -11.569  10.644  16.786  0.00  0.00    -0.295 N 
ATOM      7  C   UNL     1     -11.857  10.010  18.096  0.00  0.00    +0.134 C 
ATOM      8  C   UNL     1     -12.024   8.484  17.952  0.00  0.00    +0.171 C 
ATOM     11  C   UNL     1     -12.416   8.621  15.654  0.00  0.00    +0.256 C 
ATOM     12  C   UNL     1     -11.932  10.055  15.574  0.00  0.00    +0.242 C 
ATOM     13  C   UNL     1     -11.112  12.031  16.780  0.00  0.00    +0.132 C 
BRANCH   7  10
ATOM     10  C   UNL     1     -10.795  10.339  19.155  0.00  0.00    +0.181 C 
BRANCH  10   2
ATOM      2  O   UNL     1      -9.592   9.693  18.789  0.00  0.00    -0.393 OA
ATOM     28  H   UNL     1      -9.475   9.823  17.832  0.00  0.00    +0.209 HD
ENDBRANCH  10   2
ENDBRANCH   7  10
ENDBRANCH   9   8
BRANCH  18   6
ATOM      4  O   UNL     1     -15.649   4.392  21.757  0.00  0.00    -0.275 OA
ATOM      6  N   UNL     1     -14.058   5.905  22.608  0.00  0.00    -0.285 N 
ATOM     20  C   UNL     1     -15.028   4.897  22.688  0.00  0.00    +0.218 C 
ATOM     29  H   UNL     1     -13.657   6.220  23.490  0.00  0.00    +0.155 HD
BRANCH  20  19
ATOM     19  C   UNL     1     -15.304   4.464  24.119  0.00  0.00    +0.101 C 
BRANCH  19  21
ATOM     21  C   UNL     1     -16.152   3.192  24.171  0.00  0.00    +0.044 C 
BRANCH  21  22
ATOM     22  C   UNL     1     -16.350   2.660  25.569  0.00  0.00    -0.047 A 
ATOM     23  C   UNL     1     -16.064   3.468  26.670  0.00  0.00    +0.003 A 
ATOM     24  C   UNL     1     -16.820   1.361  25.761  0.00  0.00    +0.003 A 
ATOM     25  C   UNL     1     -16.247   2.977  27.962  0.00  0.00    +0.000 A 
ATOM     26  C   UNL     1     -17.003   0.870  27.053  0.00  0.00    +0.000 A 
ATOM     27  C   UNL     1     -16.717   1.678  28.154  0.00  0.00    +0.000 A 
ENDBRANCH  21  22
ENDBRANCH  19  21
ENDBRANCH  20  19
ENDBRANCH  18   6
TORSDOF 7
ENDMDL
MODEL 9
REMARK VINA RESULT:      -6.5     28.962     32.143
REMARK  Name = 71693633
REMARK  8 active torsions:
REMARK  status: ('A' for Active; 'I' for Inactive)
REMARK    1  A    between atoms: O_2  and  C_10
REMARK    2  A    between atoms: N_5  and  C_13
REMARK    3  A    between atoms: N_6  and  C_18
REMARK    4  A    between atoms: C_7  and  C_10
REMARK    5  A    between atoms: C_8  and  C_9
REMARK    6  A    between atoms: C_19  and  C_20
REMARK    7  A    between atoms: C_19  and  C_21
REMARK    8  A    between atoms: C_21  and  C_22
REMARK                            x       y       z     vdW  Elec       q    Type
REMARK                         _______ _______ _______ _____ _____    ______ ____
ROOT
ATOM      9  C   UNL     1     -11.413  -4.853   9.563  0.00  0.00    -0.017 A 
ATOM     14  C   UNL     1     -11.535  -6.238   9.681  0.00  0.00    +0.008 A 
ATOM     15  C   UNL     1     -10.260  -4.299   9.006  0.00  0.00    +0.008 A 
ATOM     16  C   UNL     1     -10.503  -7.068   9.241  0.00  0.00    +0.023 A 
ATOM     17  C   UNL     1      -9.230  -5.130   8.567  0.00  0.00    +0.023 A 
ATOM     18  C   UNL     1      -9.351  -6.514   8.684  0.00  0.00    +0.033 A 
ENDROOT
BRANCH   9   8
ATOM      1  O   UNL     1     -13.541  -3.966   9.028  0.00  0.00    -0.361 OA
ATOM      3  O   UNL     1     -16.256  -2.470  10.785  0.00  0.00    -0.273 OA
ATOM      5  N   UNL     1     -14.420  -3.625  11.639  0.00  0.00    -0.295 N 
ATOM      7  C   UNL     1     -13.182  -4.396  11.364  0.00  0.00    +0.134 C 
ATOM      8  C   UNL     1     -12.532  -3.952  10.039  0.00  0.00    +0.171 C 
ATOM     11  C   UNL     1     -14.499  -2.963   9.262  0.00  0.00    +0.256 C 
ATOM     12  C   UNL     1     -15.158  -3.011  10.626  0.00  0.00    +0.242 C 
ATOM     13  C   UNL     1     -15.007  -3.720  12.973  0.00  0.00    +0.132 C 
BRANCH   7  10
ATOM     10  C   UNL     1     -12.170  -4.312  12.516  0.00  0.00    +0.181 C 
BRANCH  10   2
ATOM      2  O   UNL     1     -11.848  -2.952  12.724  0.00  0.00    -0.393 OA
ATOM     28  H   UNL     1     -11.179  -2.918  13.428  0.00  0.00    +0.209 HD
ENDBRANCH  10   2
ENDBRANCH   7  10
ENDBRANCH   9   8
BRANCH  18   6
ATOM      4  O   UNL     1      -7.866  -8.704  10.112  0.00  0.00    -0.275 OA
ATOM      6  N   UNL     1      -8.320  -7.345   8.244  0.00  0.00    -0.285 N 
ATOM     20  C   UNL     1      -7.668  -8.365   8.949  0.00  0.00    +0.218 C 
ATOM     29  H   UNL     1      -8.013  -7.186   7.286  0.00  0.00    +0.155 HD
BRANCH  20  19
ATOM     19  C   UNL     1      -6.591  -9.049   8.122  0.00  0.00    +0.101 C 
BRANCH  19  21
ATOM     21  C   UNL     1      -6.179 -10.391   8.731  0.00  0.00    +0.044 C 
BRANCH  21  22
ATOM     22  C   UNL     1      -4.910 -10.316   9.545  0.00  0.00    -0.047 A 
ATOM     23  C   UNL     1      -4.107  -9.176   9.481  0.00  0.00    +0.003 A 
ATOM     24  C   UNL     1      -4.541 -11.385  10.360  0.00  0.00    +0.003 A 
ATOM     25  C   UNL     1      -2.935  -9.107  10.234  0.00  0.00    +0.000 A 
ATOM     26  C   UNL     1      -3.369 -11.315  11.113  0.00  0.00    +0.000 A 
ATOM     27  C   UNL     1      -2.566 -10.176  11.050  0.00  0.00    +0.000 A 
ENDBRANCH  21  22
ENDBRANCH  19  21
ENDBRANCH  20  19
ENDBRANCH  18   6
TORSDOF 7
ENDMDL
MODEL 10
REMARK VINA RESULT:      -6.3     28.055     30.653
REMARK  Name = 71693633
REMARK  8 active torsions:
REMARK  status: ('A' for Active; 'I' for Inactive)
REMARK    1  A    between atoms: O_2  and  C_10
REMARK    2  A    between atoms: N_5  and  C_13
REMARK    3  A    between atoms: N_6  and  C_18
REMARK    4  A    between atoms: C_7  and  C_10
REMARK    5  A    between atoms: C_8  and  C_9
REMARK    6  A    between atoms: C_19  and  C_20
REMARK    7  A    between atoms: C_19  and  C_21
REMARK    8  A    between atoms: C_21  and  C_22
REMARK                            x       y       z     vdW  Elec       q    Type
REMARK                         _______ _______ _______ _____ _____    ______ ____
ROOT
ATOM      9  C   UNL     1      -4.801 -10.588   8.719  0.00  0.00    -0.017 A 
ATOM     14  C   UNL     1      -5.274 -11.609   9.544  0.00  0.00    +0.008 A 
ATOM     15  C   UNL     1      -4.093  -9.519   9.267  0.00  0.00    +0.008 A 
ATOM     16  C   UNL     1      -5.039 -11.559  10.918  0.00  0.00    +0.023 A 
ATOM     17  C   UNL     1      -3.858  -9.470  10.641  0.00  0.00    +0.023 A 
ATOM     18  C   UNL     1      -4.331 -10.490  11.467  0.00  0.00    +0.033 A 
ENDROOT
BRANCH   9   8
ATOM      1  O   UNL     1      -4.361 -11.784   6.724  0.00  0.00    -0.361 OA
ATOM      3  O   UNL     1      -5.803 -12.055   3.477  0.00  0.00    -0.273 OA
ATOM      5  N   UNL     1      -6.695 -11.080   5.397  0.00  0.00    -0.295 N 
ATOM      7  C   UNL     1      -6.541 -10.782   6.843  0.00  0.00    +0.134 C 
ATOM      8  C   UNL     1      -5.055 -10.641   7.227  0.00  0.00    +0.171 C 
ATOM     11  C   UNL     1      -4.327 -11.771   5.317  0.00  0.00    +0.256 C 
ATOM     12  C   UNL     1      -5.681 -11.672   4.644  0.00  0.00    +0.242 C 
ATOM     13  C   UNL     1      -8.029 -10.971   4.812  0.00  0.00    +0.132 C 
BRANCH   7  10
ATOM     10  C   UNL     1      -7.330  -9.537   7.274  0.00  0.00    +0.181 C 
BRANCH  10   2
ATOM      2  O   UNL     1      -6.679  -8.398   6.748  0.00  0.00    -0.393 OA
ATOM     28  H   UNL     1      -7.370  -7.799   6.416  0.00  0.00    +0.209 HD
ENDBRANCH  10   2
ENDBRANCH   7  10
ENDBRANCH   9   8
BRANCH  18   6
ATOM      4  O   UNL     1      -2.096 -11.657  13.105  0.00  0.00    -0.275 OA
ATOM      6  N   UNL     1      -4.095 -10.442  12.841  0.00  0.00    -0.285 N 
ATOM     20  C   UNL     1      -3.026 -10.994  13.557  0.00  0.00    +0.218 C 
ATOM     29  H   UNL     1      -4.792  -9.934  13.384  0.00  0.00    +0.155 HD
BRANCH  20  19
ATOM     19  C   UNL     1      -3.123 -10.726  15.050  0.00  0.00    +0.101 C 
BRANCH  19  21
ATOM     21  C   UNL     1      -4.543 -10.335  15.463  0.00  0.00    +0.044 C 
BRANCH  21  22
ATOM     22  C   UNL     1      -4.880 -10.712  16.885  0.00  0.00    -0.047 A 
ATOM     23  C   UNL     1      -3.965 -11.437  17.649  0.00  0.00    +0.003 A 
ATOM     24  C   UNL     1      -6.104 -10.334  17.435  0.00  0.00    +0.003 A 
ATOM     25  C   UNL     1      -4.276 -11.784  18.964  0.00  0.00    +0.000 A 
ATOM     26  C   UNL     1      -6.414 -10.681  18.750  0.00  0.00    +0.000 A 
ATOM     27  C   UNL     1      -5.500 -11.406  19.514  0.00  0.00    +0.000 A 
ENDBRANCH  21  22
ENDBRANCH  19  21
ENDBRANCH  20  19
ENDBRANCH  18   6
TORSDOF 7
ENDMDL
