REMARK  Name = 40776854
REMARK  7 active torsions:
REMARK  status: ('A' for Active; 'I' for Inactive)
REMARK    1  A    between atoms: N_6  and  C_16
REMARK    2  A    between atoms: N_7  and  C_17
REMARK    3  A    between atoms: N_8  and  C_23
REMARK    4  A    between atoms: C_10  and  C_16
REMARK    5  A    between atoms: C_11  and  C_17
REMARK    6  A    between atoms: C_22  and  C_24
REMARK    7  A    between atoms: C_34  and  C_35
REMARK                            x       y       z     vdW  Elec       q    Type
REMARK                         _______ _______ _______ _____ _____    ______ ____
ROOT
ATOM      5  N   UNL     1      -0.376  -4.128   0.038  0.00  0.00    -0.298 NA
ATOM      9  C   UNL     1       1.054  -2.254  -1.062  0.00  0.00    -0.003 C 
ATOM     10  C   UNL     1       1.777  -2.849   0.168  0.00  0.00    +0.020 C 
ATOM     11  C   UNL     1      -1.190  -2.893  -0.122  0.00  0.00    +0.074 C 
ATOM     12  C   UNL     1      -0.325  -1.720  -0.634  0.00  0.00    +0.024 C 
ATOM     13  C   UNL     1       0.825  -3.850   0.862  0.00  0.00    +0.089 C 
ATOM     14  C   UNL     1       0.810  -3.416  -2.043  0.00  0.00    +0.019 C 
ATOM     15  C   UNL     1       0.077  -4.554  -1.309  0.00  0.00    +0.085 C 
ENDROOT
BRANCH  10  16
ATOM     16  C   UNL     1       2.284  -1.788   1.141  0.00  0.00    +0.089 C 
BRANCH  16   6
ATOM      6  N   UNL     1       3.187  -0.851   0.472  0.00  0.00    -0.299 NA
ATOM      8  N   UNL     1       5.465   0.854   0.232  0.00  0.00    -0.327 N 
ATOM     18  C   UNL     1       4.535  -1.422   0.364  0.00  0.00    +0.103 C 
ATOM     19  C   UNL     1       3.240   0.422   1.201  0.00  0.00    +0.103 C 
ATOM     20  C   UNL     1       5.475  -0.475  -0.385  0.00  0.00    +0.120 C 
ATOM     21  C   UNL     1       4.137   1.430   0.479  0.00  0.00    +0.120 C 
BRANCH   8  23
ATOM     23  C   UNL     1       6.531   1.732   0.007  0.00  0.00    +0.030 A 
ATOM     25  C   UNL     1       7.240   1.675  -1.193  0.00  0.00    +0.023 A 
ATOM     26  C   UNL     1       6.882   2.668   0.980  0.00  0.00    +0.023 A 
ATOM     29  C   UNL     1       8.301   2.552  -1.420  0.00  0.00    +0.002 A 
ATOM     30  C   UNL     1       7.942   3.546   0.753  0.00  0.00    +0.002 A 
ATOM     31  C   UNL     1       8.652   3.488  -0.446  0.00  0.00    +0.000 A 
ENDBRANCH   8  23
ENDBRANCH  16   6
ENDBRANCH  10  16
BRANCH  11  17
ATOM     17  C   UNL     1      -1.949  -2.526   1.155  0.00  0.00    +0.123 C 
BRANCH  17   7
ATOM      4  O   UNL     1      -4.686  -2.632   0.294  0.00  0.00    -0.270 OA
ATOM      7  N   UNL     1      -2.817  -1.412   0.930  0.00  0.00    -0.310 N 
ATOM     22  C   UNL     1      -4.139  -1.554   0.510  0.00  0.00    +0.244 C 
ATOM     36  H   UNL     1      -2.410  -0.488   1.032  0.00  0.00    +0.149 HD
BRANCH  22  24
ATOM     24  C   UNL     1      -4.902  -0.298   0.295  0.00  0.00    +0.037 A 
ATOM     27  C   UNL     1      -5.960  -0.270  -0.613  0.00  0.00    +0.013 A 
ATOM     28  C   UNL     1      -4.560   0.855   1.003  0.00  0.00    +0.013 A 
ATOM     32  C   UNL     1      -6.675   0.910  -0.815  0.00  0.00    +0.013 A 
ATOM     33  C   UNL     1      -5.275   2.035   0.801  0.00  0.00    +0.013 A 
ATOM     34  C   UNL     1      -6.333   2.063  -0.108  0.00  0.00    +0.055 A 
BRANCH  34  35
ATOM      1  F   UNL     1      -7.704   3.797   0.805  0.00  0.00    -0.166 F 
ATOM      2  F   UNL     1      -8.097   3.182  -1.242  0.00  0.00    -0.166 F 
ATOM      3  F   UNL     1      -6.330   4.359  -0.776  0.00  0.00    -0.166 F 
ATOM     35  C   UNL     1      -7.098   3.325  -0.324  0.00  0.00    +0.417 C 
ENDBRANCH  34  35
ENDBRANCH  22  24
ENDBRANCH  17   7
ENDBRANCH  11  17
TORSDOF 7
