MODEL 1
REMARK VINA RESULT:      -7.5      0.000      0.000
REMARK  Name = 45361559
REMARK  9 active torsions:
REMARK  status: ('A' for Active; 'I' for Inactive)
REMARK    1  A    between atoms: O_1  and  C_10
REMARK    2  A    between atoms: N_4  and  C_14
REMARK    3  A    between atoms: N_5  and  C_23
REMARK    4  A    between atoms: C_7  and  C_17
REMARK    5  A    between atoms: C_9  and  C_19
REMARK    6  A    between atoms: C_12  and  C_18
REMARK    7  A    between atoms: C_18  and  C_20
REMARK    8  A    between atoms: C_18  and  C_21
REMARK    9  A    between atoms: C_22  and  C_26
REMARK                            x       y       z     vdW  Elec       q    Type
REMARK                         _______ _______ _______ _____ _____    ______ ____
ROOT
ATOM      7  C   UNL     1     -16.036   6.984  22.605  0.00  0.00    -0.027 C 
ATOM      8  C   UNL     1     -14.642   6.300  22.802  0.00  0.00    +0.028 C 
ATOM      9  C   UNL     1     -13.735   6.503  21.536  0.00  0.00    +0.012 C 
ATOM     10  C   UNL     1     -14.798   4.830  23.284  0.00  0.00    +0.122 C 
ATOM     11  C   UNL     1     -16.859   6.864  23.909  0.00  0.00    +0.007 C 
ATOM     12  C   UNL     1     -15.709   4.705  24.528  0.00  0.00    +0.029 C 
ATOM     13  C   UNL     1     -15.823   8.489  22.318  0.00  0.00    +0.009 C 
ATOM     14  C   UNL     1     -13.590   8.018  21.214  0.00  0.00    +0.076 C 
ATOM     15  C   UNL     1     -17.049   5.423  24.361  0.00  0.00    +0.007 C 
ATOM     16  C   UNL     1     -14.929   8.748  21.115  0.00  0.00    +0.023 C 
ATOM     17  C   UNL     1     -16.847   6.354  21.443  0.00  0.00    +0.011 C 
ATOM     19  C   UNL     1     -12.336   5.879  21.674  0.00  0.00    +0.010 C 
ENDROOT
BRANCH  14   4
ATOM      3  O   UNL     1     -11.713  10.125  20.690  0.00  0.00    -0.270 OA
ATOM      4  N   UNL     1     -12.856   8.236  19.985  0.00  0.00    -0.308 N 
ATOM     22  C   UNL     1     -11.969   9.287  19.829  0.00  0.00    +0.244 C 
ATOM     34  H   UNL     1     -13.101   7.649  19.193  0.00  0.00    +0.149 HD
BRANCH  22  26
ATOM      6  N   UNL     1     -10.082   9.583  15.999  0.00  0.00    -0.263 NA
ATOM     26  C   UNL     1     -11.316   9.390  18.500  0.00  0.00    +0.040 A 
ATOM     30  C   UNL     1     -11.338   8.309  17.625  0.00  0.00    +0.033 A 
ATOM     31  C   UNL     1     -10.678  10.568  18.125  0.00  0.00    +0.033 A 
ATOM     32  C   UNL     1     -10.712   8.454  16.398  0.00  0.00    +0.111 A 
ATOM     33  C   UNL     1     -10.082  10.612  16.875  0.00  0.00    +0.111 A 
ENDBRANCH  22  26
ENDBRANCH  14   4
BRANCH  10   1
ATOM      1  O   UNL     1     -13.521   4.311  23.659  0.00  0.00    -0.391 OA
ATOM     35  H   UNL     1     -13.646   3.731  24.429  0.00  0.00    +0.210 HD
ENDBRANCH  10   1
BRANCH  12  18
ATOM     18  C   UNL     1     -15.957   3.240  24.908  0.00  0.00    +0.077 C 
ATOM     20  C   UNL     1     -16.716   2.530  23.792  0.00  0.00    +0.017 C 
BRANCH  18  21
ATOM      2  O   UNL     1     -17.934   3.038  26.291  0.00  0.00    -0.276 OA
ATOM      5  N   UNL     1     -15.872   3.261  27.330  0.00  0.00    -0.312 N 
ATOM     21  C   UNL     1     -16.713   3.166  26.230  0.00  0.00    +0.216 C 
ATOM     36  H   UNL     1     -14.872   3.346  27.187  0.00  0.00    +0.149 HD
BRANCH   5  23
ATOM     23  C   UNL     1     -16.358   3.218  28.691  0.00  0.00    +0.073 C 
ATOM     24  C   UNL     1     -16.775   1.796  29.082  0.00  0.00    +0.022 C 
ATOM     25  C   UNL     1     -15.316   3.779  29.665  0.00  0.00    +0.022 C 
ATOM     27  C   UNL     1     -15.578   0.864  29.264  0.00  0.00    +0.002 C 
ATOM     28  C   UNL     1     -14.121   2.843  29.847  0.00  0.00    +0.002 C 
ATOM     29  C   UNL     1     -14.561   1.438  30.247  0.00  0.00    +0.000 C 
ENDBRANCH   5  23
ENDBRANCH  18  21
ENDBRANCH  12  18
TORSDOF 6
ENDMDL
MODEL 2
REMARK VINA RESULT:      -7.3      2.143     10.964
REMARK  Name = 45361559
REMARK  9 active torsions:
REMARK  status: ('A' for Active; 'I' for Inactive)
REMARK    1  A    between atoms: O_1  and  C_10
REMARK    2  A    between atoms: N_4  and  C_14
REMARK    3  A    between atoms: N_5  and  C_23
REMARK    4  A    between atoms: C_7  and  C_17
REMARK    5  A    between atoms: C_9  and  C_19
REMARK    6  A    between atoms: C_12  and  C_18
REMARK    7  A    between atoms: C_18  and  C_20
REMARK    8  A    between atoms: C_18  and  C_21
REMARK    9  A    between atoms: C_22  and  C_26
REMARK                            x       y       z     vdW  Elec       q    Type
REMARK                         _______ _______ _______ _____ _____    ______ ____
ROOT
ATOM      7  C   UNL     1     -15.072   7.498  20.642  0.00  0.00    -0.027 C 
ATOM      8  C   UNL     1     -13.849   6.599  21.023  0.00  0.00    +0.028 C 
ATOM      9  C   UNL     1     -14.103   5.857  22.384  0.00  0.00    +0.012 C 
ATOM     10  C   UNL     1     -12.515   7.394  20.934  0.00  0.00    +0.122 C 
ATOM     11  C   UNL     1     -14.837   8.123  19.246  0.00  0.00    +0.007 C 
ATOM     12  C   UNL     1     -12.335   8.104  19.572  0.00  0.00    +0.029 C 
ATOM     13  C   UNL     1     -16.339   6.616  20.556  0.00  0.00    +0.009 C 
ATOM     14  C   UNL     1     -15.420   5.033  22.311  0.00  0.00    +0.076 C 
ATOM     15  C   UNL     1     -13.553   8.936  19.168  0.00  0.00    +0.007 C 
ATOM     16  C   UNL     1     -16.622   5.850  21.840  0.00  0.00    +0.023 C 
ATOM     17  C   UNL     1     -15.312   8.638  21.664  0.00  0.00    +0.011 C 
ATOM     19  C   UNL     1     -12.950   4.931  22.806  0.00  0.00    +0.010 C 
ENDROOT
BRANCH  14   4
ATOM      3  O   UNL     1     -16.486   2.402  22.739  0.00  0.00    -0.270 OA
ATOM      4  N   UNL     1     -15.745   4.429  23.586  0.00  0.00    -0.308 N 
ATOM     22  C   UNL     1     -16.258   3.148  23.688  0.00  0.00    +0.244 C 
ATOM     34  H   UNL     1     -15.689   5.026  24.404  0.00  0.00    +0.149 HD
BRANCH  22  26
ATOM      6  N   UNL     1     -17.142   1.806  27.656  0.00  0.00    -0.263 NA
ATOM     26  C   UNL     1     -16.566   2.683  25.065  0.00  0.00    +0.040 A 
ATOM     30  C   UNL     1     -16.340   3.520  26.152  0.00  0.00    +0.033 A 
ATOM     31  C   UNL     1     -17.081   1.407  25.272  0.00  0.00    +0.033 A 
ATOM     32  C   UNL     1     -16.640   3.039  27.415  0.00  0.00    +0.111 A 
ATOM     33  C   UNL     1     -17.349   1.021  26.575  0.00  0.00    +0.111 A 
ENDBRANCH  22  26
ENDBRANCH  14   4
BRANCH  10   1
ATOM      1  O   UNL     1     -11.413   6.496  21.075  0.00  0.00    -0.391 OA
ATOM     35  H   UNL     1     -11.093   6.552  21.991  0.00  0.00    +0.210 HD
ENDBRANCH  10   1
BRANCH  12  18
ATOM     18  C   UNL     1     -11.081   8.987  19.550  0.00  0.00    +0.077 C 
ATOM     20  C   UNL     1     -11.364  10.316  20.242  0.00  0.00    +0.017 C 
BRANCH  18  21
ATOM      2  O   UNL     1     -10.410   8.264  17.340  0.00  0.00    -0.276 OA
ATOM      5  N   UNL     1     -10.456  10.537  17.796  0.00  0.00    -0.312 N 
ATOM     21  C   UNL     1     -10.616   9.196  18.113  0.00  0.00    +0.216 C 
ATOM     36  H   UNL     1     -10.667  11.243  18.492  0.00  0.00    +0.149 HD
BRANCH   5  23
ATOM     23  C   UNL     1     -10.020  10.985  16.492  0.00  0.00    +0.073 C 
ATOM     24  C   UNL     1     -11.211  11.155  15.542  0.00  0.00    +0.022 C 
ATOM     25  C   UNL     1      -9.205  12.279  16.598  0.00  0.00    +0.022 C 
ATOM     27  C   UNL     1     -12.074  12.366  15.895  0.00  0.00    +0.002 C 
ATOM     28  C   UNL     1     -10.072  13.489  16.949  0.00  0.00    +0.002 C 
ATOM     29  C   UNL     1     -11.243  13.642  15.983  0.00  0.00    +0.000 C 
ENDBRANCH   5  23
ENDBRANCH  18  21
ENDBRANCH  12  18
TORSDOF 6
ENDMDL
MODEL 3
REMARK VINA RESULT:      -7.3     18.516     21.918
REMARK  Name = 45361559
REMARK  9 active torsions:
REMARK  status: ('A' for Active; 'I' for Inactive)
REMARK    1  A    between atoms: O_1  and  C_10
REMARK    2  A    between atoms: N_4  and  C_14
REMARK    3  A    between atoms: N_5  and  C_23
REMARK    4  A    between atoms: C_7  and  C_17
REMARK    5  A    between atoms: C_9  and  C_19
REMARK    6  A    between atoms: C_12  and  C_18
REMARK    7  A    between atoms: C_18  and  C_20
REMARK    8  A    between atoms: C_18  and  C_21
REMARK    9  A    between atoms: C_22  and  C_26
REMARK                            x       y       z     vdW  Elec       q    Type
REMARK                         _______ _______ _______ _____ _____    ______ ____
ROOT
ATOM      7  C   UNL     1      -4.832 -11.069  16.960  0.00  0.00    -0.027 C 
ATOM      8  C   UNL     1      -5.674 -10.452  15.795  0.00  0.00    +0.028 C 
ATOM      9  C   UNL     1      -7.212 -10.573  16.091  0.00  0.00    +0.012 C 
ATOM     10  C   UNL     1      -5.215 -11.002  14.414  0.00  0.00    +0.122 C 
ATOM     11  C   UNL     1      -3.327 -10.833  16.691  0.00  0.00    +0.007 C 
ATOM     12  C   UNL     1      -3.691 -10.857  14.194  0.00  0.00    +0.029 C 
ATOM     13  C   UNL     1      -5.194 -10.349  18.280  0.00  0.00    +0.009 C 
ATOM     14  C   UNL     1      -7.551  -9.910  17.457  0.00  0.00    +0.076 C 
ATOM     15  C   UNL     1      -2.865 -11.406  15.359  0.00  0.00    +0.007 C 
ATOM     16  C   UNL     1      -6.679 -10.410  18.607  0.00  0.00    +0.023 C 
ATOM     17  C   UNL     1      -5.076 -12.591  17.127  0.00  0.00    +0.011 C 
ATOM     19  C   UNL     1      -8.101  -9.957  14.996  0.00  0.00    +0.010 C 
ENDROOT
BRANCH  14   4
ATOM      3  O   UNL     1      -9.595  -7.896  17.548  0.00  0.00    -0.270 OA
ATOM      4  N   UNL     1      -8.941 -10.104  17.816  0.00  0.00    -0.308 N 
ATOM     22  C   UNL     1      -9.853  -9.064  17.831  0.00  0.00    +0.244 C 
ATOM     34  H   UNL     1      -9.200 -11.019  18.169  0.00  0.00    +0.149 HD
BRANCH  22  26
ATOM      6  N   UNL     1     -13.830 -10.097  19.031  0.00  0.00    -0.263 NA
ATOM     26  C   UNL     1     -11.233  -9.421  18.248  0.00  0.00    +0.040 A 
ATOM     30  C   UNL     1     -11.460 -10.000  19.492  0.00  0.00    +0.033 A 
ATOM     31  C   UNL     1     -12.305  -9.179  17.395  0.00  0.00    +0.033 A 
ATOM     32  C   UNL     1     -12.764 -10.317  19.833  0.00  0.00    +0.111 A 
ATOM     33  C   UNL     1     -13.572  -9.532  17.830  0.00  0.00    +0.111 A 
ENDBRANCH  22  26
ENDBRANCH  14   4
BRANCH  10   1
ATOM      1  O   UNL     1      -5.850 -10.262  13.370  0.00  0.00    -0.391 OA
ATOM     35  H   UNL     1      -6.663  -9.870  13.729  0.00  0.00    +0.210 HD
ENDBRANCH  10   1
BRANCH  12  18
ATOM     18  C   UNL     1      -3.238 -11.522  12.888  0.00  0.00    +0.077 C 
ATOM     20  C   UNL     1      -2.006 -12.385  13.138  0.00  0.00    +0.017 C 
BRANCH  18  21
ATOM      2  O   UNL     1      -1.843 -10.015  11.605  0.00  0.00    -0.276 OA
ATOM      5  N   UNL     1      -4.120 -10.060  11.167  0.00  0.00    -0.312 N 
ATOM     21  C   UNL     1      -2.967 -10.458  11.829  0.00  0.00    +0.216 C 
ATOM     36  H   UNL     1      -5.005 -10.494  11.404  0.00  0.00    +0.149 HD
BRANCH   5  23
ATOM     23  C   UNL     1      -4.116  -9.061  10.123  0.00  0.00    +0.073 C 
ATOM     24  C   UNL     1      -4.159  -9.714   8.737  0.00  0.00    +0.022 C 
ATOM     25  C   UNL     1      -5.270  -8.069  10.306  0.00  0.00    +0.022 C 
ATOM     27  C   UNL     1      -5.521 -10.331   8.423  0.00  0.00    +0.002 C 
ATOM     28  C   UNL     1      -6.631  -8.688   9.988  0.00  0.00    +0.002 C 
ATOM     29  C   UNL     1      -6.651  -9.321   8.600  0.00  0.00    +0.000 C 
ENDBRANCH   5  23
ENDBRANCH  18  21
ENDBRANCH  12  18
TORSDOF 6
ENDMDL
MODEL 4
REMARK VINA RESULT:      -7.1     27.166     32.442
REMARK  Name = 45361559
REMARK  9 active torsions:
REMARK  status: ('A' for Active; 'I' for Inactive)
REMARK    1  A    between atoms: O_1  and  C_10
REMARK    2  A    between atoms: N_4  and  C_14
REMARK    3  A    between atoms: N_5  and  C_23
REMARK    4  A    between atoms: C_7  and  C_17
REMARK    5  A    between atoms: C_9  and  C_19
REMARK    6  A    between atoms: C_12  and  C_18
REMARK    7  A    between atoms: C_18  and  C_20
REMARK    8  A    between atoms: C_18  and  C_21
REMARK    9  A    between atoms: C_22  and  C_26
REMARK                            x       y       z     vdW  Elec       q    Type
REMARK                         _______ _______ _______ _____ _____    ______ ____
ROOT
ATOM      7  C   UNL     1       9.556   6.028   5.779  0.00  0.00    -0.027 C 
ATOM      8  C   UNL     1      10.473   7.230   5.376  0.00  0.00    +0.028 C 
ATOM      9  C   UNL     1       9.934   8.575   5.984  0.00  0.00    +0.012 C 
ATOM     10  C   UNL     1      10.737   7.248   3.843  0.00  0.00    +0.122 C 
ATOM     11  C   UNL     1      10.176   4.709   5.262  0.00  0.00    +0.007 C 
ATOM     12  C   UNL     1      11.259   5.892   3.313  0.00  0.00    +0.029 C 
ATOM     13  C   UNL     1       9.487   5.943   7.322  0.00  0.00    +0.009 C 
ATOM     14  C   UNL     1       9.797   8.450   7.528  0.00  0.00    +0.076 C 
ATOM     15  C   UNL     1      10.398   4.708   3.755  0.00  0.00    +0.007 C 
ATOM     16  C   UNL     1       8.995   7.228   7.970  0.00  0.00    +0.023 C 
ATOM     17  C   UNL     1       8.120   6.161   5.211  0.00  0.00    +0.011 C 
ATOM     19  C   UNL     1      10.807   9.796   5.649  0.00  0.00    +0.010 C 
ENDROOT
BRANCH  14   4
ATOM      3  O   UNL     1      11.130  10.479   9.062  0.00  0.00    -0.270 OA
ATOM      4  N   UNL     1       9.194   9.632   8.109  0.00  0.00    -0.308 N 
ATOM     22  C   UNL     1       9.925  10.555   8.836  0.00  0.00    +0.244 C 
ATOM     34  H   UNL     1       8.183   9.703   8.058  0.00  0.00    +0.149 HD
BRANCH  22  26
ATOM      6  N   UNL     1       7.700  13.847  10.428  0.00  0.00    -0.263 NA
ATOM     26  C   UNL     1       9.154  11.698   9.389  0.00  0.00    +0.040 A 
ATOM     30  C   UNL     1       8.799  11.716  10.733  0.00  0.00    +0.033 A 
ATOM     31  C   UNL     1       8.783  12.754   8.563  0.00  0.00    +0.033 A 
ATOM     32  C   UNL     1       8.078  12.803  11.199  0.00  0.00    +0.111 A 
ATOM     33  C   UNL     1       8.063  13.795   9.126  0.00  0.00    +0.111 A 
ENDBRANCH  22  26
ENDBRANCH  14   4
BRANCH  10   1
ATOM      1  O   UNL     1      11.742   8.218   3.542  0.00  0.00    -0.391 OA
ATOM     35  H   UNL     1      12.241   7.905   2.769  0.00  0.00    +0.210 HD
ENDBRANCH  10   1
BRANCH  12  18
ATOM     18  C   UNL     1      11.387   5.889   1.785  0.00  0.00    +0.077 C 
ATOM     20  C   UNL     1      10.049   5.532   1.146  0.00  0.00    +0.017 C 
BRANCH  18  21
ATOM      2  O   UNL     1      13.480   4.699   2.041  0.00  0.00    -0.276 OA
ATOM      5  N   UNL     1      12.223   4.332   0.126  0.00  0.00    -0.312 N 
ATOM     21  C   UNL     1      12.483   4.919   1.357  0.00  0.00    +0.216 C 
ATOM     36  H   UNL     1      11.364   4.558  -0.363  0.00  0.00    +0.149 HD
BRANCH   5  23
ATOM     23  C   UNL     1      13.119   3.379  -0.490  0.00  0.00    +0.073 C 
ATOM     24  C   UNL     1      12.371   2.486  -1.487  0.00  0.00    +0.022 C 
ATOM     25  C   UNL     1      14.302   4.087  -1.159  0.00  0.00    +0.022 C 
ATOM     27  C   UNL     1      11.967   3.235  -2.756  0.00  0.00    +0.002 C 
ATOM     28  C   UNL     1      13.896   4.834  -2.429  0.00  0.00    +0.002 C 
ATOM     29  C   UNL     1      13.164   3.922  -3.408  0.00  0.00    +0.000 C 
ENDBRANCH   5  23
ENDBRANCH  18  21
ENDBRANCH  12  18
TORSDOF 6
ENDMDL
MODEL 5
REMARK VINA RESULT:      -7.0     31.244     35.177
REMARK  Name = 45361559
REMARK  9 active torsions:
REMARK  status: ('A' for Active; 'I' for Inactive)
REMARK    1  A    between atoms: O_1  and  C_10
REMARK    2  A    between atoms: N_4  and  C_14
REMARK    3  A    between atoms: N_5  and  C_23
REMARK    4  A    between atoms: C_7  and  C_17
REMARK    5  A    between atoms: C_9  and  C_19
REMARK    6  A    between atoms: C_12  and  C_18
REMARK    7  A    between atoms: C_18  and  C_20
REMARK    8  A    between atoms: C_18  and  C_21
REMARK    9  A    between atoms: C_22  and  C_26
REMARK                            x       y       z     vdW  Elec       q    Type
REMARK                         _______ _______ _______ _____ _____    ______ ____
ROOT
ATOM      7  C   UNL     1      20.049   7.604  21.809  0.00  0.00    -0.027 C 
ATOM      8  C   UNL     1      19.598   6.630  20.671  0.00  0.00    +0.028 C 
ATOM      9  C   UNL     1      18.040   6.431  20.689  0.00  0.00    +0.012 C 
ATOM     10  C   UNL     1      20.439   5.321  20.683  0.00  0.00    +0.122 C 
ATOM     11  C   UNL     1      21.569   7.866  21.692  0.00  0.00    +0.007 C 
ATOM     12  C   UNL     1      21.961   5.592  20.672  0.00  0.00    +0.029 C 
ATOM     13  C   UNL     1      19.322   8.958  21.631  0.00  0.00    +0.009 C 
ATOM     14  C   UNL     1      17.321   7.806  20.585  0.00  0.00    +0.076 C 
ATOM     15  C   UNL     1      22.397   6.590  21.745  0.00  0.00    +0.007 C 
ATOM     16  C   UNL     1      17.807   8.825  21.614  0.00  0.00    +0.023 C 
ATOM     17  C   UNL     1      19.746   7.046  23.223  0.00  0.00    +0.011 C 
ATOM     19  C   UNL     1      17.524   5.505  19.575  0.00  0.00    +0.010 C 
ENDROOT
BRANCH  14   4
ATOM      3  O   UNL     1      15.325   9.041  18.931  0.00  0.00    -0.270 OA
ATOM      4  N   UNL     1      15.885   7.670  20.715  0.00  0.00    -0.308 N 
ATOM     22  C   UNL     1      15.001   8.311  19.864  0.00  0.00    +0.244 C 
ATOM     34  H   UNL     1      15.543   7.173  21.530  0.00  0.00    +0.149 HD
BRANCH  22  26
ATOM      6  N   UNL     1      10.845   7.680  20.673  0.00  0.00    -0.263 NA
ATOM     26  C   UNL     1      13.559   8.092  20.146  0.00  0.00    +0.040 A 
ATOM     30  C   UNL     1      13.143   6.940  20.804  0.00  0.00    +0.033 A 
ATOM     31  C   UNL     1      12.620   9.039  19.752  0.00  0.00    +0.033 A 
ATOM     32  C   UNL     1      11.788   6.782  21.041  0.00  0.00    +0.111 A 
ATOM     33  C   UNL     1      11.287   8.788  20.037  0.00  0.00    +0.111 A 
ENDBRANCH  22  26
ENDBRANCH  14   4
BRANCH  10   1
ATOM      1  O   UNL     1      20.151   4.557  19.511  0.00  0.00    -0.391 OA
ATOM     35  H   UNL     1      19.991   5.176  18.779  0.00  0.00    +0.210 HD
ENDBRANCH  10   1
BRANCH  12  18
ATOM     18  C   UNL     1      22.772   4.298  20.817  0.00  0.00    +0.077 C 
ATOM     20  C   UNL     1      22.452   3.625  22.148  0.00  0.00    +0.017 C 
BRANCH  18  21
ATOM      2  O   UNL     1      24.733   5.230  19.747  0.00  0.00    -0.276 OA
ATOM      5  N   UNL     1      25.001   4.082  21.744  0.00  0.00    -0.312 N 
ATOM     21  C   UNL     1      24.261   4.599  20.690  0.00  0.00    +0.216 C 
ATOM     36  H   UNL     1      24.525   3.589  22.492  0.00  0.00    +0.149 HD
BRANCH   5  23
ATOM     23  C   UNL     1      26.434   4.237  21.844  0.00  0.00    +0.073 C 
ATOM     24  C   UNL     1      26.860   4.503  23.292  0.00  0.00    +0.022 C 
ATOM     25  C   UNL     1      27.162   3.018  21.266  0.00  0.00    +0.022 C 
ATOM     27  C   UNL     1      26.727   3.264  24.178  0.00  0.00    +0.002 C 
ATOM     28  C   UNL     1      27.029   1.781  22.155  0.00  0.00    +0.002 C 
ATOM     29  C   UNL     1      27.469   2.068  23.588  0.00  0.00    +0.000 C 
ENDBRANCH   5  23
ENDBRANCH  18  21
ENDBRANCH  12  18
TORSDOF 6
ENDMDL
MODEL 6
REMARK VINA RESULT:      -7.0     31.111     35.447
REMARK  Name = 45361559
REMARK  9 active torsions:
REMARK  status: ('A' for Active; 'I' for Inactive)
REMARK    1  A    between atoms: O_1  and  C_10
REMARK    2  A    between atoms: N_4  and  C_14
REMARK    3  A    between atoms: N_5  and  C_23
REMARK    4  A    between atoms: C_7  and  C_17
REMARK    5  A    between atoms: C_9  and  C_19
REMARK    6  A    between atoms: C_12  and  C_18
REMARK    7  A    between atoms: C_18  and  C_20
REMARK    8  A    between atoms: C_18  and  C_21
REMARK    9  A    between atoms: C_22  and  C_26
REMARK                            x       y       z     vdW  Elec       q    Type
REMARK                         _______ _______ _______ _____ _____    ______ ____
ROOT
ATOM      7  C   UNL     1      20.102   7.855  21.869  0.00  0.00    -0.027 C 
ATOM      8  C   UNL     1      19.695   6.841  20.749  0.00  0.00    +0.028 C 
ATOM      9  C   UNL     1      18.144   6.590  20.758  0.00  0.00    +0.012 C 
ATOM     10  C   UNL     1      20.579   5.562  20.797  0.00  0.00    +0.122 C 
ATOM     11  C   UNL     1      21.613   8.166  21.759  0.00  0.00    +0.007 C 
ATOM     12  C   UNL     1      22.091   5.884  20.793  0.00  0.00    +0.029 C 
ATOM     13  C   UNL     1      19.332   9.179  21.655  0.00  0.00    +0.009 C 
ATOM     14  C   UNL     1      17.380   7.938  20.617  0.00  0.00    +0.076 C 
ATOM     15  C   UNL     1      22.483   6.920  21.848  0.00  0.00    +0.007 C 
ATOM     16  C   UNL     1      17.822   8.995  21.628  0.00  0.00    +0.023 C 
ATOM     17  C   UNL     1      19.805   7.318  23.292  0.00  0.00    +0.011 C 
ATOM     19  C   UNL     1      17.670   5.623  19.660  0.00  0.00    +0.010 C 
ENDROOT
BRANCH  14   4
ATOM      3  O   UNL     1      15.355   9.144  18.978  0.00  0.00    -0.270 OA
ATOM      4  N   UNL     1      15.948   7.756  20.738  0.00  0.00    -0.308 N 
ATOM     22  C   UNL     1      15.049   8.386  19.895  0.00  0.00    +0.244 C 
ATOM     34  H   UNL     1      15.618   7.233  21.542  0.00  0.00    +0.149 HD
BRANCH  22  26
ATOM      6  N   UNL     1      10.911   7.615  20.673  0.00  0.00    -0.263 NA
ATOM     26  C   UNL     1      13.613   8.119  20.166  0.00  0.00    +0.040 A 
ATOM     30  C   UNL     1      13.229   6.941  20.797  0.00  0.00    +0.033 A 
ATOM     31  C   UNL     1      12.647   9.046  19.789  0.00  0.00    +0.033 A 
ATOM     32  C   UNL     1      11.878   6.738  21.025  0.00  0.00    +0.111 A 
ATOM     33  C   UNL     1      11.322   8.749  20.063  0.00  0.00    +0.111 A 
ENDBRANCH  22  26
ENDBRANCH  14   4
BRANCH  10   1
ATOM      1  O   UNL     1      20.328   4.764  19.640  0.00  0.00    -0.391 OA
ATOM     35  H   UNL     1      19.844   5.309  18.996  0.00  0.00    +0.210 HD
ENDBRANCH  10   1
BRANCH  12  18
ATOM     18  C   UNL     1      22.944   4.622  20.974  0.00  0.00    +0.077 C 
ATOM     20  C   UNL     1      22.362   3.751  22.082  0.00  0.00    +0.017 C 
BRANCH  18  21
ATOM      2  O   UNL     1      24.867   4.977  22.401  0.00  0.00    -0.276 OA
ATOM      5  N   UNL     1      25.081   5.390  20.129  0.00  0.00    -0.312 N 
ATOM     21  C   UNL     1      24.389   5.007  21.269  0.00  0.00    +0.216 C 
ATOM     36  H   UNL     1      24.613   5.368  19.230  0.00  0.00    +0.149 HD
BRANCH   5  23
ATOM     23  C   UNL     1      26.467   5.802  20.157  0.00  0.00    +0.073 C 
ATOM     24  C   UNL     1      27.390   4.656  19.729  0.00  0.00    +0.022 C 
ATOM     25  C   UNL     1      26.689   7.048  19.292  0.00  0.00    +0.022 C 
ATOM     27  C   UNL     1      27.297   4.358  18.233  0.00  0.00    +0.002 C 
ATOM     28  C   UNL     1      26.598   6.746  17.797  0.00  0.00    +0.002 C 
ATOM     29  C   UNL     1      27.533   5.610  17.393  0.00  0.00    +0.000 C 
ENDBRANCH   5  23
ENDBRANCH  18  21
ENDBRANCH  12  18
TORSDOF 6
ENDMDL
MODEL 7
REMARK VINA RESULT:      -7.0      3.721     11.962
REMARK  Name = 45361559
REMARK  9 active torsions:
REMARK  status: ('A' for Active; 'I' for Inactive)
REMARK    1  A    between atoms: O_1  and  C_10
REMARK    2  A    between atoms: N_4  and  C_14
REMARK    3  A    between atoms: N_5  and  C_23
REMARK    4  A    between atoms: C_7  and  C_17
REMARK    5  A    between atoms: C_9  and  C_19
REMARK    6  A    between atoms: C_12  and  C_18
REMARK    7  A    between atoms: C_18  and  C_20
REMARK    8  A    between atoms: C_18  and  C_21
REMARK    9  A    between atoms: C_22  and  C_26
REMARK                            x       y       z     vdW  Elec       q    Type
REMARK                         _______ _______ _______ _____ _____    ______ ____
ROOT
ATOM      7  C   UNL     1     -11.292   8.346  19.444  0.00  0.00    -0.027 C 
ATOM      8  C   UNL     1     -12.635   9.147  19.456  0.00  0.00    +0.028 C 
ATOM      9  C   UNL     1     -13.865   8.176  19.575  0.00  0.00    +0.012 C 
ATOM     10  C   UNL     1     -12.698  10.163  18.280  0.00  0.00    +0.122 C 
ATOM     11  C   UNL     1     -10.102   9.334  19.441  0.00  0.00    +0.007 C 
ATOM     12  C   UNL     1     -11.454  11.081  18.221  0.00  0.00    +0.029 C 
ATOM     13  C   UNL     1     -11.198   7.498  20.733  0.00  0.00    +0.009 C 
ATOM     14  C   UNL     1     -13.721   7.277  20.836  0.00  0.00    +0.076 C 
ATOM     15  C   UNL     1     -10.137  10.304  18.268  0.00  0.00    +0.007 C 
ATOM     16  C   UNL     1     -12.377   6.555  20.916  0.00  0.00    +0.023 C 
ATOM     17  C   UNL     1     -11.168   7.414  18.211  0.00  0.00    +0.011 C 
ATOM     19  C   UNL     1     -15.220   8.901  19.623  0.00  0.00    +0.010 C 
ENDROOT
BRANCH  14   4
ATOM      3  O   UNL     1     -15.277   6.610  23.154  0.00  0.00    -0.270 OA
ATOM      4  N   UNL     1     -14.779   6.291  20.913  0.00  0.00    -0.308 N 
ATOM     22  C   UNL     1     -15.473   6.040  22.084  0.00  0.00    +0.244 C 
ATOM     34  H   UNL     1     -14.919   5.703  20.097  0.00  0.00    +0.149 HD
BRANCH  22  26
ATOM      6  N   UNL     1     -18.461   2.983  21.863  0.00  0.00    -0.263 NA
ATOM     26  C   UNL     1     -16.509   4.979  22.006  0.00  0.00    +0.040 A 
ATOM     30  C   UNL     1     -17.383   4.933  20.926  0.00  0.00    +0.033 A 
ATOM     31  C   UNL     1     -16.609   4.026  23.015  0.00  0.00    +0.033 A 
ATOM     32  C   UNL     1     -18.333   3.926  20.901  0.00  0.00    +0.111 A 
ATOM     33  C   UNL     1     -17.593   3.059  22.897  0.00  0.00    +0.111 A 
ENDBRANCH  22  26
ENDBRANCH  14   4
BRANCH  10   1
ATOM      1  O   UNL     1     -13.829  11.020  18.448  0.00  0.00    -0.391 OA
ATOM     35  H   UNL     1     -13.840  11.328  19.370  0.00  0.00    +0.210 HD
ENDBRANCH  10   1
BRANCH  12  18
ATOM     18  C   UNL     1     -11.471  11.984  16.981  0.00  0.00    +0.077 C 
ATOM     20  C   UNL     1     -10.948  11.221  15.769  0.00  0.00    +0.017 C 
BRANCH  18  21
ATOM      2  O   UNL     1     -10.801  13.939  18.243  0.00  0.00    -0.276 OA
ATOM      5  N   UNL     1      -9.733  13.498  16.233  0.00  0.00    -0.312 N 
ATOM     21  C   UNL     1     -10.650  13.242  17.243  0.00  0.00    +0.216 C 
ATOM     36  H   UNL     1      -9.662  12.858  15.449  0.00  0.00    +0.149 HD
BRANCH   5  23
ATOM     23  C   UNL     1      -8.842  14.637  16.256  0.00  0.00    +0.073 C 
ATOM     24  C   UNL     1      -7.545  14.306  17.003  0.00  0.00    +0.022 C 
ATOM     25  C   UNL     1      -8.553  15.139  14.837  0.00  0.00    +0.022 C 
ATOM     27  C   UNL     1      -6.642  13.357  16.216  0.00  0.00    +0.002 C 
ATOM     28  C   UNL     1      -7.647  14.189  14.053  0.00  0.00    +0.002 C 
ATOM     29  C   UNL     1      -6.359  13.884  14.812  0.00  0.00    +0.000 C 
ENDBRANCH   5  23
ENDBRANCH  18  21
ENDBRANCH  12  18
TORSDOF 6
ENDMDL
MODEL 8
REMARK VINA RESULT:      -6.9     20.155     22.051
REMARK  Name = 45361559
REMARK  9 active torsions:
REMARK  status: ('A' for Active; 'I' for Inactive)
REMARK    1  A    between atoms: O_1  and  C_10
REMARK    2  A    between atoms: N_4  and  C_14
REMARK    3  A    between atoms: N_5  and  C_23
REMARK    4  A    between atoms: C_7  and  C_17
REMARK    5  A    between atoms: C_9  and  C_19
REMARK    6  A    between atoms: C_12  and  C_18
REMARK    7  A    between atoms: C_18  and  C_20
REMARK    8  A    between atoms: C_18  and  C_21
REMARK    9  A    between atoms: C_22  and  C_26
REMARK                            x       y       z     vdW  Elec       q    Type
REMARK                         _______ _______ _______ _____ _____    ______ ____
ROOT
ATOM      7  C   UNL     1      -3.234 -11.478  11.903  0.00  0.00    -0.027 C 
ATOM      8  C   UNL     1      -4.557 -10.923  12.528  0.00  0.00    +0.028 C 
ATOM      9  C   UNL     1      -5.294  -9.969  11.520  0.00  0.00    +0.012 C 
ATOM     10  C   UNL     1      -4.308 -10.334  13.945  0.00  0.00    +0.122 C 
ATOM     11  C   UNL     1      -2.593 -12.498  12.873  0.00  0.00    +0.007 C 
ATOM     12  C   UNL     1      -3.573 -11.323  14.880  0.00  0.00    +0.029 C 
ATOM     13  C   UNL     1      -3.569 -12.222  10.590  0.00  0.00    +0.009 C 
ATOM     14  C   UNL     1      -5.559 -10.706  10.177  0.00  0.00    +0.076 C 
ATOM     15  C   UNL     1      -2.311 -11.913  14.250  0.00  0.00    +0.007 C 
ATOM     16  C   UNL     1      -4.309 -11.354   9.583  0.00  0.00    +0.023 C 
ATOM     17  C   UNL     1      -2.203 -10.358  11.606  0.00  0.00    +0.011 C 
ATOM     19  C   UNL     1      -6.621  -9.410  12.061  0.00  0.00    +0.010 C 
ENDROOT
BRANCH  14   4
ATOM      3  O   UNL     1      -7.567 -11.377   8.238  0.00  0.00    -0.270 OA
ATOM      4  N   UNL     1      -6.133  -9.821   9.185  0.00  0.00    -0.308 N 
ATOM     22  C   UNL     1      -7.101 -10.241   8.289  0.00  0.00    +0.244 C 
ATOM     34  H   UNL     1      -5.716  -8.900   9.095  0.00  0.00    +0.149 HD
BRANCH  22  26
ATOM      6  N   UNL     1      -8.451  -7.302   5.486  0.00  0.00    -0.263 NA
ATOM     26  C   UNL     1      -7.568  -9.221   7.317  0.00  0.00    +0.040 A 
ATOM     30  C   UNL     1      -8.043  -7.993   7.765  0.00  0.00    +0.033 A 
ATOM     31  C   UNL     1      -7.534  -9.490   5.952  0.00  0.00    +0.033 A 
ATOM     32  C   UNL     1      -8.469  -7.077   6.819  0.00  0.00    +0.111 A 
ATOM     33  C   UNL     1      -7.983  -8.506   5.086  0.00  0.00    +0.111 A 
ENDBRANCH  22  26
ENDBRANCH  14   4
BRANCH  10   1
ATOM      1  O   UNL     1      -5.559 -10.039  14.567  0.00  0.00    -0.391 OA
ATOM     35  H   UNL     1      -5.458 -10.165  15.526  0.00  0.00    +0.210 HD
ENDBRANCH  10   1
BRANCH  12  18
ATOM     18  C   UNL     1      -3.220 -10.680  16.227  0.00  0.00    +0.077 C 
ATOM     20  C   UNL     1      -1.706 -10.612  16.395  0.00  0.00    +0.017 C 
BRANCH  18  21
ATOM      2  O   UNL     1      -3.270 -11.764  18.391  0.00  0.00    -0.276 OA
ATOM      5  N   UNL     1      -5.196 -11.780  17.099  0.00  0.00    -0.312 N 
ATOM     21  C   UNL     1      -3.871 -11.460  17.363  0.00  0.00    +0.216 C 
ATOM     36  H   UNL     1      -5.619 -11.471  16.230  0.00  0.00    +0.149 HD
BRANCH   5  23
ATOM     23  C   UNL     1      -6.022 -12.520  18.026  0.00  0.00    +0.073 C 
ATOM     24  C   UNL     1      -6.422 -11.648  19.222  0.00  0.00    +0.022 C 
ATOM     25  C   UNL     1      -7.254 -13.101  17.324  0.00  0.00    +0.022 C 
ATOM     27  C   UNL     1      -7.446 -10.577  18.848  0.00  0.00    +0.002 C 
ATOM     28  C   UNL     1      -8.277 -12.027  16.954  0.00  0.00    +0.002 C 
ATOM     29  C   UNL     1      -8.668 -11.181  18.162  0.00  0.00    +0.000 C 
ENDBRANCH   5  23
ENDBRANCH  18  21
ENDBRANCH  12  18
TORSDOF 6
ENDMDL
MODEL 9
REMARK VINA RESULT:      -6.7     31.266     34.250
REMARK  Name = 45361559
REMARK  9 active torsions:
REMARK  status: ('A' for Active; 'I' for Inactive)
REMARK    1  A    between atoms: O_1  and  C_10
REMARK    2  A    between atoms: N_4  and  C_14
REMARK    3  A    between atoms: N_5  and  C_23
REMARK    4  A    between atoms: C_7  and  C_17
REMARK    5  A    between atoms: C_9  and  C_19
REMARK    6  A    between atoms: C_12  and  C_18
REMARK    7  A    between atoms: C_18  and  C_20
REMARK    8  A    between atoms: C_18  and  C_21
REMARK    9  A    between atoms: C_22  and  C_26
REMARK                            x       y       z     vdW  Elec       q    Type
REMARK                         _______ _______ _______ _____ _____    ______ ____
ROOT
ATOM      7  C   UNL     1      16.764  -3.491  30.779  0.00  0.00    -0.027 C 
ATOM      8  C   UNL     1      16.553  -4.296  29.454  0.00  0.00    +0.028 C 
ATOM      9  C   UNL     1      15.928  -5.707  29.750  0.00  0.00    +0.012 C 
ATOM     10  C   UNL     1      17.844  -4.305  28.587  0.00  0.00    +0.122 C 
ATOM     11  C   UNL     1      17.272  -2.069  30.444  0.00  0.00    +0.007 C 
ATOM     12  C   UNL     1      18.406  -2.885  28.343  0.00  0.00    +0.029 C 
ATOM     13  C   UNL     1      15.406  -3.348  31.505  0.00  0.00    +0.009 C 
ATOM     14  C   UNL     1      14.601  -5.552  30.545  0.00  0.00    +0.076 C 
ATOM     15  C   UNL     1      18.559  -2.074  29.630  0.00  0.00    +0.007 C 
ATOM     16  C   UNL     1      14.739  -4.684  31.795  0.00  0.00    +0.023 C 
ATOM     17  C   UNL     1      17.781  -4.172  31.731  0.00  0.00    +0.011 C 
ATOM     19  C   UNL     1      15.665  -6.542  28.485  0.00  0.00    +0.010 C 
ENDROOT
BRANCH  14   4
ATOM      3  O   UNL     1      11.893  -6.443  30.203  0.00  0.00    -0.270 OA
ATOM      4  N   UNL     1      14.057  -6.836  30.935  0.00  0.00    -0.308 N 
ATOM     22  C   UNL     1      12.731  -7.173  30.727  0.00  0.00    +0.244 C 
ATOM     34  H   UNL     1      14.663  -7.446  31.475  0.00  0.00    +0.149 HD
BRANCH  22  26
ATOM      6  N   UNL     1      11.558 -11.047  32.119  0.00  0.00    -0.263 NA
ATOM     26  C   UNL     1      12.323  -8.517  31.209  0.00  0.00    +0.040 A 
ATOM     30  C   UNL     1      11.220  -8.655  32.045  0.00  0.00    +0.033 A 
ATOM     31  C   UNL     1      13.044  -9.644  30.827  0.00  0.00    +0.033 A 
ATOM     32  C   UNL     1      10.882  -9.929  32.469  0.00  0.00    +0.111 A 
ATOM     33  C   UNL     1      12.623 -10.875  31.305  0.00  0.00    +0.111 A 
ENDBRANCH  22  26
ENDBRANCH  14   4
BRANCH  10   1
ATOM      1  O   UNL     1      17.553  -4.856  27.302  0.00  0.00    -0.391 OA
ATOM     35  H   UNL     1      17.477  -4.122  26.669  0.00  0.00    +0.210 HD
ENDBRANCH  10   1
BRANCH  12  18
ATOM     18  C   UNL     1      19.748  -2.924  27.600  0.00  0.00    +0.077 C 
ATOM     20  C   UNL     1      20.850  -2.341  28.478  0.00  0.00    +0.017 C 
BRANCH  18  21
ATOM      2  O   UNL     1      20.063  -1.031  26.124  0.00  0.00    -0.276 OA
ATOM      5  N   UNL     1      18.996  -2.917  25.296  0.00  0.00    -0.312 N 
ATOM     21  C   UNL     1      19.633  -2.172  26.279  0.00  0.00    +0.216 C 
ATOM     36  H   UNL     1      18.690  -3.861  25.506  0.00  0.00    +0.149 HD
BRANCH   5  23
ATOM     23  C   UNL     1      18.768  -2.416  23.960  0.00  0.00    +0.073 C 
ATOM     24  C   UNL     1      18.488  -3.563  22.982  0.00  0.00    +0.022 C 
ATOM     25  C   UNL     1      17.635  -1.384  23.944  0.00  0.00    +0.022 C 
ATOM     27  C   UNL     1      17.113  -4.195  23.200  0.00  0.00    +0.002 C 
ATOM     28  C   UNL     1      16.262  -2.019  24.160  0.00  0.00    +0.002 C 
ATOM     29  C   UNL     1      16.002  -3.149  23.169  0.00  0.00    +0.000 C 
ENDBRANCH   5  23
ENDBRANCH  18  21
ENDBRANCH  12  18
TORSDOF 6
ENDMDL
MODEL 10
REMARK VINA RESULT:      -6.5     20.389     22.334
REMARK  Name = 45361559
REMARK  9 active torsions:
REMARK  status: ('A' for Active; 'I' for Inactive)
REMARK    1  A    between atoms: O_1  and  C_10
REMARK    2  A    between atoms: N_4  and  C_14
REMARK    3  A    between atoms: N_5  and  C_23
REMARK    4  A    between atoms: C_7  and  C_17
REMARK    5  A    between atoms: C_9  and  C_19
REMARK    6  A    between atoms: C_12  and  C_18
REMARK    7  A    between atoms: C_18  and  C_20
REMARK    8  A    between atoms: C_18  and  C_21
REMARK    9  A    between atoms: C_22  and  C_26
REMARK                            x       y       z     vdW  Elec       q    Type
REMARK                         _______ _______ _______ _____ _____    ______ ____
ROOT
ATOM      7  C   UNL     1      -4.441 -10.547   9.574  0.00  0.00    -0.027 C 
ATOM      8  C   UNL     1      -5.901 -10.505  10.138  0.00  0.00    +0.028 C 
ATOM      9  C   UNL     1      -6.816  -9.585   9.253  0.00  0.00    +0.012 C 
ATOM     10  C   UNL     1      -5.909 -10.189  11.660  0.00  0.00    +0.122 C 
ATOM     11  C   UNL     1      -3.598 -11.548  10.399  0.00  0.00    +0.007 C 
ATOM     12  C   UNL     1      -4.982 -11.128  12.467  0.00  0.00    +0.029 C 
ATOM     13  C   UNL     1      -4.479 -11.054   8.114  0.00  0.00    +0.009 C 
ATOM     14  C   UNL     1      -6.786 -10.060   7.772  0.00  0.00    +0.076 C 
ATOM     15  C   UNL     1      -3.571 -11.218  11.885  0.00  0.00    +0.007 C 
ATOM     16  C   UNL     1      -5.373 -10.215   7.213  0.00  0.00    +0.023 C 
ATOM     17  C   UNL     1      -3.750  -9.161   9.615  0.00  0.00    +0.011 C 
ATOM     19  C   UNL     1      -8.275  -9.521   9.734  0.00  0.00    +0.010 C 
ENDROOT
BRANCH  14   4
ATOM      3  O   UNL     1      -8.339 -10.793   5.471  0.00  0.00    -0.270 OA
ATOM      4  N   UNL     1      -7.527  -9.164   6.908  0.00  0.00    -0.308 N 
ATOM     22  C   UNL     1      -8.248  -9.617   5.817  0.00  0.00    +0.244 C 
ATOM     34  H   UNL     1      -7.406  -8.169   7.066  0.00  0.00    +0.149 HD
BRANCH  22  26
ATOM      6  N   UNL     1     -10.215  -6.604   3.499  0.00  0.00    -0.263 NA
ATOM     26  C   UNL     1      -8.930  -8.571   5.014  0.00  0.00    +0.040 A 
ATOM     30  C   UNL     1     -10.111  -7.997   5.471  0.00  0.00    +0.033 A 
ATOM     31  C   UNL     1      -8.390  -8.160   3.799  0.00  0.00    +0.033 A 
ATOM     32  C   UNL     1     -10.710  -7.028   4.684  0.00  0.00    +0.111 A 
ATOM     33  C   UNL     1      -9.065  -7.183   3.087  0.00  0.00    +0.111 A 
ENDBRANCH  22  26
ENDBRANCH  14   4
BRANCH  10   1
ATOM      1  O   UNL     1      -7.227 -10.372  12.180  0.00  0.00    -0.391 OA
ATOM     35  H   UNL     1      -7.642 -11.107  11.698  0.00  0.00    +0.210 HD
ENDBRANCH  10   1
BRANCH  12  18
ATOM     18  C   UNL     1      -4.901 -10.719  13.944  0.00  0.00    +0.077 C 
ATOM     20  C   UNL     1      -3.444 -10.642  14.388  0.00  0.00    +0.017 C 
BRANCH  18  21
ATOM      2  O   UNL     1      -6.507 -12.490  14.326  0.00  0.00    -0.276 OA
ATOM      5  N   UNL     1      -5.389 -11.594  16.150  0.00  0.00    -0.312 N 
ATOM     21  C   UNL     1      -5.693 -11.701  14.800  0.00  0.00    +0.216 C 
ATOM     36  H   UNL     1      -4.688 -10.926  16.452  0.00  0.00    +0.149 HD
BRANCH   5  23
ATOM     23  C   UNL     1      -6.014 -12.419  17.160  0.00  0.00    +0.073 C 
ATOM     24  C   UNL     1      -4.972 -12.975  18.138  0.00  0.00    +0.022 C 
ATOM     25  C   UNL     1      -7.113 -11.648  17.898  0.00  0.00    +0.022 C 
ATOM     27  C   UNL     1      -4.413 -11.901  19.070  0.00  0.00    +0.002 C 
ATOM     28  C   UNL     1      -6.551 -10.576  18.832  0.00  0.00    +0.002 C 
ATOM     29  C   UNL     1      -5.526 -11.156  19.802  0.00  0.00    +0.000 C 
ENDBRANCH   5  23
ENDBRANCH  18  21
ENDBRANCH  12  18
TORSDOF 6
ENDMDL
