MODEL 1
REMARK VINA RESULT:      -7.7      0.000      0.000
REMARK  Name = 26742312
REMARK  4 active torsions:
REMARK  status: ('A' for Active; 'I' for Inactive)
REMARK    1  A    between atoms: N_4  and  C_15
REMARK    2  A    between atoms: N_6  and  C_23
REMARK    3  A    between atoms: N_7  and  C_26
REMARK    4  A    between atoms: C_29  and  C_32
REMARK                            x       y       z     vdW  Elec       q    Type
REMARK                         _______ _______ _______ _____ _____    ______ ____
ROOT
ATOM      2  O   UNL     1      -5.592 -11.722   9.838  0.00  0.00    -0.266 OA
ATOM      4  N   UNL     1      -3.770 -11.091  14.466  0.00  0.00    -0.298 NA
ATOM      5  N   UNL     1      -3.784 -11.471  11.298  0.00  0.00    -0.310 N 
ATOM      9  C   UNL     1      -3.246 -13.158  13.149  0.00  0.00    +0.024 C 
ATOM     10  C   UNL     1      -1.846 -11.169  12.875  0.00  0.00    +0.050 C 
ATOM     11  C   UNL     1      -1.809 -12.693  12.952  0.00  0.00    +0.017 C 
ATOM     12  C   UNL     1      -3.823 -12.558  14.449  0.00  0.00    +0.090 C 
ATOM     13  C   UNL     1      -2.411 -10.598  14.196  0.00  0.00    +0.094 C 
ATOM     14  C   UNL     1      -4.065 -12.778  11.909  0.00  0.00    +0.130 C 
ATOM     16  C   UNL     1      -2.682 -10.708  11.696  0.00  0.00    +0.026 A 
ATOM     19  C   UNL     1      -2.380  -9.569  11.051  0.00  0.00    +0.024 A 
ATOM     20  C   UNL     1      -4.619 -11.076  10.234  0.00  0.00    +0.273 A 
ATOM     23  C   UNL     1      -4.263  -9.789   9.556  0.00  0.00    +0.100 A 
ATOM     24  C   UNL     1      -3.190  -9.102   9.961  0.00  0.00    +0.030 A 
ENDROOT
BRANCH   4  15
ATOM      1  O   UNL     1      -6.167 -10.735  17.894  0.00  0.00    -0.380 OA
ATOM     15  C   UNL     1      -4.275 -10.564  15.731  0.00  0.00    +0.061 C 
ATOM     17  C   UNL     1      -5.734 -10.126  15.582  0.00  0.00    +0.047 C 
ATOM     18  C   UNL     1      -4.152 -11.603  16.851  0.00  0.00    +0.047 C 
ATOM     21  C   UNL     1      -6.298  -9.690  16.930  0.00  0.00    +0.161 C 
ATOM     22  C   UNL     1      -4.803 -11.086  18.129  0.00  0.00    +0.161 C 
ENDBRANCH   4  15
BRANCH  23   6
ATOM      3  O   UNL     1      -6.796  -8.519   9.806  0.00  0.00    -0.252 OA
ATOM      6  N   UNL     1      -5.054  -9.365   8.530  0.00  0.00    -0.265 N 
ATOM      7  N   UNL     1      -6.857  -8.429   7.461  0.00  0.00    -0.269 N 
ATOM     25  C   UNL     1      -6.297  -8.742   8.705  0.00  0.00    +0.308 C 
ATOM     33  H   UNL     1      -4.846  -9.734   7.606  0.00  0.00    +0.157 HD
ATOM     34  H   UNL     1      -6.312  -8.679   6.640  0.00  0.00    +0.156 HD
BRANCH   7  26
ATOM     26  C   UNL     1      -8.096  -7.798   7.200  0.00  0.00    +0.036 A 
ATOM     27  C   UNL     1      -8.505  -6.715   7.980  0.00  0.00    +0.042 A 
ATOM     28  C   UNL     1      -8.908  -8.260   6.165  0.00  0.00    +0.023 A 
ATOM     29  C   UNL     1      -9.727  -6.094   7.722  0.00  0.00    +0.054 A 
ATOM     30  C   UNL     1     -10.130  -7.637   5.907  0.00  0.00    +0.003 A 
ATOM     31  C   UNL     1     -10.539  -6.555   6.685  0.00  0.00    +0.019 A 
BRANCH  29  32
ATOM      8  N   UNL     1     -10.489  -4.084   9.167  0.00  0.00    -0.191 NA
ATOM     32  C   UNL     1     -10.147  -4.985   8.519  0.00  0.00    +0.099 C 
ENDBRANCH  29  32
ENDBRANCH   7  26
ENDBRANCH  23   6
TORSDOF 4
ENDMDL
MODEL 2
REMARK VINA RESULT:      -7.6     23.027     26.116
REMARK  Name = 26742312
REMARK  4 active torsions:
REMARK  status: ('A' for Active; 'I' for Inactive)
REMARK    1  A    between atoms: N_4  and  C_15
REMARK    2  A    between atoms: N_6  and  C_23
REMARK    3  A    between atoms: N_7  and  C_26
REMARK    4  A    between atoms: C_29  and  C_32
REMARK                            x       y       z     vdW  Elec       q    Type
REMARK                         _______ _______ _______ _____ _____    ______ ____
ROOT
ATOM      2  O   UNL     1      10.424   6.377   0.842  0.00  0.00    -0.266 OA
ATOM      4  N   UNL     1      12.191   4.151  -3.288  0.00  0.00    -0.298 NA
ATOM      5  N   UNL     1      12.185   5.422  -0.360  0.00  0.00    -0.310 N 
ATOM      9  C   UNL     1      13.052   6.392  -2.568  0.00  0.00    +0.024 C 
ATOM     10  C   UNL     1      14.068   4.362  -1.652  0.00  0.00    +0.050 C 
ATOM     11  C   UNL     1      14.378   5.771  -2.149  0.00  0.00    +0.017 C 
ATOM     12  C   UNL     1      12.402   5.548  -3.685  0.00  0.00    +0.090 C 
ATOM     13  C   UNL     1      13.434   3.538  -2.797  0.00  0.00    +0.094 C 
ATOM     14  C   UNL     1      12.154   6.525  -1.330  0.00  0.00    +0.130 C 
ATOM     16  C   UNL     1      13.140   4.405  -0.453  0.00  0.00    +0.026 A 
ATOM     19  C   UNL     1      13.221   3.465   0.504  0.00  0.00    +0.024 A 
ATOM     20  C   UNL     1      11.272   5.493   0.711  0.00  0.00    +0.273 A 
ATOM     23  C   UNL     1      11.379   4.415   1.744  0.00  0.00    +0.100 A 
ATOM     24  C   UNL     1      12.320   3.472   1.623  0.00  0.00    +0.030 A 
ENDROOT
BRANCH   4  15
ATOM      1  O   UNL     1      10.549   3.300  -7.056  0.00  0.00    -0.380 OA
ATOM     15  C   UNL     1      11.624   3.374  -4.387  0.00  0.00    +0.061 C 
ATOM     17  C   UNL     1      10.214   3.869  -4.719  0.00  0.00    +0.047 C 
ATOM     18  C   UNL     1      12.513   3.452  -5.634  0.00  0.00    +0.047 C 
ATOM     21  C   UNL     1       9.670   3.141  -5.943  0.00  0.00    +0.161 C 
ATOM     22  C   UNL     1      11.842   2.748  -6.808  0.00  0.00    +0.161 C 
ENDBRANCH   4  15
BRANCH  23   6
ATOM      3  O   UNL     1      11.572   6.069   4.050  0.00  0.00    -0.252 OA
ATOM      6  N   UNL     1      10.506   4.441   2.790  0.00  0.00    -0.265 N 
ATOM      7  N   UNL     1       9.588   5.064   4.800  0.00  0.00    -0.269 N 
ATOM     25  C   UNL     1      10.644   5.276   3.906  0.00  0.00    +0.308 C 
ATOM     33  H   UNL     1       9.868   3.653   2.876  0.00  0.00    +0.157 HD
ATOM     34  H   UNL     1       8.895   4.369   4.530  0.00  0.00    +0.156 HD
BRANCH   7  26
ATOM     26  C   UNL     1       9.359   5.702   6.040  0.00  0.00    +0.036 A 
ATOM     27  C   UNL     1       9.717   5.065   7.229  0.00  0.00    +0.042 A 
ATOM     28  C   UNL     1       8.773   6.967   6.076  0.00  0.00    +0.023 A 
ATOM     29  C   UNL     1       9.491   5.695   8.453  0.00  0.00    +0.054 A 
ATOM     30  C   UNL     1       8.548   7.597   7.300  0.00  0.00    +0.003 A 
ATOM     31  C   UNL     1       8.906   6.961   8.488  0.00  0.00    +0.019 A 
BRANCH  29  32
ATOM      8  N   UNL     1      10.156   4.514  10.661  0.00  0.00    -0.191 NA
ATOM     32  C   UNL     1       9.858   5.044   9.671  0.00  0.00    +0.099 C 
ENDBRANCH  29  32
ENDBRANCH   7  26
ENDBRANCH  23   6
TORSDOF 4
ENDMDL
MODEL 3
REMARK VINA RESULT:      -7.4     28.282     31.233
REMARK  Name = 26742312
REMARK  4 active torsions:
REMARK  status: ('A' for Active; 'I' for Inactive)
REMARK    1  A    between atoms: N_4  and  C_15
REMARK    2  A    between atoms: N_6  and  C_23
REMARK    3  A    between atoms: N_7  and  C_26
REMARK    4  A    between atoms: C_29  and  C_32
REMARK                            x       y       z     vdW  Elec       q    Type
REMARK                         _______ _______ _______ _____ _____    ______ ____
ROOT
ATOM      2  O   UNL     1      17.214   9.631  20.469  0.00  0.00    -0.266 OA
ATOM      4  N   UNL     1      12.280  10.446  20.821  0.00  0.00    -0.298 NA
ATOM      5  N   UNL     1      15.016   9.098  19.882  0.00  0.00    -0.310 N 
ATOM      9  C   UNL     1      13.475  10.722  18.635  0.00  0.00    +0.024 C 
ATOM     10  C   UNL     1      12.643   8.512  19.281  0.00  0.00    +0.050 C 
ATOM     11  C   UNL     1      12.823   9.456  18.095  0.00  0.00    +0.017 C 
ATOM     12  C   UNL     1      12.575  11.362  19.713  0.00  0.00    +0.090 C 
ATOM     13  C   UNL     1      11.724   9.174  20.333  0.00  0.00    +0.094 C 
ATOM     14  C   UNL     1      14.873  10.373  19.165  0.00  0.00    +0.130 C 
ATOM     16  C   UNL     1      13.984   8.156  19.895  0.00  0.00    +0.026 A 
ATOM     19  C   UNL     1      14.174   6.953  20.463  0.00  0.00    +0.024 A 
ATOM     20  C   UNL     1      16.271   8.839  20.469  0.00  0.00    +0.273 A 
ATOM     23  C   UNL     1      16.435   7.497  21.112  0.00  0.00    +0.100 A 
ATOM     24  C   UNL     1      15.425   6.620  21.086  0.00  0.00    +0.030 A 
ENDROOT
BRANCH   4  15
ATOM      1  O   UNL     1      11.024  12.847  24.027  0.00  0.00    -0.380 OA
ATOM     15  C   UNL     1      11.384  11.069  21.792  0.00  0.00    +0.061 C 
ATOM     17  C   UNL     1      11.797  10.691  23.217  0.00  0.00    +0.047 C 
ATOM     18  C   UNL     1      11.376  12.593  21.636  0.00  0.00    +0.047 C 
ATOM     21  C   UNL     1      10.940  11.437  24.233  0.00  0.00    +0.161 C 
ATOM     22  C   UNL     1      10.543  13.235  22.740  0.00  0.00    +0.161 C 
ENDBRANCH   4  15
BRANCH  23   6
ATOM      3  O   UNL     1      18.651   6.211  19.877  0.00  0.00    -0.252 OA
ATOM      6  N   UNL     1      17.630   7.211  21.703  0.00  0.00    -0.265 N 
ATOM      7  N   UNL     1      19.776   6.427  21.926  0.00  0.00    -0.269 N 
ATOM     25  C   UNL     1      18.694   6.575  21.051  0.00  0.00    +0.308 C 
ATOM     33  H   UNL     1      17.659   7.240  22.719  0.00  0.00    +0.157 HD
ATOM     34  H   UNL     1      19.650   6.786  22.870  0.00  0.00    +0.156 HD
BRANCH   7  26
ATOM     26  C   UNL     1      21.034   5.838  21.661  0.00  0.00    +0.036 A 
ATOM     27  C   UNL     1      21.419   4.680  22.339  0.00  0.00    +0.042 A 
ATOM     28  C   UNL     1      21.889   6.415  20.723  0.00  0.00    +0.023 A 
ATOM     29  C   UNL     1      22.660   4.100  22.077  0.00  0.00    +0.054 A 
ATOM     30  C   UNL     1      23.130   5.834  20.461  0.00  0.00    +0.003 A 
ATOM     31  C   UNL     1      23.515   4.677  21.138  0.00  0.00    +0.019 A 
BRANCH  29  32
ATOM      8  N   UNL     1      23.377   1.952  23.333  0.00  0.00    -0.191 NA
ATOM     32  C   UNL     1      23.055   2.915  22.770  0.00  0.00    +0.099 C 
ENDBRANCH  29  32
ENDBRANCH   7  26
ENDBRANCH  23   6
TORSDOF 4
ENDMDL
MODEL 4
REMARK VINA RESULT:      -7.2      1.773      2.368
REMARK  Name = 26742312
REMARK  4 active torsions:
REMARK  status: ('A' for Active; 'I' for Inactive)
REMARK    1  A    between atoms: N_4  and  C_15
REMARK    2  A    between atoms: N_6  and  C_23
REMARK    3  A    between atoms: N_7  and  C_26
REMARK    4  A    between atoms: C_29  and  C_32
REMARK                            x       y       z     vdW  Elec       q    Type
REMARK                         _______ _______ _______ _____ _____    ______ ____
ROOT
ATOM      2  O   UNL     1      -4.900 -12.607  10.369  0.00  0.00    -0.266 OA
ATOM      4  N   UNL     1      -3.970 -11.042  15.039  0.00  0.00    -0.298 NA
ATOM      5  N   UNL     1      -3.402 -11.912  12.022  0.00  0.00    -0.310 N 
ATOM      9  C   UNL     1      -3.033 -13.210  14.200  0.00  0.00    +0.024 C 
ATOM     10  C   UNL     1      -1.801 -11.132  13.801  0.00  0.00    +0.050 C 
ATOM     11  C   UNL     1      -1.635 -12.609  14.147  0.00  0.00    +0.017 C 
ATOM     12  C   UNL     1      -3.879 -12.488  15.271  0.00  0.00    +0.090 C 
ATOM     13  C   UNL     1      -2.637 -10.435  14.899  0.00  0.00    +0.094 C 
ATOM     14  C   UNL     1      -3.660 -13.131  12.801  0.00  0.00    +0.130 C 
ATOM     16  C   UNL     1      -2.463 -10.968  12.445  0.00  0.00    +0.026 A 
ATOM     19  C   UNL     1      -2.164  -9.915  11.665  0.00  0.00    +0.024 A 
ATOM     20  C   UNL     1      -4.076 -11.794  10.790  0.00  0.00    +0.273 A 
ATOM     23  C   UNL     1      -3.732 -10.595   9.961  0.00  0.00    +0.100 A 
ATOM     24  C   UNL     1      -2.815  -9.727  10.399  0.00  0.00    +0.030 A 
ENDROOT
BRANCH   4  15
ATOM      1  O   UNL     1      -7.005 -10.396  17.867  0.00  0.00    -0.380 OA
ATOM     15  C   UNL     1      -4.732 -10.388  16.100  0.00  0.00    +0.061 C 
ATOM     17  C   UNL     1      -6.148 -10.065  15.617  0.00  0.00    +0.047 C 
ATOM     18  C   UNL     1      -4.794 -11.265  17.356  0.00  0.00    +0.047 C 
ATOM     21  C   UNL     1      -6.981  -9.495  16.760  0.00  0.00    +0.161 C 
ATOM     22  C   UNL     1      -5.702 -10.629  18.402  0.00  0.00    +0.161 C 
ENDBRANCH   4  15
BRANCH  23   6
ATOM      3  O   UNL     1      -5.863  -8.788   9.427  0.00  0.00    -0.252 OA
ATOM      6  N   UNL     1      -4.372 -10.437   8.767  0.00  0.00    -0.265 N 
ATOM      7  N   UNL     1      -5.859  -9.608   7.227  0.00  0.00    -0.269 N 
ATOM     25  C   UNL     1      -5.419  -9.530   8.553  0.00  0.00    +0.308 C 
ATOM     33  H   UNL     1      -4.249 -11.174   8.078  0.00  0.00    +0.157 HD
ATOM     34  H   UNL     1      -5.381 -10.276   6.627  0.00  0.00    +0.156 HD
BRANCH   7  26
ATOM     26  C   UNL     1      -6.892  -8.865   6.610  0.00  0.00    +0.036 A 
ATOM     27  C   UNL     1      -6.943  -8.764   5.219  0.00  0.00    +0.042 A 
ATOM     28  C   UNL     1      -7.859  -8.233   7.392  0.00  0.00    +0.023 A 
ATOM     29  C   UNL     1      -7.962  -8.032   4.611  0.00  0.00    +0.054 A 
ATOM     30  C   UNL     1      -8.878  -7.501   6.783  0.00  0.00    +0.003 A 
ATOM     31  C   UNL     1      -8.930  -7.400   5.393  0.00  0.00    +0.019 A 
BRANCH  29  32
ATOM      8  N   UNL     1      -8.060  -7.843   2.030  0.00  0.00    -0.191 NA
ATOM     32  C   UNL     1      -8.016  -7.927   3.187  0.00  0.00    +0.099 C 
ENDBRANCH  29  32
ENDBRANCH   7  26
ENDBRANCH  23   6
TORSDOF 4
ENDMDL
MODEL 5
REMARK VINA RESULT:      -7.1     28.452     31.569
REMARK  Name = 26742312
REMARK  4 active torsions:
REMARK  status: ('A' for Active; 'I' for Inactive)
REMARK    1  A    between atoms: N_4  and  C_15
REMARK    2  A    between atoms: N_6  and  C_23
REMARK    3  A    between atoms: N_7  and  C_26
REMARK    4  A    between atoms: C_29  and  C_32
REMARK                            x       y       z     vdW  Elec       q    Type
REMARK                         _______ _______ _______ _____ _____    ______ ____
ROOT
ATOM      2  O   UNL     1      16.159   6.089  19.081  0.00  0.00    -0.266 OA
ATOM      4  N   UNL     1      14.279  10.348  17.220  0.00  0.00    -0.298 NA
ATOM      5  N   UNL     1      14.521   7.756  19.066  0.00  0.00    -0.310 N 
ATOM      9  C   UNL     1      13.003   8.197  17.050  0.00  0.00    +0.024 C 
ATOM     10  C   UNL     1      12.780   9.573  19.063  0.00  0.00    +0.050 C 
ATOM     11  C   UNL     1      12.006   8.683  18.095  0.00  0.00    +0.017 C 
ATOM     12  C   UNL     1      13.622   9.402  16.310  0.00  0.00    +0.090 C 
ATOM     13  C   UNL     1      13.372  10.778  18.296  0.00  0.00    +0.094 C 
ATOM     14  C   UNL     1      14.058   7.322  17.740  0.00  0.00    +0.130 C 
ATOM     16  C   UNL     1      13.880   8.790  19.754  0.00  0.00    +0.026 A 
ATOM     19  C   UNL     1      14.249   9.098  21.008  0.00  0.00    +0.024 A 
ATOM     20  C   UNL     1      15.574   7.017  19.642  0.00  0.00    +0.273 A 
ATOM     23  C   UNL     1      15.971   7.406  21.032  0.00  0.00    +0.100 A 
ATOM     24  C   UNL     1      15.318   8.392  21.657  0.00  0.00    +0.030 A 
ENDROOT
BRANCH   4  15
ATOM      1  O   UNL     1      17.050  12.830  15.275  0.00  0.00    -0.380 OA
ATOM     15  C   UNL     1      14.806  11.498  16.490  0.00  0.00    +0.061 C 
ATOM     17  C   UNL     1      15.887  12.203  17.313  0.00  0.00    +0.047 C 
ATOM     18  C   UNL     1      15.375  11.075  15.131  0.00  0.00    +0.047 C 
ATOM     21  C   UNL     1      16.522  13.328  16.503  0.00  0.00    +0.161 C 
ATOM     22  C   UNL     1      16.039  12.262  14.442  0.00  0.00    +0.161 C 
ENDBRANCH   4  15
BRANCH  23   6
ATOM      3  O   UNL     1      18.728   8.099  20.926  0.00  0.00    -0.252 OA
ATOM      6  N   UNL     1      16.995   6.725  21.621  0.00  0.00    -0.265 N 
ATOM      7  N   UNL     1      19.141   6.204  22.248  0.00  0.00    -0.269 N 
ATOM     25  C   UNL     1      18.340   7.107  21.539  0.00  0.00    +0.308 C 
ATOM     33  H   UNL     1      16.801   5.773  21.921  0.00  0.00    +0.157 HD
ATOM     34  H   UNL     1      18.662   5.432  22.705  0.00  0.00    +0.156 HD
BRANCH   7  26
ATOM     26  C   UNL     1      20.545   6.231  22.411  0.00  0.00    +0.036 A 
ATOM     27  C   UNL     1      21.364   5.516  21.535  0.00  0.00    +0.042 A 
ATOM     28  C   UNL     1      21.112   6.972  23.448  0.00  0.00    +0.023 A 
ATOM     29  C   UNL     1      22.748   5.543  21.697  0.00  0.00    +0.054 A 
ATOM     30  C   UNL     1      22.498   7.000  23.608  0.00  0.00    +0.003 A 
ATOM     31  C   UNL     1      23.315   6.285  22.734  0.00  0.00    +0.019 A 
BRANCH  29  32
ATOM      8  N   UNL     1      24.269   4.217  20.073  0.00  0.00    -0.191 NA
ATOM     32  C   UNL     1      23.587   4.812  20.801  0.00  0.00    +0.099 C 
ENDBRANCH  29  32
ENDBRANCH   7  26
ENDBRANCH  23   6
TORSDOF 4
ENDMDL
MODEL 6
REMARK VINA RESULT:      -7.1      4.334      9.373
REMARK  Name = 26742312
REMARK  4 active torsions:
REMARK  status: ('A' for Active; 'I' for Inactive)
REMARK    1  A    between atoms: N_4  and  C_15
REMARK    2  A    between atoms: N_6  and  C_23
REMARK    3  A    between atoms: N_7  and  C_26
REMARK    4  A    between atoms: C_29  and  C_32
REMARK                            x       y       z     vdW  Elec       q    Type
REMARK                         _______ _______ _______ _____ _____    ______ ____
ROOT
ATOM      2  O   UNL     1      -4.605 -10.737  17.904  0.00  0.00    -0.266 OA
ATOM      4  N   UNL     1      -3.788 -11.074  12.970  0.00  0.00    -0.298 NA
ATOM      5  N   UNL     1      -3.742 -11.879  16.058  0.00  0.00    -0.310 N 
ATOM      9  C   UNL     1      -1.874 -10.930  14.583  0.00  0.00    +0.024 C 
ATOM     10  C   UNL     1      -2.843 -13.115  14.057  0.00  0.00    +0.050 C 
ATOM     11  C   UNL     1      -1.528 -12.392  14.335  0.00  0.00    +0.017 C 
ATOM     12  C   UNL     1      -2.576 -10.335  13.343  0.00  0.00    +0.090 C 
ATOM     13  C   UNL     1      -3.512 -12.509  12.802  0.00  0.00    +0.094 C 
ATOM     14  C   UNL     1      -2.733 -10.830  15.851  0.00  0.00    +0.130 C 
ATOM     16  C   UNL     1      -3.773 -13.021  15.253  0.00  0.00    +0.026 A 
ATOM     19  C   UNL     1      -4.632 -14.017  15.526  0.00  0.00    +0.024 A 
ATOM     20  C   UNL     1      -4.606 -11.718  17.159  0.00  0.00    +0.273 A 
ATOM     23  C   UNL     1      -5.564 -12.839  17.417  0.00  0.00    +0.100 A 
ATOM     24  C   UNL     1      -5.546 -13.921  16.630  0.00  0.00    +0.030 A 
ENDROOT
BRANCH   4  15
ATOM      1  O   UNL     1      -4.981  -8.210  10.142  0.00  0.00    -0.380 OA
ATOM     15  C   UNL     1      -4.393 -10.515  11.764  0.00  0.00    +0.061 C 
ATOM     17  C   UNL     1      -5.485  -9.508  12.133  0.00  0.00    +0.047 C 
ATOM     18  C   UNL     1      -3.337  -9.841  10.879  0.00  0.00    +0.047 C 
ATOM     21  C   UNL     1      -6.032  -8.834  10.879  0.00  0.00    +0.161 C 
ATOM     22  C   UNL     1      -4.003  -9.148   9.695  0.00  0.00    +0.161 C 
ENDBRANCH   4  15
BRANCH  23   6
ATOM      3  O   UNL     1      -8.255 -11.929  17.278  0.00  0.00    -0.252 OA
ATOM      6  N   UNL     1      -6.426 -12.717  18.465  0.00  0.00    -0.265 N 
ATOM      7  N   UNL     1      -8.367 -12.253  19.600  0.00  0.00    -0.269 N 
ATOM     25  C   UNL     1      -7.746 -12.263  18.346  0.00  0.00    +0.308 C 
ATOM     33  H   UNL     1      -6.020 -12.722  19.398  0.00  0.00    +0.157 HD
ATOM     34  H   UNL     1      -7.805 -12.564  20.389  0.00  0.00    +0.156 HD
BRANCH   7  26
ATOM     26  C   UNL     1      -9.691 -11.864  19.911  0.00  0.00    +0.036 A 
ATOM     27  C   UNL     1     -10.603 -12.809  20.382  0.00  0.00    +0.042 A 
ATOM     28  C   UNL     1     -10.083 -10.536  19.747  0.00  0.00    +0.023 A 
ATOM     29  C   UNL     1     -11.908 -12.424  20.688  0.00  0.00    +0.054 A 
ATOM     30  C   UNL     1     -11.389 -10.152  20.055  0.00  0.00    +0.003 A 
ATOM     31  C   UNL     1     -12.301 -11.096  20.525  0.00  0.00    +0.019 A 
BRANCH  29  32
ATOM      8  N   UNL     1     -13.604 -14.177  21.562  0.00  0.00    -0.191 NA
ATOM     32  C   UNL     1     -12.844 -13.391  21.170  0.00  0.00    +0.099 C 
ENDBRANCH  29  32
ENDBRANCH   7  26
ENDBRANCH  23   6
TORSDOF 4
ENDMDL
MODEL 7
REMARK VINA RESULT:      -7.0      5.078      8.640
REMARK  Name = 26742312
REMARK  4 active torsions:
REMARK  status: ('A' for Active; 'I' for Inactive)
REMARK    1  A    between atoms: N_4  and  C_15
REMARK    2  A    between atoms: N_6  and  C_23
REMARK    3  A    between atoms: N_7  and  C_26
REMARK    4  A    between atoms: C_29  and  C_32
REMARK                            x       y       z     vdW  Elec       q    Type
REMARK                         _______ _______ _______ _____ _____    ______ ____
ROOT
ATOM      2  O   UNL     1      -6.471  -9.922  14.163  0.00  0.00    -0.266 OA
ATOM      4  N   UNL     1      -3.022 -13.423  13.174  0.00  0.00    -0.298 NA
ATOM      5  N   UNL     1      -4.239 -10.607  14.053  0.00  0.00    -0.310 N 
ATOM      9  C   UNL     1      -3.099 -11.288  11.862  0.00  0.00    +0.024 C 
ATOM     10  C   UNL     1      -1.841 -11.366  13.961  0.00  0.00    +0.050 C 
ATOM     11  C   UNL     1      -1.828 -10.800  12.544  0.00  0.00    +0.017 C 
ATOM     12  C   UNL     1      -3.124 -12.832  11.834  0.00  0.00    +0.090 C 
ATOM     13  C   UNL     1      -1.849 -12.911  13.899  0.00  0.00    +0.094 C 
ATOM     14  C   UNL     1      -4.312 -10.691  12.588  0.00  0.00    +0.130 C 
ATOM     16  C   UNL     1      -3.045 -10.860  14.733  0.00  0.00    +0.026 A 
ATOM     19  C   UNL     1      -2.971 -10.672  16.062  0.00  0.00    +0.024 A 
ATOM     20  C   UNL     1      -5.401 -10.170  14.721  0.00  0.00    +0.273 A 
ATOM     23  C   UNL     1      -5.284  -9.996  16.204  0.00  0.00    +0.100 A 
ATOM     24  C   UNL     1      -4.115 -10.233  16.810  0.00  0.00    +0.030 A 
ENDROOT
BRANCH   4  15
ATOM      1  O   UNL     1      -1.468 -17.322  13.070  0.00  0.00    -0.380 OA
ATOM     15  C   UNL     1      -2.996 -14.882  13.102  0.00  0.00    +0.061 C 
ATOM     17  C   UNL     1      -2.208 -15.341  11.872  0.00  0.00    +0.047 C 
ATOM     18  C   UNL     1      -2.384 -15.485  14.371  0.00  0.00    +0.047 C 
ATOM     21  C   UNL     1      -2.076 -16.860  11.864  0.00  0.00    +0.161 C 
ATOM     22  C   UNL     1      -2.242 -16.996  14.224  0.00  0.00    +0.161 C 
ENDBRANCH   4  15
BRANCH  23   6
ATOM      3  O   UNL     1      -7.324 -11.677  17.255  0.00  0.00    -0.252 OA
ATOM      6  N   UNL     1      -6.389  -9.586  16.890  0.00  0.00    -0.265 N 
ATOM      7  N   UNL     1      -8.369  -9.728  18.043  0.00  0.00    -0.269 N 
ATOM     25  C   UNL     1      -7.368 -10.456  17.389  0.00  0.00    +0.308 C 
ATOM     33  H   UNL     1      -6.634  -8.602  16.822  0.00  0.00    +0.157 HD
ATOM     34  H   UNL     1      -8.254  -8.718  18.068  0.00  0.00    +0.156 HD
BRANCH   7  26
ATOM     26  C   UNL     1      -9.528 -10.226  18.680  0.00  0.00    +0.036 A 
ATOM     27  C   UNL     1      -9.461 -11.398  19.436  0.00  0.00    +0.042 A 
ATOM     28  C   UNL     1     -10.740  -9.547  18.553  0.00  0.00    +0.023 A 
ATOM     29  C   UNL     1     -10.605 -11.888  20.064  0.00  0.00    +0.054 A 
ATOM     30  C   UNL     1     -11.884 -10.038  19.183  0.00  0.00    +0.003 A 
ATOM     31  C   UNL     1     -11.816 -11.208  19.938  0.00  0.00    +0.019 A 
BRANCH  29  32
ATOM      8  N   UNL     1     -10.481 -14.062  21.468  0.00  0.00    -0.191 NA
ATOM     32  C   UNL     1     -10.537 -13.087  20.839  0.00  0.00    +0.099 C 
ENDBRANCH  29  32
ENDBRANCH   7  26
ENDBRANCH  23   6
TORSDOF 4
ENDMDL
MODEL 8
REMARK VINA RESULT:      -7.0      5.532     11.688
REMARK  Name = 26742312
REMARK  4 active torsions:
REMARK  status: ('A' for Active; 'I' for Inactive)
REMARK    1  A    between atoms: N_4  and  C_15
REMARK    2  A    between atoms: N_6  and  C_23
REMARK    3  A    between atoms: N_7  and  C_26
REMARK    4  A    between atoms: C_29  and  C_32
REMARK                            x       y       z     vdW  Elec       q    Type
REMARK                         _______ _______ _______ _____ _____    ______ ____
ROOT
ATOM      2  O   UNL     1     -10.253  -9.124  13.874  0.00  0.00    -0.266 OA
ATOM      4  N   UNL     1     -13.244  -5.437  12.263  0.00  0.00    -0.298 NA
ATOM      5  N   UNL     1     -12.096  -7.719  14.175  0.00  0.00    -0.310 N 
ATOM      9  C   UNL     1     -14.137  -7.750  12.627  0.00  0.00    +0.024 C 
ATOM     10  C   UNL     1     -14.061  -6.180  14.504  0.00  0.00    +0.050 C 
ATOM     11  C   UNL     1     -14.897  -7.284  13.862  0.00  0.00    +0.017 C 
ATOM     12  C   UNL     1     -13.944  -6.571  11.649  0.00  0.00    +0.090 C 
ATOM     13  C   UNL     1     -13.900  -5.009  13.508  0.00  0.00    +0.094 C 
ATOM     14  C   UNL     1     -12.807  -8.375  13.068  0.00  0.00    +0.130 C 
ATOM     16  C   UNL     1     -12.703  -6.708  14.926  0.00  0.00    +0.026 A 
ATOM     19  C   UNL     1     -12.079  -6.198  16.001  0.00  0.00    +0.024 A 
ATOM     20  C   UNL     1     -10.821  -8.225  14.497  0.00  0.00    +0.273 A 
ATOM     23  C   UNL     1     -10.149  -7.614  15.687  0.00  0.00    +0.100 A 
ATOM     24  C   UNL     1     -10.775  -6.661  16.386  0.00  0.00    +0.030 A 
ENDROOT
BRANCH   4  15
ATOM      1  O   UNL     1     -13.063  -3.390   8.602  0.00  0.00    -0.380 OA
ATOM     15  C   UNL     1     -13.127  -4.323  11.325  0.00  0.00    +0.061 C 
ATOM     17  C   UNL     1     -11.907  -4.514  10.420  0.00  0.00    +0.047 C 
ATOM     18  C   UNL     1     -14.394  -4.184  10.473  0.00  0.00    +0.047 C 
ATOM     21  C   UNL     1     -11.854  -3.417   9.362  0.00  0.00    +0.161 C 
ATOM     22  C   UNL     1     -14.204  -3.107   9.412  0.00  0.00    +0.161 C 
ENDBRANCH   4  15
BRANCH  23   6
ATOM      3  O   UNL     1      -9.572  -9.864  17.329  0.00  0.00    -0.252 OA
ATOM      6  N   UNL     1      -8.907  -8.066  16.025  0.00  0.00    -0.265 N 
ATOM      7  N   UNL     1      -7.298  -9.385  16.994  0.00  0.00    -0.269 N 
ATOM     25  C   UNL     1      -8.674  -9.183  16.838  0.00  0.00    +0.308 C 
ATOM     33  H   UNL     1      -8.130  -7.426  15.882  0.00  0.00    +0.157 HD
ATOM     34  H   UNL     1      -6.684  -8.729  16.517  0.00  0.00    +0.156 HD
BRANCH   7  26
ATOM     26  C   UNL     1      -6.648 -10.398  17.736  0.00  0.00    +0.036 A 
ATOM     27  C   UNL     1      -6.209 -11.558  17.097  0.00  0.00    +0.042 A 
ATOM     28  C   UNL     1      -6.446 -10.237  19.107  0.00  0.00    +0.023 A 
ATOM     29  C   UNL     1      -5.568 -12.557  17.829  0.00  0.00    +0.054 A 
ATOM     30  C   UNL     1      -5.804 -11.237  19.839  0.00  0.00    +0.003 A 
ATOM     31  C   UNL     1      -5.366 -12.396  19.200  0.00  0.00    +0.019 A 
BRANCH  29  32
ATOM      8  N   UNL     1      -4.753 -14.712  16.646  0.00  0.00    -0.191 NA
ATOM     32  C   UNL     1      -5.118 -13.746  17.176  0.00  0.00    +0.099 C 
ENDBRANCH  29  32
ENDBRANCH   7  26
ENDBRANCH  23   6
TORSDOF 4
ENDMDL
MODEL 9
REMARK VINA RESULT:      -6.9      4.949     11.139
REMARK  Name = 26742312
REMARK  4 active torsions:
REMARK  status: ('A' for Active; 'I' for Inactive)
REMARK    1  A    between atoms: N_4  and  C_15
REMARK    2  A    between atoms: N_6  and  C_23
REMARK    3  A    between atoms: N_7  and  C_26
REMARK    4  A    between atoms: C_29  and  C_32
REMARK                            x       y       z     vdW  Elec       q    Type
REMARK                         _______ _______ _______ _____ _____    ______ ____
ROOT
ATOM      2  O   UNL     1     -11.748  -9.982  16.647  0.00  0.00    -0.266 OA
ATOM      4  N   UNL     1     -12.867  -7.427  12.480  0.00  0.00    -0.298 NA
ATOM      5  N   UNL     1     -12.626  -8.090  15.593  0.00  0.00    -0.310 N 
ATOM      9  C   UNL     1     -14.670  -8.179  14.051  0.00  0.00    +0.024 C 
ATOM     10  C   UNL     1     -13.542  -6.043  14.448  0.00  0.00    +0.050 C 
ATOM     11  C   UNL     1     -14.896  -6.745  14.511  0.00  0.00    +0.017 C 
ATOM     12  C   UNL     1     -14.114  -8.191  12.611  0.00  0.00    +0.090 C 
ATOM     13  C   UNL     1     -13.020  -6.057  12.993  0.00  0.00    +0.094 C 
ATOM     14  C   UNL     1     -13.740  -8.880  15.049  0.00  0.00    +0.130 C 
ATOM     16  C   UNL     1     -12.545  -6.711  15.377  0.00  0.00    +0.026 A 
ATOM     19  C   UNL     1     -11.580  -5.990  15.972  0.00  0.00    +0.024 A 
ATOM     20  C   UNL     1     -11.707  -8.772  16.415  0.00  0.00    +0.273 A 
ATOM     23  C   UNL     1     -10.634  -7.937  17.041  0.00  0.00    +0.100 A 
ATOM     24  C   UNL     1     -10.605  -6.618  16.819  0.00  0.00    +0.030 A 
ENDROOT
BRANCH   4  15
ATOM      1  O   UNL     1     -10.273  -6.952   9.215  0.00  0.00    -0.380 OA
ATOM     15  C   UNL     1     -12.401  -7.418  11.096  0.00  0.00    +0.061 C 
ATOM     17  C   UNL     1     -11.955  -6.010  10.693  0.00  0.00    +0.047 C 
ATOM     18  C   UNL     1     -11.249  -8.409  10.896  0.00  0.00    +0.047 C 
ATOM     21  C   UNL     1     -11.355  -6.025   9.291  0.00  0.00    +0.161 C 
ATOM     22  C   UNL     1     -10.687  -8.291   9.484  0.00  0.00    +0.161 C 
ENDBRANCH   4  15
BRANCH  23   6
ATOM      3  O   UNL     1      -8.202  -9.130  16.172  0.00  0.00    -0.252 OA
ATOM      6  N   UNL     1      -9.717  -8.561  17.834  0.00  0.00    -0.265 N 
ATOM      7  N   UNL     1      -7.807  -9.693  18.416  0.00  0.00    -0.269 N 
ATOM     25  C   UNL     1      -8.530  -9.134  17.357  0.00  0.00    +0.308 C 
ATOM     33  H   UNL     1     -10.022  -8.833  18.764  0.00  0.00    +0.157 HD
ATOM     34  H   UNL     1      -8.218  -9.609  19.343  0.00  0.00    +0.156 HD
BRANCH   7  26
ATOM     26  C   UNL     1      -6.563 -10.364  18.361  0.00  0.00    +0.036 A 
ATOM     27  C   UNL     1      -5.754 -10.241  17.230  0.00  0.00    +0.042 A 
ATOM     28  C   UNL     1      -6.147 -11.150  19.435  0.00  0.00    +0.023 A 
ATOM     29  C   UNL     1      -4.528 -10.903  17.176  0.00  0.00    +0.054 A 
ATOM     30  C   UNL     1      -4.919 -11.811  19.380  0.00  0.00    +0.003 A 
ATOM     31  C   UNL     1      -4.110 -11.688  18.251  0.00  0.00    +0.019 A 
BRANCH  29  32
ATOM      8  N   UNL     1      -3.024 -10.674  15.080  0.00  0.00    -0.191 NA
ATOM     32  C   UNL     1      -3.698 -10.777  16.019  0.00  0.00    +0.099 C 
ENDBRANCH  29  32
ENDBRANCH   7  26
ENDBRANCH  23   6
TORSDOF 4
ENDMDL
MODEL 10
REMARK VINA RESULT:      -6.9     25.340     28.235
REMARK  Name = 26742312
REMARK  4 active torsions:
REMARK  status: ('A' for Active; 'I' for Inactive)
REMARK    1  A    between atoms: N_4  and  C_15
REMARK    2  A    between atoms: N_6  and  C_23
REMARK    3  A    between atoms: N_7  and  C_26
REMARK    4  A    between atoms: C_29  and  C_32
REMARK                            x       y       z     vdW  Elec       q    Type
REMARK                         _______ _______ _______ _____ _____    ______ ____
ROOT
ATOM      2  O   UNL     1      13.311   7.350   3.891  0.00  0.00    -0.266 OA
ATOM      4  N   UNL     1       8.588   8.972   4.339  0.00  0.00    -0.298 NA
ATOM      5  N   UNL     1      11.430   7.803   5.202  0.00  0.00    -0.310 N 
ATOM      9  C   UNL     1       9.190   6.600   4.884  0.00  0.00    +0.024 C 
ATOM     10  C   UNL     1       9.408   8.324   6.608  0.00  0.00    +0.050 C 
ATOM     11  C   UNL     1       9.002   6.873   6.371  0.00  0.00    +0.017 C 
ATOM     12  C   UNL     1       8.309   7.559   4.055  0.00  0.00    +0.090 C 
ATOM     13  C   UNL     1       8.498   9.259   5.779  0.00  0.00    +0.094 C 
ATOM     14  C   UNL     1      10.681   6.724   4.542  0.00  0.00    +0.130 C 
ATOM     16  C   UNL     1      10.866   8.542   6.245  0.00  0.00    +0.026 A 
ATOM     19  C   UNL     1      11.603   9.450   6.907  0.00  0.00    +0.024 A 
ATOM     20  C   UNL     1      12.767   7.987   4.795  0.00  0.00    +0.273 A 
ATOM     23  C   UNL     1      13.548   9.024   5.541  0.00  0.00    +0.100 A 
ATOM     24  C   UNL     1      12.971   9.695   6.544  0.00  0.00    +0.030 A 
ENDROOT
BRANCH   4  15
ATOM      1  O   UNL     1       5.200  10.225   2.201  0.00  0.00    -0.380 OA
ATOM     15  C   UNL     1       7.700   9.845   3.576  0.00  0.00    +0.061 C 
ATOM     17  C   UNL     1       7.425   9.248   2.193  0.00  0.00    +0.047 C 
ATOM     18  C   UNL     1       6.380  10.075   4.320  0.00  0.00    +0.047 C 
ATOM     21  C   UNL     1       6.403  10.096   1.444  0.00  0.00    +0.161 C 
ATOM     22  C   UNL     1       5.416  10.876   3.452  0.00  0.00    +0.161 C 
ENDBRANCH   4  15
BRANCH  23   6
ATOM      3  O   UNL     1      15.838   7.692   6.577  0.00  0.00    -0.252 OA
ATOM      6  N   UNL     1      14.842   9.242   5.169  0.00  0.00    -0.265 N 
ATOM      7  N   UNL     1      17.125   9.009   5.122  0.00  0.00    -0.269 N 
ATOM     25  C   UNL     1      15.938   8.558   5.711  0.00  0.00    +0.308 C 
ATOM     33  H   UNL     1      15.035  10.101   4.661  0.00  0.00    +0.157 HD
ATOM     34  H   UNL     1      17.035   9.734   4.413  0.00  0.00    +0.156 HD
BRANCH   7  26
ATOM     26  C   UNL     1      18.445   8.578   5.387  0.00  0.00    +0.036 A 
ATOM     27  C   UNL     1      19.190   7.954   4.386  0.00  0.00    +0.042 A 
ATOM     28  C   UNL     1      19.002   8.777   6.651  0.00  0.00    +0.023 A 
ATOM     29  C   UNL     1      20.492   7.529   4.649  0.00  0.00    +0.054 A 
ATOM     30  C   UNL     1      20.305   8.353   6.913  0.00  0.00    +0.003 A 
ATOM     31  C   UNL     1      21.049   7.729   5.912  0.00  0.00    +0.019 A 
BRANCH  29  32
ATOM      8  N   UNL     1      21.877   6.371   2.792  0.00  0.00    -0.191 NA
ATOM     32  C   UNL     1      21.256   6.890   3.624  0.00  0.00    +0.099 C 
ENDBRANCH  29  32
ENDBRANCH   7  26
ENDBRANCH  23   6
TORSDOF 4
ENDMDL
