REMARK  Name = 75537139
REMARK  7 active torsions:
REMARK  status: ('A' for Active; 'I' for Inactive)
REMARK    1  A    between atoms: O_2  and  C_15
REMARK    2  A    between atoms: O_2  and  C_22
REMARK    3  A    between atoms: N_4  and  C_12
REMARK    4  A    between atoms: N_5  and  C_13
REMARK    5  A    between atoms: C_12  and  C_14
REMARK    6  A    between atoms: C_13  and  C_15
REMARK    7  A    between atoms: C_16  and  C_19
REMARK                            x       y       z     vdW  Elec       q    Type
REMARK                         _______ _______ _______ _____ _____    ______ ____
ROOT
ATOM      1  O   UNL     1       3.761   1.869  -0.308  0.00  0.00    -0.252 OA
ATOM      3  N   UNL     1       1.511   1.199  -0.372  0.00  0.00    -0.278 N 
ATOM      4  N   UNL     1      -1.147   0.841   0.477  0.00  0.00    -0.295 NA
ATOM      5  N   UNL     1       3.074  -0.254  -1.072  0.00  0.00    -0.281 N 
ATOM      6  C   UNL     1       0.757   0.071  -0.879  0.00  0.00    +0.109 C 
ATOM      7  C   UNL     1      -0.328  -0.334   0.117  0.00  0.00    +0.109 C 
ATOM      8  C   UNL     1       1.824  -0.992  -1.135  0.00  0.00    +0.133 C 
ATOM      9  C   UNL     1       0.801   2.350   0.147  0.00  0.00    +0.125 C 
ATOM     10  C   UNL     1      -0.313   1.895   1.092  0.00  0.00    +0.104 C 
ATOM     11  C   UNL     1       2.891   1.045  -0.556  0.00  0.00    +0.305 C 
ENDROOT
BRANCH   4  12
ATOM     12  C   UNL     1      -2.226   0.452   1.384  0.00  0.00    +0.120 C 
BRANCH  12  14
ATOM     14  C   UNL     1      -3.352  -0.232   0.654  0.00  0.00    -0.030 A 
ATOM     16  C   UNL     1      -4.263   0.500  -0.107  0.00  0.00    -0.046 A 
ATOM     17  C   UNL     1      -3.477  -1.618   0.748  0.00  0.00    +0.005 A 
ATOM     18  C   UNL     1      -5.298  -0.153  -0.775  0.00  0.00    +0.003 A 
ATOM     19  C   UNL     1      -4.149   1.985  -0.223  0.00  0.00    +0.044 C 
ATOM     20  C   UNL     1      -4.512  -2.272   0.080  0.00  0.00    +0.000 A 
ATOM     21  C   UNL     1      -5.423  -1.540  -0.681  0.00  0.00    +0.000 A 
ENDBRANCH  12  14
ENDBRANCH   4  12
BRANCH   5  13
ATOM     13  C   UNL     1       4.346  -0.874  -1.369  0.00  0.00    +0.137 C 
BRANCH  13  15
ATOM     15  C   UNL     1       4.871  -1.666  -0.185  0.00  0.00    +0.178 C 
BRANCH  15   2
ATOM      2  O   UNL     1       5.077  -0.789   0.915  0.00  0.00    -0.381 OA
ATOM     22  C   UNL     1       5.574  -1.485   2.050  0.00  0.00    +0.194 C 
ENDBRANCH  15   2
ENDBRANCH  13  15
ENDBRANCH   5  13
TORSDOF 5
