MODEL 1
REMARK VINA RESULT:      -6.4      0.000      0.000
REMARK  Name = 51136601
REMARK  10 active torsions:
REMARK  status: ('A' for Active; 'I' for Inactive)
REMARK    1  A    between atoms: O_3  and  C_19
REMARK    2  A    between atoms: O_5  and  C_26
REMARK    3  A    between atoms: O_5  and  C_33
REMARK    4  A    between atoms: O_6  and  C_27
REMARK    5  A    between atoms: O_6  and  C_34
REMARK    6  A    between atoms: C_9  and  C_14
REMARK    7  A    between atoms: C_10  and  C_15
REMARK    8  A    between atoms: C_14  and  C_16
REMARK    9  A    between atoms: C_15  and  C_19
REMARK   10  A    between atoms: C_17  and  C_23
REMARK                            x       y       z     vdW  Elec       q    Type
REMARK                         _______ _______ _______ _____ _____    ______ ____
ROOT
ATOM      2  O   UNL     1      17.077  12.162  19.525  0.00  0.00    -0.270 OA
ATOM      7  N   UNL     1      15.705  12.494  17.658  0.00  0.00    -0.297 N 
ATOM      9  C   UNL     1      14.514  11.584  15.676  0.00  0.00    +0.016 C 
ATOM     10  C   UNL     1      15.622  12.192  14.780  0.00  0.00    +0.006 C 
ATOM     11  C   UNL     1      16.952  12.331  15.540  0.00  0.00    +0.023 C 
ATOM     12  C   UNL     1      14.402  12.383  16.987  0.00  0.00    +0.112 C 
ATOM     13  C   UNL     1      16.763  13.094  16.848  0.00  0.00    +0.108 C 
ATOM     17  C   UNL     1      15.987  12.076  18.962  0.00  0.00    +0.247 C 
ENDROOT
BRANCH  17  23
ATOM      1  F   UNL     1      11.838   9.794  21.945  0.00  0.00    -0.205 F 
ATOM     23  C   UNL     1      14.899  11.477  19.744  0.00  0.00    +0.037 A 
ATOM     28  C   UNL     1      13.574  11.798  19.452  0.00  0.00    +0.016 A 
ATOM     29  C   UNL     1      15.191  10.590  20.779  0.00  0.00    +0.016 A 
ATOM     30  C   UNL     1      12.539  11.230  20.195  0.00  0.00    +0.039 A 
ATOM     31  C   UNL     1      14.157  10.022  21.522  0.00  0.00    +0.039 A 
ATOM     32  C   UNL     1      12.831  10.341  21.231  0.00  0.00    +0.123 A 
ENDBRANCH  17  23
BRANCH   9  14
ATOM     14  C   UNL     1      14.706  10.091  15.978  0.00  0.00    +0.061 C 
BRANCH  14  16
ATOM      8  N   UNL     1      12.403   9.682  15.430  0.00  0.00    -0.287 NA
ATOM     16  C   UNL     1      13.368   9.449  16.258  0.00  0.00    +0.044 C 
ATOM     18  C   UNL     1      13.225   8.593  17.463  0.00  0.00    +0.003 A 
ATOM     20  C   UNL     1      11.920   8.338  17.903  0.00  0.00    -0.033 A 
ATOM     21  C   UNL     1      10.774   8.946  17.151  0.00  0.00    +0.059 C 
ATOM     22  C   UNL     1      11.122   9.010  15.669  0.00  0.00    +0.146 C 
ATOM     24  C   UNL     1      14.321   8.068  18.151  0.00  0.00    +0.059 A 
ATOM     25  C   UNL     1      11.718   7.572  19.055  0.00  0.00    +0.053 A 
ATOM     26  C   UNL     1      14.109   7.292  19.292  0.00  0.00    +0.162 A 
ATOM     27  C   UNL     1      12.812   7.046  19.744  0.00  0.00    +0.162 A 
BRANCH  26   5
ATOM      5  O   UNL     1      15.180   6.780  19.959  0.00  0.00    -0.491 OA
ATOM     33  C   UNL     1      16.286   6.343  19.171  0.00  0.00    +0.277 C 
ENDBRANCH  26   5
BRANCH  27   6
ATOM      6  O   UNL     1      12.600   6.296  20.861  0.00  0.00    -0.491 OA
ATOM     34  C   UNL     1      11.338   6.442  21.509  0.00  0.00    +0.277 C 
ENDBRANCH  27   6
ENDBRANCH  14  16
ENDBRANCH   9  14
BRANCH  10  15
ATOM     15  C   UNL     1      15.826  11.426  13.473  0.00  0.00    +0.124 C 
BRANCH  15  19
ATOM      4  O   UNL     1      15.991  13.222  11.833  0.00  0.00    -0.251 OA
ATOM     19  C   UNL     1      15.412  12.243  12.280  0.00  0.00    +0.305 C 
BRANCH  19   3
ATOM      3  O   UNL     1      14.272  11.732  11.749  0.00  0.00    -0.481 OA
ATOM     35  H   UNL     1      14.449  11.205  10.941  0.00  0.00    +0.295 HD
ENDBRANCH  19   3
ENDBRANCH  15  19
ENDBRANCH  10  15
TORSDOF 8
ENDMDL
MODEL 2
REMARK VINA RESULT:      -6.3     27.049     29.596
REMARK  Name = 51136601
REMARK  10 active torsions:
REMARK  status: ('A' for Active; 'I' for Inactive)
REMARK    1  A    between atoms: O_3  and  C_19
REMARK    2  A    between atoms: O_5  and  C_26
REMARK    3  A    between atoms: O_5  and  C_33
REMARK    4  A    between atoms: O_6  and  C_27
REMARK    5  A    between atoms: O_6  and  C_34
REMARK    6  A    between atoms: C_9  and  C_14
REMARK    7  A    between atoms: C_10  and  C_15
REMARK    8  A    between atoms: C_14  and  C_16
REMARK    9  A    between atoms: C_15  and  C_19
REMARK   10  A    between atoms: C_17  and  C_23
REMARK                            x       y       z     vdW  Elec       q    Type
REMARK                         _______ _______ _______ _____ _____    ______ ____
ROOT
ATOM      2  O   UNL     1      -1.491  -9.950  12.233  0.00  0.00    -0.270 OA
ATOM      7  N   UNL     1      -2.814 -11.310  13.603  0.00  0.00    -0.297 N 
ATOM      9  C   UNL     1      -4.691 -11.562  15.211  0.00  0.00    +0.016 C 
ATOM     10  C   UNL     1      -3.647 -11.693  16.349  0.00  0.00    +0.006 C 
ATOM     11  C   UNL     1      -2.333 -10.978  15.996  0.00  0.00    +0.023 C 
ATOM     12  C   UNL     1      -4.073 -12.017  13.877  0.00  0.00    +0.112 C 
ATOM     13  C   UNL     1      -1.798 -11.441  14.644  0.00  0.00    +0.108 C 
ATOM     17  C   UNL     1      -2.541 -10.548  12.464  0.00  0.00    +0.247 C 
ENDROOT
BRANCH  17  23
ATOM      1  F   UNL     1      -6.529 -10.130   8.561  0.00  0.00    -0.205 F 
ATOM     23  C   UNL     1      -3.586 -10.438  11.440  0.00  0.00    +0.037 A 
ATOM     28  C   UNL     1      -3.685 -11.404  10.440  0.00  0.00    +0.016 A 
ATOM     29  C   UNL     1      -4.480  -9.368  11.469  0.00  0.00    +0.016 A 
ATOM     30  C   UNL     1      -4.679 -11.301   9.466  0.00  0.00    +0.039 A 
ATOM     31  C   UNL     1      -5.473  -9.264  10.495  0.00  0.00    +0.039 A 
ATOM     32  C   UNL     1      -5.573 -10.229   9.494  0.00  0.00    +0.123 A 
ENDBRANCH  17  23
BRANCH   9  14
ATOM     14  C   UNL     1      -5.285 -10.154  15.070  0.00  0.00    +0.061 C 
BRANCH  14  16
ATOM      8  N   UNL     1      -7.149 -10.305  13.564  0.00  0.00    -0.287 NA
ATOM     16  C   UNL     1      -6.767 -10.248  14.797  0.00  0.00    +0.044 C 
ATOM     18  C   UNL     1      -7.707 -10.265  15.947  0.00  0.00    +0.003 A 
ATOM     20  C   UNL     1      -9.046  -9.964  15.671  0.00  0.00    -0.033 A 
ATOM     21  C   UNL     1      -9.436  -9.637  14.260  0.00  0.00    +0.059 C 
ATOM     22  C   UNL     1      -8.584 -10.458  13.300  0.00  0.00    +0.146 C 
ATOM     24  C   UNL     1      -7.298 -10.549  17.252  0.00  0.00    +0.059 A 
ATOM     25  C   UNL     1      -9.974  -9.924  16.716  0.00  0.00    +0.053 A 
ATOM     26  C   UNL     1      -8.234 -10.521  18.287  0.00  0.00    +0.162 A 
ATOM     27  C   UNL     1      -9.568 -10.207  18.021  0.00  0.00    +0.162 A 
BRANCH  26   5
ATOM      5  O   UNL     1      -7.832 -10.801  19.558  0.00  0.00    -0.491 OA
ATOM     33  C   UNL     1      -7.397 -12.133  19.821  0.00  0.00    +0.277 C 
ENDBRANCH  26   5
BRANCH  27   6
ATOM      6  O   UNL     1     -10.484 -10.171  19.029  0.00  0.00    -0.491 OA
ATOM     34  C   UNL     1     -11.796  -9.724  18.695  0.00  0.00    +0.277 C 
ENDBRANCH  27   6
ENDBRANCH  14  16
ENDBRANCH   9  14
BRANCH  10  15
ATOM     15  C   UNL     1      -4.172 -11.219  17.704  0.00  0.00    +0.124 C 
BRANCH  15  19
ATOM      4  O   UNL     1      -3.330 -12.028  19.843  0.00  0.00    -0.251 OA
ATOM     19  C   UNL     1      -3.909 -12.229  18.786  0.00  0.00    +0.305 C 
BRANCH  19   3
ATOM      3  O   UNL     1      -4.418 -13.433  18.421  0.00  0.00    -0.481 OA
ATOM     35  H   UNL     1      -5.399 -13.432  18.423  0.00  0.00    +0.295 HD
ENDBRANCH  19   3
ENDBRANCH  15  19
ENDBRANCH  10  15
TORSDOF 8
ENDMDL
MODEL 3
REMARK VINA RESULT:      -6.2      2.851      4.880
REMARK  Name = 51136601
REMARK  10 active torsions:
REMARK  status: ('A' for Active; 'I' for Inactive)
REMARK    1  A    between atoms: O_3  and  C_19
REMARK    2  A    between atoms: O_5  and  C_26
REMARK    3  A    between atoms: O_5  and  C_33
REMARK    4  A    between atoms: O_6  and  C_27
REMARK    5  A    between atoms: O_6  and  C_34
REMARK    6  A    between atoms: C_9  and  C_14
REMARK    7  A    between atoms: C_10  and  C_15
REMARK    8  A    between atoms: C_14  and  C_16
REMARK    9  A    between atoms: C_15  and  C_19
REMARK   10  A    between atoms: C_17  and  C_23
REMARK                            x       y       z     vdW  Elec       q    Type
REMARK                         _______ _______ _______ _____ _____    ______ ____
ROOT
ATOM      2  O   UNL     1      12.223  11.298  24.348  0.00  0.00    -0.270 OA
ATOM      7  N   UNL     1      11.933  12.243  22.227  0.00  0.00    -0.297 N 
ATOM      9  C   UNL     1      12.815  12.746  19.959  0.00  0.00    +0.016 C 
ATOM     10  C   UNL     1      13.038  14.211  20.414  0.00  0.00    +0.006 C 
ATOM     11  C   UNL     1      13.247  14.306  21.934  0.00  0.00    +0.023 C 
ATOM     12  C   UNL     1      11.684  12.106  20.785  0.00  0.00    +0.112 C 
ATOM     13  C   UNL     1      12.116  13.616  22.691  0.00  0.00    +0.108 C 
ATOM     17  C   UNL     1      12.010  11.189  23.142  0.00  0.00    +0.247 C 
ENDROOT
BRANCH  17  23
ATOM      1  F   UNL     1      11.294   5.982  21.221  0.00  0.00    -0.205 F 
ATOM     23  C   UNL     1      11.822   9.824  22.638  0.00  0.00    +0.037 A 
ATOM     28  C   UNL     1      12.912   9.107  22.144  0.00  0.00    +0.016 A 
ATOM     29  C   UNL     1      10.554   9.243  22.653  0.00  0.00    +0.016 A 
ATOM     30  C   UNL     1      12.734   7.809  21.665  0.00  0.00    +0.039 A 
ATOM     31  C   UNL     1      10.376   7.946  22.173  0.00  0.00    +0.039 A 
ATOM     32  C   UNL     1      11.465   7.229  21.679  0.00  0.00    +0.123 A 
ENDBRANCH  17  23
BRANCH   9  14
ATOM     14  C   UNL     1      14.077  11.876  20.022  0.00  0.00    +0.061 C 
BRANCH  14  16
ATOM      8  N   UNL     1      13.562  11.316  17.744  0.00  0.00    -0.287 NA
ATOM     16  C   UNL     1      14.101  10.923  18.851  0.00  0.00    +0.044 C 
ATOM     18  C   UNL     1      14.732   9.590  19.026  0.00  0.00    +0.003 A 
ATOM     20  C   UNL     1      14.404   8.608  18.082  0.00  0.00    -0.033 A 
ATOM     21  C   UNL     1      13.444   8.956  16.984  0.00  0.00    +0.059 C 
ATOM     22  C   UNL     1      13.640  10.414  16.589  0.00  0.00    +0.146 C 
ATOM     24  C   UNL     1      15.600   9.299  20.080  0.00  0.00    +0.059 A 
ATOM     25  C   UNL     1      14.933   7.321  18.215  0.00  0.00    +0.053 A 
ATOM     26  C   UNL     1      16.135   8.014  20.195  0.00  0.00    +0.162 A 
ATOM     27  C   UNL     1      15.801   7.027  19.267  0.00  0.00    +0.162 A 
BRANCH  26   5
ATOM      5  O   UNL     1      16.984   7.734  21.223  0.00  0.00    -0.491 OA
ATOM     33  C   UNL     1      17.921   8.748  21.584  0.00  0.00    +0.277 C 
ENDBRANCH  26   5
BRANCH  27   6
ATOM      6  O   UNL     1      16.314   5.770  19.379  0.00  0.00    -0.491 OA
ATOM     34  C   UNL     1      17.544   5.511  18.706  0.00  0.00    +0.277 C 
ENDBRANCH  27   6
ENDBRANCH  14  16
ENDBRANCH   9  14
BRANCH  10  15
ATOM     15  C   UNL     1      14.178  14.905  19.668  0.00  0.00    +0.124 C 
BRANCH  15  19
ATOM      4  O   UNL     1      13.014  15.577  17.635  0.00  0.00    -0.251 OA
ATOM     19  C   UNL     1      13.917  14.968  18.189  0.00  0.00    +0.305 C 
BRANCH  19   3
ATOM      3  O   UNL     1      14.847  14.232  17.528  0.00  0.00    -0.481 OA
ATOM     35  H   UNL     1      14.894  13.313  17.866  0.00  0.00    +0.295 HD
ENDBRANCH  19   3
ENDBRANCH  15  19
ENDBRANCH  10  15
TORSDOF 8
ENDMDL
MODEL 4
REMARK VINA RESULT:      -6.1      3.087      7.088
REMARK  Name = 51136601
REMARK  10 active torsions:
REMARK  status: ('A' for Active; 'I' for Inactive)
REMARK    1  A    between atoms: O_3  and  C_19
REMARK    2  A    between atoms: O_5  and  C_26
REMARK    3  A    between atoms: O_5  and  C_33
REMARK    4  A    between atoms: O_6  and  C_27
REMARK    5  A    between atoms: O_6  and  C_34
REMARK    6  A    between atoms: C_9  and  C_14
REMARK    7  A    between atoms: C_10  and  C_15
REMARK    8  A    between atoms: C_14  and  C_16
REMARK    9  A    between atoms: C_15  and  C_19
REMARK   10  A    between atoms: C_17  and  C_23
REMARK                            x       y       z     vdW  Elec       q    Type
REMARK                         _______ _______ _______ _____ _____    ______ ____
ROOT
ATOM      2  O   UNL     1      13.215   8.827  15.079  0.00  0.00    -0.270 OA
ATOM      7  N   UNL     1      12.759   9.533  17.262  0.00  0.00    -0.297 N 
ATOM      9  C   UNL     1      13.397   9.650  19.661  0.00  0.00    +0.016 C 
ATOM     10  C   UNL     1      12.337   8.558  19.956  0.00  0.00    +0.006 C 
ATOM     11  C   UNL     1      12.082   7.671  18.726  0.00  0.00    +0.023 C 
ATOM     12  C   UNL     1      13.004  10.436  18.397  0.00  0.00    +0.112 C 
ATOM     13  C   UNL     1      11.741   8.513  17.499  0.00  0.00    +0.108 C 
ATOM     17  C   UNL     1      13.413   9.583  16.028  0.00  0.00    +0.247 C 
ENDROOT
BRANCH  17  23
ATOM      1  F   UNL     1      17.290  13.545  15.264  0.00  0.00    -0.205 F 
ATOM     23  C   UNL     1      14.430  10.622  15.828  0.00  0.00    +0.037 A 
ATOM     28  C   UNL     1      15.419  10.451  14.860  0.00  0.00    +0.016 A 
ATOM     29  C   UNL     1      14.407  11.779  16.606  0.00  0.00    +0.016 A 
ATOM     30  C   UNL     1      16.386  11.438  14.669  0.00  0.00    +0.039 A 
ATOM     31  C   UNL     1      15.373  12.766  16.415  0.00  0.00    +0.039 A 
ATOM     32  C   UNL     1      16.363  12.596  15.448  0.00  0.00    +0.123 A 
ENDBRANCH  17  23
BRANCH   9  14
ATOM     14  C   UNL     1      14.828   9.110  19.529  0.00  0.00    +0.061 C 
BRANCH  14  16
ATOM      8  N   UNL     1      15.262  10.688  21.287  0.00  0.00    -0.287 NA
ATOM     16  C   UNL     1      15.682   9.642  20.655  0.00  0.00    +0.044 C 
ATOM     18  C   UNL     1      16.955   8.949  20.975  0.00  0.00    +0.003 A 
ATOM     20  C   UNL     1      17.890   9.665  21.732  0.00  0.00    -0.033 A 
ATOM     21  C   UNL     1      17.557  11.066  22.151  0.00  0.00    +0.059 C 
ATOM     22  C   UNL     1      16.061  11.168  22.419  0.00  0.00    +0.146 C 
ATOM     24  C   UNL     1      17.238   7.651  20.542  0.00  0.00    +0.059 A 
ATOM     25  C   UNL     1      19.126   9.083  22.033  0.00  0.00    +0.053 A 
ATOM     26  C   UNL     1      18.468   7.073  20.861  0.00  0.00    +0.162 A 
ATOM     27  C   UNL     1      19.410   7.788  21.602  0.00  0.00    +0.162 A 
BRANCH  26   5
ATOM      5  O   UNL     1      18.740   5.806  20.438  0.00  0.00    -0.491 OA
ATOM     33  C   UNL     1      18.117   5.380  19.229  0.00  0.00    +0.277 C 
ENDBRANCH  26   5
BRANCH  27   6
ATOM      6  O   UNL     1      20.615   7.231  21.909  0.00  0.00    -0.491 OA
ATOM     34  C   UNL     1      20.752   6.658  23.207  0.00  0.00    +0.277 C 
ENDBRANCH  27   6
ENDBRANCH  14  16
ENDBRANCH   9  14
BRANCH  10  15
ATOM     15  C   UNL     1      12.679   7.703  21.176  0.00  0.00    +0.124 C 
BRANCH  15  19
ATOM      4  O   UNL     1      10.396   7.273  21.914  0.00  0.00    -0.251 OA
ATOM     19  C   UNL     1      11.508   6.867  21.613  0.00  0.00    +0.305 C 
BRANCH  19   3
ATOM      3  O   UNL     1      11.863   5.556  21.629  0.00  0.00    -0.481 OA
ATOM     35  H   UNL     1      12.378   5.327  22.432  0.00  0.00    +0.295 HD
ENDBRANCH  19   3
ENDBRANCH  15  19
ENDBRANCH  10  15
TORSDOF 8
ENDMDL
MODEL 5
REMARK VINA RESULT:      -5.9     27.270     29.852
REMARK  Name = 51136601
REMARK  10 active torsions:
REMARK  status: ('A' for Active; 'I' for Inactive)
REMARK    1  A    between atoms: O_3  and  C_19
REMARK    2  A    between atoms: O_5  and  C_26
REMARK    3  A    between atoms: O_5  and  C_33
REMARK    4  A    between atoms: O_6  and  C_27
REMARK    5  A    between atoms: O_6  and  C_34
REMARK    6  A    between atoms: C_9  and  C_14
REMARK    7  A    between atoms: C_10  and  C_15
REMARK    8  A    between atoms: C_14  and  C_16
REMARK    9  A    between atoms: C_15  and  C_19
REMARK   10  A    between atoms: C_17  and  C_23
REMARK                            x       y       z     vdW  Elec       q    Type
REMARK                         _______ _______ _______ _____ _____    ______ ____
ROOT
ATOM      2  O   UNL     1      -8.786 -10.485  12.768  0.00  0.00    -0.270 OA
ATOM      7  N   UNL     1      -7.658  -9.940  14.744  0.00  0.00    -0.297 N 
ATOM      9  C   UNL     1      -6.113 -10.577  16.583  0.00  0.00    +0.016 C 
ATOM     10  C   UNL     1      -7.345 -10.735  17.510  0.00  0.00    +0.006 C 
ATOM     11  C   UNL     1      -8.615 -11.072  16.710  0.00  0.00    +0.023 C 
ATOM     12  C   UNL     1      -6.427  -9.573  15.459  0.00  0.00    +0.112 C 
ATOM     13  C   UNL     1      -8.844 -10.065  15.587  0.00  0.00    +0.108 C 
ATOM     17  C   UNL     1      -7.760 -10.172  13.369  0.00  0.00    +0.247 C 
ENDROOT
BRANCH  17  23
ATOM      1  F   UNL     1      -3.134  -9.657  10.263  0.00  0.00    -0.205 F 
ATOM     23  C   UNL     1      -6.547 -10.037  12.555  0.00  0.00    +0.037 A 
ATOM     28  C   UNL     1      -5.633 -11.088  12.487  0.00  0.00    +0.016 A 
ATOM     29  C   UNL     1      -6.308  -8.858  11.850  0.00  0.00    +0.016 A 
ATOM     30  C   UNL     1      -4.480 -10.961  11.713  0.00  0.00    +0.039 A 
ATOM     31  C   UNL     1      -5.155  -8.729  11.077  0.00  0.00    +0.039 A 
ATOM     32  C   UNL     1      -4.240  -9.780  11.008  0.00  0.00    +0.123 A 
ENDBRANCH  17  23
BRANCH   9  14
ATOM     14  C   UNL     1      -5.606 -11.898  15.989  0.00  0.00    +0.061 C 
BRANCH  14  16
ATOM      8  N   UNL     1      -3.455 -10.951  16.484  0.00  0.00    -0.287 NA
ATOM     16  C   UNL     1      -4.109 -11.837  15.807  0.00  0.00    +0.044 C 
ATOM     18  C   UNL     1      -3.463 -12.786  14.865  0.00  0.00    +0.003 A 
ATOM     20  C   UNL     1      -2.172 -12.462  14.429  0.00  0.00    -0.033 A 
ATOM     21  C   UNL     1      -1.542 -11.194  14.923  0.00  0.00    +0.059 C 
ATOM     22  C   UNL     1      -1.995 -10.932  16.354  0.00  0.00    +0.146 C 
ATOM     24  C   UNL     1      -4.097 -13.943  14.406  0.00  0.00    +0.059 A 
ATOM     25  C   UNL     1      -1.526 -13.294  13.509  0.00  0.00    +0.053 A 
ATOM     26  C   UNL     1      -3.437 -14.775  13.500  0.00  0.00    +0.162 A 
ATOM     27  C   UNL     1      -2.157 -14.450  13.051  0.00  0.00    +0.162 A 
BRANCH  26   5
ATOM      5  O   UNL     1      -4.057 -15.905  13.057  0.00  0.00    -0.491 OA
ATOM     33  C   UNL     1      -5.364 -15.753  12.508  0.00  0.00    +0.277 C 
ENDBRANCH  26   5
BRANCH  27   6
ATOM      6  O   UNL     1      -1.512 -15.255  12.160  0.00  0.00    -0.491 OA
ATOM     34  C   UNL     1      -0.533 -16.149  12.686  0.00  0.00    +0.277 C 
ENDBRANCH  27   6
ENDBRANCH  14  16
ENDBRANCH   9  14
BRANCH  10  15
ATOM     15  C   UNL     1      -7.127 -11.752  18.630  0.00  0.00    +0.124 C 
BRANCH  15  19
ATOM      4  O   UNL     1      -6.241 -10.456  20.495  0.00  0.00    -0.251 OA
ATOM     19  C   UNL     1      -6.087 -11.285  19.610  0.00  0.00    +0.305 C 
BRANCH  19   3
ATOM      3  O   UNL     1      -4.914 -11.926  19.373  0.00  0.00    -0.481 OA
ATOM     35  H   UNL     1      -4.152 -11.308  19.376  0.00  0.00    +0.295 HD
ENDBRANCH  19   3
ENDBRANCH  15  19
ENDBRANCH  10  15
TORSDOF 8
ENDMDL
MODEL 6
REMARK VINA RESULT:      -5.8     26.759     29.514
REMARK  Name = 51136601
REMARK  10 active torsions:
REMARK  status: ('A' for Active; 'I' for Inactive)
REMARK    1  A    between atoms: O_3  and  C_19
REMARK    2  A    between atoms: O_5  and  C_26
REMARK    3  A    between atoms: O_5  and  C_33
REMARK    4  A    between atoms: O_6  and  C_27
REMARK    5  A    between atoms: O_6  and  C_34
REMARK    6  A    between atoms: C_9  and  C_14
REMARK    7  A    between atoms: C_10  and  C_15
REMARK    8  A    between atoms: C_14  and  C_16
REMARK    9  A    between atoms: C_15  and  C_19
REMARK   10  A    between atoms: C_17  and  C_23
REMARK                            x       y       z     vdW  Elec       q    Type
REMARK                         _______ _______ _______ _____ _____    ______ ____
ROOT
ATOM      2  O   UNL     1      -7.549 -13.883  12.254  0.00  0.00    -0.270 OA
ATOM      7  N   UNL     1      -5.446 -13.129  11.560  0.00  0.00    -0.297 N 
ATOM      9  C   UNL     1      -3.729 -11.335  11.465  0.00  0.00    +0.016 C 
ATOM     10  C   UNL     1      -4.139 -11.074   9.993  0.00  0.00    +0.006 C 
ATOM     11  C   UNL     1      -5.598 -11.485   9.732  0.00  0.00    +0.023 C 
ATOM     12  C   UNL     1      -4.044 -12.793  11.847  0.00  0.00    +0.112 C 
ATOM     13  C   UNL     1      -5.854 -12.923  10.172  0.00  0.00    +0.108 C 
ATOM     17  C   UNL     1      -6.374 -13.606  12.489  0.00  0.00    +0.247 C 
ENDROOT
BRANCH  17  23
ATOM      1  F   UNL     1      -4.671 -14.342  17.768  0.00  0.00    -0.205 F 
ATOM     23  C   UNL     1      -5.927 -13.799  13.873  0.00  0.00    +0.037 A 
ATOM     28  C   UNL     1      -6.779 -13.479  14.931  0.00  0.00    +0.016 A 
ATOM     29  C   UNL     1      -4.652 -14.301  14.131  0.00  0.00    +0.016 A 
ATOM     30  C   UNL     1      -6.355 -13.662  16.247  0.00  0.00    +0.039 A 
ATOM     31  C   UNL     1      -4.228 -14.483  15.447  0.00  0.00    +0.039 A 
ATOM     32  C   UNL     1      -5.078 -14.164  16.505  0.00  0.00    +0.123 A 
ENDBRANCH  17  23
BRANCH   9  14
ATOM     14  C   UNL     1      -4.370 -10.371  12.471  0.00  0.00    +0.061 C 
BRANCH  14  16
ATOM      8  N   UNL     1      -2.318 -10.487  13.713  0.00  0.00    -0.287 NA
ATOM     16  C   UNL     1      -3.606 -10.405  13.773  0.00  0.00    +0.044 C 
ATOM     18  C   UNL     1      -4.364 -10.348  15.048  0.00  0.00    +0.003 A 
ATOM     20  C   UNL     1      -3.689 -10.765  16.202  0.00  0.00    -0.033 A 
ATOM     21  C   UNL     1      -2.274 -11.246  16.075  0.00  0.00    +0.059 C 
ATOM     22  C   UNL     1      -1.572 -10.458  14.976  0.00  0.00    +0.146 C 
ATOM     24  C   UNL     1      -5.692  -9.919  15.120  0.00  0.00    +0.059 A 
ATOM     25  C   UNL     1      -4.360 -10.774  17.429  0.00  0.00    +0.053 A 
ATOM     26  C   UNL     1      -6.348  -9.917  16.352  0.00  0.00    +0.162 A 
ATOM     27  C   UNL     1      -5.685 -10.346  17.503  0.00  0.00    +0.162 A 
BRANCH  26   5
ATOM      5  O   UNL     1      -7.642  -9.496  16.418  0.00  0.00    -0.491 OA
ATOM     33  C   UNL     1      -8.617 -10.292  15.747  0.00  0.00    +0.277 C 
ENDBRANCH  26   5
BRANCH  27   6
ATOM      6  O   UNL     1      -6.324 -10.354  18.706  0.00  0.00    -0.491 OA
ATOM     34  C   UNL     1      -6.605 -11.628  19.282  0.00  0.00    +0.277 C 
ENDBRANCH  27   6
ENDBRANCH  14  16
ENDBRANCH   9  14
BRANCH  10  15
ATOM     15  C   UNL     1      -3.897  -9.632   9.549  0.00  0.00    +0.124 C 
BRANCH  15  19
ATOM      4  O   UNL     1      -5.998  -8.404   9.684  0.00  0.00    -0.251 OA
ATOM     19  C   UNL     1      -5.154  -8.994   9.026  0.00  0.00    +0.305 C 
BRANCH  19   3
ATOM      3  O   UNL     1      -5.229  -9.166   7.681  0.00  0.00    -0.481 OA
ATOM     35  H   UNL     1      -6.159  -9.197   7.368  0.00  0.00    +0.295 HD
ENDBRANCH  19   3
ENDBRANCH  15  19
ENDBRANCH  10  15
TORSDOF 8
ENDMDL
MODEL 7
REMARK VINA RESULT:      -5.7     26.932     29.773
REMARK  Name = 51136601
REMARK  10 active torsions:
REMARK  status: ('A' for Active; 'I' for Inactive)
REMARK    1  A    between atoms: O_3  and  C_19
REMARK    2  A    between atoms: O_5  and  C_26
REMARK    3  A    between atoms: O_5  and  C_33
REMARK    4  A    between atoms: O_6  and  C_27
REMARK    5  A    between atoms: O_6  and  C_34
REMARK    6  A    between atoms: C_9  and  C_14
REMARK    7  A    between atoms: C_10  and  C_15
REMARK    8  A    between atoms: C_14  and  C_16
REMARK    9  A    between atoms: C_15  and  C_19
REMARK   10  A    between atoms: C_17  and  C_23
REMARK                            x       y       z     vdW  Elec       q    Type
REMARK                         _______ _______ _______ _____ _____    ______ ____
ROOT
ATOM      2  O   UNL     1      -8.365 -11.099  19.474  0.00  0.00    -0.270 OA
ATOM      7  N   UNL     1      -6.806 -10.133  18.021  0.00  0.00    -0.297 N 
ATOM      9  C   UNL     1      -5.554 -10.175  15.875  0.00  0.00    +0.016 C 
ATOM     10  C   UNL     1      -4.303 -10.647  16.659  0.00  0.00    +0.006 C 
ATOM     11  C   UNL     1      -4.691 -11.394  17.946  0.00  0.00    +0.023 C 
ATOM     12  C   UNL     1      -6.485  -9.374  16.804  0.00  0.00    +0.112 C 
ATOM     13  C   UNL     1      -5.647 -10.565  18.799  0.00  0.00    +0.108 C 
ATOM     17  C   UNL     1      -8.092 -10.459  18.460  0.00  0.00    +0.247 C 
ENDROOT
BRANCH  17  23
ATOM      1  F   UNL     1     -12.436  -8.742  15.378  0.00  0.00    -0.205 F 
ATOM     23  C   UNL     1      -9.231 -10.009  17.652  0.00  0.00    +0.037 A 
ATOM     28  C   UNL     1      -9.449  -8.646  17.453  0.00  0.00    +0.016 A 
ATOM     29  C   UNL     1     -10.095 -10.944  17.083  0.00  0.00    +0.016 A 
ATOM     30  C   UNL     1     -10.531  -8.217  16.685  0.00  0.00    +0.039 A 
ATOM     31  C   UNL     1     -11.178 -10.516  16.316  0.00  0.00    +0.039 A 
ATOM     32  C   UNL     1     -11.397  -9.153  16.117  0.00  0.00    +0.123 A 
ENDBRANCH  17  23
BRANCH   9  14
ATOM     14  C   UNL     1      -6.330 -11.312  15.196  0.00  0.00    +0.061 C 
BRANCH  14  16
ATOM      8  N   UNL     1      -8.274 -10.327  14.188  0.00  0.00    -0.287 NA
ATOM     16  C   UNL     1      -7.078 -10.778  13.999  0.00  0.00    +0.044 C 
ATOM     18  C   UNL     1      -6.412 -10.800  12.671  0.00  0.00    +0.003 A 
ATOM     20  C   UNL     1      -7.240 -10.672  11.549  0.00  0.00    -0.033 A 
ATOM     21  C   UNL     1      -8.719 -10.536  11.755  0.00  0.00    +0.059 C 
ATOM     22  C   UNL     1      -8.978  -9.753  13.036  0.00  0.00    +0.146 C 
ATOM     24  C   UNL     1      -5.033 -10.957  12.521  0.00  0.00    +0.059 A 
ATOM     25  C   UNL     1      -6.679 -10.726  10.269  0.00  0.00    +0.053 A 
ATOM     26  C   UNL     1      -4.481 -10.994  11.240  0.00  0.00    +0.162 A 
ATOM     27  C   UNL     1      -5.301 -10.882  10.117  0.00  0.00    +0.162 A 
BRANCH  26   5
ATOM      5  O   UNL     1      -3.134 -11.144  11.097  0.00  0.00    -0.491 OA
ATOM     33  C   UNL     1      -2.340  -9.962  11.169  0.00  0.00    +0.277 C 
ENDBRANCH  26   5
BRANCH  27   6
ATOM      6  O   UNL     1      -4.768 -10.926   8.863  0.00  0.00    -0.491 OA
ATOM     34  C   UNL     1      -5.018  -9.808   8.014  0.00  0.00    +0.277 C 
ENDBRANCH  27   6
ENDBRANCH  14  16
ENDBRANCH   9  14
BRANCH  10  15
ATOM     15  C   UNL     1      -3.347 -11.489  15.814  0.00  0.00    +0.124 C 
BRANCH  15  19
ATOM      4  O   UNL     1      -1.678 -10.196  14.596  0.00  0.00    -0.251 OA
ATOM     19  C   UNL     1      -2.032 -10.791  15.603  0.00  0.00    +0.305 C 
BRANCH  19   3
ATOM      3  O   UNL     1      -1.264 -10.914  16.715  0.00  0.00    -0.481 OA
ATOM     35  H   UNL     1      -1.563 -11.654  17.286  0.00  0.00    +0.295 HD
ENDBRANCH  19   3
ENDBRANCH  15  19
ENDBRANCH  10  15
TORSDOF 8
ENDMDL
MODEL 8
REMARK VINA RESULT:      -5.7     27.011     29.941
REMARK  Name = 51136601
REMARK  10 active torsions:
REMARK  status: ('A' for Active; 'I' for Inactive)
REMARK    1  A    between atoms: O_3  and  C_19
REMARK    2  A    between atoms: O_5  and  C_26
REMARK    3  A    between atoms: O_5  and  C_33
REMARK    4  A    between atoms: O_6  and  C_27
REMARK    5  A    between atoms: O_6  and  C_34
REMARK    6  A    between atoms: C_9  and  C_14
REMARK    7  A    between atoms: C_10  and  C_15
REMARK    8  A    between atoms: C_14  and  C_16
REMARK    9  A    between atoms: C_15  and  C_19
REMARK   10  A    between atoms: C_17  and  C_23
REMARK                            x       y       z     vdW  Elec       q    Type
REMARK                         _______ _______ _______ _____ _____    ______ ____
ROOT
ATOM      2  O   UNL     1      -8.914 -11.046  18.605  0.00  0.00    -0.270 OA
ATOM      7  N   UNL     1      -6.994 -10.104  17.655  0.00  0.00    -0.297 N 
ATOM      9  C   UNL     1      -5.409  -9.917  15.751  0.00  0.00    +0.016 C 
ATOM     10  C   UNL     1      -4.403 -10.780  16.554  0.00  0.00    +0.006 C 
ATOM     11  C   UNL     1      -5.120 -11.700  17.555  0.00  0.00    +0.023 C 
ATOM     12  C   UNL     1      -6.351  -9.175  16.715  0.00  0.00    +0.112 C 
ATOM     13  C   UNL     1      -6.070 -10.909  18.450  0.00  0.00    +0.108 C 
ATOM     17  C   UNL     1      -8.372 -10.265  17.824  0.00  0.00    +0.247 C 
ENDROOT
BRANCH  17  23
ATOM      1  F   UNL     1     -11.791  -7.117  14.708  0.00  0.00    -0.205 F 
ATOM     23  C   UNL     1      -9.268  -9.440  17.008  0.00  0.00    +0.037 A 
ATOM     28  C   UNL     1      -9.728  -9.916  15.780  0.00  0.00    +0.016 A 
ATOM     29  C   UNL     1      -9.660  -8.180  17.458  0.00  0.00    +0.016 A 
ATOM     30  C   UNL     1     -10.581  -9.132  15.003  0.00  0.00    +0.039 A 
ATOM     31  C   UNL     1     -10.511  -7.395  16.681  0.00  0.00    +0.039 A 
ATOM     32  C   UNL     1     -10.972  -7.870  15.453  0.00  0.00    +0.123 A 
ENDBRANCH  17  23
BRANCH   9  14
ATOM     14  C   UNL     1      -6.221 -10.708  14.716  0.00  0.00    +0.061 C 
BRANCH  14  16
ATOM      8  N   UNL     1      -4.551 -10.264  13.048  0.00  0.00    -0.287 NA
ATOM     16  C   UNL     1      -5.814 -10.297  13.322  0.00  0.00    +0.044 C 
ATOM     18  C   UNL     1      -6.873  -9.949  12.341  0.00  0.00    +0.003 A 
ATOM     20  C   UNL     1      -6.474  -9.216  11.216  0.00  0.00    -0.033 A 
ATOM     21  C   UNL     1      -5.032  -8.827  11.083  0.00  0.00    +0.059 C 
ATOM     22  C   UNL     1      -4.158  -9.924  11.676  0.00  0.00    +0.146 C 
ATOM     24  C   UNL     1      -8.212 -10.308  12.516  0.00  0.00    +0.059 A 
ATOM     25  C   UNL     1      -7.431  -8.822  10.275  0.00  0.00    +0.053 A 
ATOM     26  C   UNL     1      -9.156  -9.923  11.563  0.00  0.00    +0.162 A 
ATOM     27  C   UNL     1      -8.768  -9.180  10.448  0.00  0.00    +0.162 A 
BRANCH  26   5
ATOM      5  O   UNL     1     -10.461 -10.277  11.735  0.00  0.00    -0.491 OA
ATOM     33  C   UNL     1     -10.792 -11.648  11.526  0.00  0.00    +0.277 C 
ENDBRANCH  26   5
BRANCH  27   6
ATOM      6  O   UNL     1      -9.688  -8.794   9.519  0.00  0.00    -0.491 OA
ATOM     34  C   UNL     1      -9.754  -7.403   9.212  0.00  0.00    +0.277 C 
ENDBRANCH  27   6
ENDBRANCH  14  16
ENDBRANCH   9  14
BRANCH  10  15
ATOM     15  C   UNL     1      -3.456 -11.584  15.663  0.00  0.00    +0.124 C 
BRANCH  15  19
ATOM      4  O   UNL     1      -1.563 -10.454  14.625  0.00  0.00    -0.251 OA
ATOM     19  C   UNL     1      -2.088 -10.964  15.604  0.00  0.00    +0.305 C 
BRANCH  19   3
ATOM      3  O   UNL     1      -1.494 -11.048  16.821  0.00  0.00    -0.481 OA
ATOM     35  H   UNL     1      -0.761 -10.403  16.916  0.00  0.00    +0.295 HD
ENDBRANCH  19   3
ENDBRANCH  15  19
ENDBRANCH  10  15
TORSDOF 8
ENDMDL
MODEL 9
REMARK VINA RESULT:      -5.7      5.166      8.901
REMARK  Name = 51136601
REMARK  10 active torsions:
REMARK  status: ('A' for Active; 'I' for Inactive)
REMARK    1  A    between atoms: O_3  and  C_19
REMARK    2  A    between atoms: O_5  and  C_26
REMARK    3  A    between atoms: O_5  and  C_33
REMARK    4  A    between atoms: O_6  and  C_27
REMARK    5  A    between atoms: O_6  and  C_34
REMARK    6  A    between atoms: C_9  and  C_14
REMARK    7  A    between atoms: C_10  and  C_15
REMARK    8  A    between atoms: C_14  and  C_16
REMARK    9  A    between atoms: C_15  and  C_19
REMARK   10  A    between atoms: C_17  and  C_23
REMARK                            x       y       z     vdW  Elec       q    Type
REMARK                         _______ _______ _______ _____ _____    ______ ____
ROOT
ATOM      2  O   UNL     1      12.093   6.551  21.609  0.00  0.00    -0.270 OA
ATOM      7  N   UNL     1      12.324   8.845  21.210  0.00  0.00    -0.297 N 
ATOM      9  C   UNL     1      13.245  11.058  21.863  0.00  0.00    +0.016 C 
ATOM     10  C   UNL     1      11.838  11.446  22.387  0.00  0.00    +0.006 C 
ATOM     11  C   UNL     1      11.030  10.206  22.804  0.00  0.00    +0.023 C 
ATOM     12  C   UNL     1      13.119   9.995  20.757  0.00  0.00    +0.112 C 
ATOM     13  C   UNL     1      10.981   9.175  21.681  0.00  0.00    +0.108 C 
ATOM     17  C   UNL     1      12.753   7.515  21.226  0.00  0.00    +0.247 C 
ENDROOT
BRANCH  17  23
ATOM      1  F   UNL     1      17.924   6.401  19.398  0.00  0.00    -0.205 F 
ATOM     23  C   UNL     1      14.109   7.223  20.746  0.00  0.00    +0.037 A 
ATOM     28  C   UNL     1      15.175   7.197  21.645  0.00  0.00    +0.016 A 
ATOM     29  C   UNL     1      14.331   6.972  19.393  0.00  0.00    +0.016 A 
ATOM     30  C   UNL     1      16.464   6.920  21.191  0.00  0.00    +0.039 A 
ATOM     31  C   UNL     1      15.620   6.695  18.938  0.00  0.00    +0.039 A 
ATOM     32  C   UNL     1      16.687   6.669  19.836  0.00  0.00    +0.123 A 
ENDBRANCH  17  23
BRANCH   9  14
ATOM     14  C   UNL     1      14.207  10.576  22.958  0.00  0.00    +0.061 C 
BRANCH  14  16
ATOM      8  N   UNL     1      16.086  11.605  21.874  0.00  0.00    -0.287 NA
ATOM     16  C   UNL     1      15.437  11.451  22.980  0.00  0.00    +0.044 C 
ATOM     18  C   UNL     1      15.842  12.082  24.262  0.00  0.00    +0.003 A 
ATOM     20  C   UNL     1      17.159  12.551  24.345  0.00  0.00    -0.033 A 
ATOM     21  C   UNL     1      18.063  12.375  23.161  0.00  0.00    +0.059 C 
ATOM     22  C   UNL     1      17.246  12.503  21.882  0.00  0.00    +0.146 C 
ATOM     24  C   UNL     1      14.977  12.201  25.352  0.00  0.00    +0.059 A 
ATOM     25  C   UNL     1      17.615  13.119  25.539  0.00  0.00    +0.053 A 
ATOM     26  C   UNL     1      15.436  12.784  26.534  0.00  0.00    +0.162 A 
ATOM     27  C   UNL     1      16.752  13.239  26.629  0.00  0.00    +0.162 A 
BRANCH  26   5
ATOM      5  O   UNL     1      14.588  12.901  27.594  0.00  0.00    -0.491 OA
ATOM     33  C   UNL     1      13.723  14.034  27.608  0.00  0.00    +0.277 C 
ENDBRANCH  26   5
BRANCH  27   6
ATOM      6  O   UNL     1      17.208  13.801  27.783  0.00  0.00    -0.491 OA
ATOM     34  C   UNL     1      17.334  15.221  27.806  0.00  0.00    +0.277 C 
ENDBRANCH  27   6
ENDBRANCH  14  16
ENDBRANCH   9  14
BRANCH  10  15
ATOM     15  C   UNL     1      11.881  12.469  23.521  0.00  0.00    +0.124 C 
BRANCH  15  19
ATOM      4  O   UNL     1      10.820  11.692  25.574  0.00  0.00    -0.251 OA
ATOM     19  C   UNL     1      10.754  12.264  24.496  0.00  0.00    +0.305 C 
BRANCH  19   3
ATOM      3  O   UNL     1       9.617  12.818  24.003  0.00  0.00    -0.481 OA
ATOM     35  H   UNL     1       9.540  12.694  23.033  0.00  0.00    +0.295 HD
ENDBRANCH  19   3
ENDBRANCH  15  19
ENDBRANCH  10  15
TORSDOF 8
ENDMDL
MODEL 10
REMARK VINA RESULT:      -5.7     11.481     14.983
REMARK  Name = 51136601
REMARK  10 active torsions:
REMARK  status: ('A' for Active; 'I' for Inactive)
REMARK    1  A    between atoms: O_3  and  C_19
REMARK    2  A    between atoms: O_5  and  C_26
REMARK    3  A    between atoms: O_5  and  C_33
REMARK    4  A    between atoms: O_6  and  C_27
REMARK    5  A    between atoms: O_6  and  C_34
REMARK    6  A    between atoms: C_9  and  C_14
REMARK    7  A    between atoms: C_10  and  C_15
REMARK    8  A    between atoms: C_14  and  C_16
REMARK    9  A    between atoms: C_15  and  C_19
REMARK   10  A    between atoms: C_17  and  C_23
REMARK                            x       y       z     vdW  Elec       q    Type
REMARK                         _______ _______ _______ _____ _____    ______ ____
ROOT
ATOM      2  O   UNL     1      11.452  10.381   1.108  0.00  0.00    -0.270 OA
ATOM      7  N   UNL     1      11.485   8.044   1.217  0.00  0.00    -0.297 N 
ATOM      9  C   UNL     1      12.047   5.957   2.443  0.00  0.00    +0.016 C 
ATOM     10  C   UNL     1      13.265   5.778   1.503  0.00  0.00    +0.006 C 
ATOM     11  C   UNL     1      13.756   7.127   0.951  0.00  0.00    +0.023 C 
ATOM     12  C   UNL     1      10.952   6.776   1.735  0.00  0.00    +0.112 C 
ATOM     13  C   UNL     1      12.616   7.906   0.302  0.00  0.00    +0.108 C 
ATOM     17  C   UNL     1      11.006   9.318   1.534  0.00  0.00    +0.247 C 
ENDROOT
BRANCH  17  23
ATOM      1  F   UNL     1       6.673   9.693   5.055  0.00  0.00    -0.205 F 
ATOM     23  C   UNL     1       9.870   9.416   2.457  0.00  0.00    +0.037 A 
ATOM     28  C   UNL     1       8.672   8.766   2.160  0.00  0.00    +0.016 A 
ATOM     29  C   UNL     1       9.987  10.160   3.631  0.00  0.00    +0.016 A 
ATOM     30  C   UNL     1       7.591   8.859   3.037  0.00  0.00    +0.039 A 
ATOM     31  C   UNL     1       8.907  10.254   4.508  0.00  0.00    +0.039 A 
ATOM     32  C   UNL     1       7.709   9.604   4.212  0.00  0.00    +0.123 A 
ENDBRANCH  17  23
BRANCH   9  14
ATOM     14  C   UNL     1      12.392   6.591   3.798  0.00  0.00    +0.061 C 
BRANCH  14  16
ATOM      8  N   UNL     1      10.603   5.239   4.658  0.00  0.00    -0.287 NA
ATOM     16  C   UNL     1      11.277   6.334   4.783  0.00  0.00    +0.044 C 
ATOM     18  C   UNL     1      11.007   7.346   5.836  0.00  0.00    +0.003 A 
ATOM     20  C   UNL     1       9.760   7.278   6.471  0.00  0.00    -0.033 A 
ATOM     21  C   UNL     1       8.791   6.216   6.043  0.00  0.00    +0.059 C 
ATOM     22  C   UNL     1       9.561   4.961   5.652  0.00  0.00    +0.146 C 
ATOM     24  C   UNL     1      11.927   8.337   6.185  0.00  0.00    +0.059 A 
ATOM     25  C   UNL     1       9.428   8.227   7.443  0.00  0.00    +0.053 A 
ATOM     26  C   UNL     1      11.593   9.270   7.168  0.00  0.00    +0.162 A 
ATOM     27  C   UNL     1      10.346   9.217   7.793  0.00  0.00    +0.162 A 
BRANCH  26   5
ATOM      5  O   UNL     1      12.494  10.233   7.508  0.00  0.00    -0.491 OA
ATOM     33  C   UNL     1      12.798  11.213   6.518  0.00  0.00    +0.277 C 
ENDBRANCH  26   5
BRANCH  27   6
ATOM      6  O   UNL     1      10.012  10.131   8.747  0.00  0.00    -0.491 OA
ATOM     34  C   UNL     1       9.387  11.332   8.302  0.00  0.00    +0.277 C 
ENDBRANCH  27   6
ENDBRANCH  14  16
ENDBRANCH   9  14
BRANCH  10  15
ATOM     15  C   UNL     1      14.417   5.010   2.151  0.00  0.00    +0.124 C 
BRANCH  15  19
ATOM      4  O   UNL     1      13.489   2.872   1.435  0.00  0.00    -0.251 OA
ATOM     19  C   UNL     1      14.453   3.577   1.697  0.00  0.00    +0.305 C 
BRANCH  19   3
ATOM      3  O   UNL     1      15.740   3.155   1.614  0.00  0.00    -0.481 OA
ATOM     35  H   UNL     1      15.814   2.293   1.153  0.00  0.00    +0.295 HD
ENDBRANCH  19   3
ENDBRANCH  15  19
ENDBRANCH  10  15
TORSDOF 8
ENDMDL
