MODEL 1
REMARK VINA RESULT:      -7.2      0.000      0.000
REMARK  Name = 25338219
REMARK  6 active torsions:
REMARK  status: ('A' for Active; 'I' for Inactive)
REMARK    1  A    between atoms: O_3  and  C_10
REMARK    2  A    between atoms: O_5  and  C_24
REMARK    3  A    between atoms: O_5  and  C_27
REMARK    4  A    between atoms: N_6  and  C_9
REMARK    5  A    between atoms: N_7  and  C_11
REMARK    6  A    between atoms: N_8  and  C_21
REMARK                            x       y       z     vdW  Elec       q    Type
REMARK                         _______ _______ _______ _____ _____    ______ ____
ROOT
ATOM      1  O   UNL     1      13.201   9.107  18.866  0.00  0.00    -0.342 OA
ATOM      2  O   UNL     1      11.458   7.829  18.023  0.00  0.00    -0.347 OA
ATOM      9  C   UNL     1      11.576   8.215  20.408  0.00  0.00    +0.143 C 
ATOM     10  C   UNL     1      12.426   6.938  20.595  0.00  0.00    +0.159 C 
ATOM     11  C   UNL     1      13.782   6.988  19.858  0.00  0.00    +0.136 C 
ATOM     12  C   UNL     1      11.804   8.816  19.009  0.00  0.00    +0.270 C 
ATOM     13  C   UNL     1      13.737   7.816  18.558  0.00  0.00    +0.170 C 
ATOM     14  C   UNL     1      12.717   7.328  17.547  0.00  0.00    +0.196 C 
ENDROOT
BRANCH  11   7
ATOM      4  O   UNL     1      16.600   6.507  19.676  0.00  0.00    -0.252 OA
ATOM      7  N   UNL     1      14.807   7.510  20.736  0.00  0.00    -0.291 N 
ATOM      8  N   UNL     1      16.914   7.864  21.565  0.00  0.00    -0.269 N 
ATOM     20  C   UNL     1      16.165   7.224  20.574  0.00  0.00    +0.304 C 
ATOM     28  H   UNL     1      14.518   8.045  21.550  0.00  0.00    +0.151 HD
ATOM     30  H   UNL     1      16.397   8.425  22.237  0.00  0.00    +0.156 HD
BRANCH   8  21
ATOM     21  C   UNL     1      18.316   7.830  21.752  0.00  0.00    +0.038 A 
ATOM     22  C   UNL     1      18.938   6.644  22.143  0.00  0.00    +0.069 A 
ATOM     23  C   UNL     1      19.075   8.982  21.547  0.00  0.00    +0.023 A 
ATOM     24  C   UNL     1      20.320   6.610  22.327  0.00  0.00    +0.122 A 
ATOM     25  C   UNL     1      20.458   8.947  21.732  0.00  0.00    +0.005 A 
ATOM     26  C   UNL     1      21.080   7.762  22.122  0.00  0.00    +0.046 A 
BRANCH  24   5
ATOM      5  O   UNL     1      20.928   5.453  22.708  0.00  0.00    -0.495 OA
ATOM     27  C   UNL     1      21.574   4.693  21.689  0.00  0.00    +0.277 C 
ENDBRANCH  24   5
ENDBRANCH   8  21
ENDBRANCH  11   7
BRANCH   9   6
ATOM      6  N   UNL     1      11.919   9.202  21.433  0.00  0.00    -0.293 NA
ATOM     15  C   UNL     1      10.923   9.188  22.513  0.00  0.00    +0.085 C 
ATOM     16  C   UNL     1      12.039  10.540  20.838  0.00  0.00    +0.085 C 
ATOM     17  C   UNL     1      11.293  10.180  23.617  0.00  0.00    +0.015 C 
ATOM     18  C   UNL     1      12.445  11.576  21.887  0.00  0.00    +0.015 C 
ATOM     19  C   UNL     1      11.472  11.587  23.060  0.00  0.00    +0.002 C 
ENDBRANCH   9   6
BRANCH  10   3
ATOM      3  O   UNL     1      11.667   5.831  20.088  0.00  0.00    -0.388 OA
ATOM     29  H   UNL     1      11.522   5.985  19.139  0.00  0.00    +0.210 HD
ENDBRANCH  10   3
TORSDOF 5
ENDMDL
MODEL 2
REMARK VINA RESULT:      -7.2      3.910      7.580
REMARK  Name = 25338219
REMARK  6 active torsions:
REMARK  status: ('A' for Active; 'I' for Inactive)
REMARK    1  A    between atoms: O_3  and  C_10
REMARK    2  A    between atoms: O_5  and  C_24
REMARK    3  A    between atoms: O_5  and  C_27
REMARK    4  A    between atoms: N_6  and  C_9
REMARK    5  A    between atoms: N_7  and  C_11
REMARK    6  A    between atoms: N_8  and  C_21
REMARK                            x       y       z     vdW  Elec       q    Type
REMARK                         _______ _______ _______ _____ _____    ______ ____
ROOT
ATOM      1  O   UNL     1      13.100   9.222  21.188  0.00  0.00    -0.342 OA
ATOM      2  O   UNL     1      11.747   7.440  21.802  0.00  0.00    -0.347 OA
ATOM      9  C   UNL     1      13.809   6.987  20.622  0.00  0.00    +0.143 C 
ATOM     10  C   UNL     1      13.077   7.079  19.263  0.00  0.00    +0.159 C 
ATOM     11  C   UNL     1      12.460   8.468  18.990  0.00  0.00    +0.136 C 
ATOM     12  C   UNL     1      13.111   7.871  21.672  0.00  0.00    +0.270 C 
ATOM     13  C   UNL     1      12.001   9.193  20.272  0.00  0.00    +0.170 C 
ATOM     14  C   UNL     1      10.981   8.423  21.088  0.00  0.00    +0.196 C 
ENDROOT
BRANCH  11   7
ATOM      4  O   UNL     1      12.238   9.341  16.270  0.00  0.00    -0.252 OA
ATOM      7  N   UNL     1      13.401   9.298  18.268  0.00  0.00    -0.291 N 
ATOM      8  N   UNL     1      14.280  10.474  16.508  0.00  0.00    -0.269 N 
ATOM     20  C   UNL     1      13.214   9.678  16.937  0.00  0.00    +0.304 C 
ATOM     28  H   UNL     1      14.272   9.550  18.727  0.00  0.00    +0.151 HD
ATOM     30  H   UNL     1      15.012  10.661  17.189  0.00  0.00    +0.156 HD
BRANCH   8  21
ATOM     21  C   UNL     1      14.470  11.059  15.235  0.00  0.00    +0.038 A 
ATOM     22  C   UNL     1      13.445  11.800  14.647  0.00  0.00    +0.069 A 
ATOM     23  C   UNL     1      15.683  10.893  14.566  0.00  0.00    +0.023 A 
ATOM     24  C   UNL     1      13.633  12.377  13.392  0.00  0.00    +0.122 A 
ATOM     25  C   UNL     1      15.871  11.471  13.309  0.00  0.00    +0.005 A 
ATOM     26  C   UNL     1      14.846  12.212  12.723  0.00  0.00    +0.046 A 
BRANCH  24   5
ATOM      5  O   UNL     1      12.633  13.100  12.818  0.00  0.00    -0.495 OA
ATOM     27  C   UNL     1      12.001  12.536  11.670  0.00  0.00    +0.277 C 
ENDBRANCH  24   5
ENDBRANCH   8  21
ENDBRANCH  11   7
BRANCH   9   6
ATOM      6  N   UNL     1      15.203   7.404  20.471  0.00  0.00    -0.293 NA
ATOM     15  C   UNL     1      16.029   6.279  20.011  0.00  0.00    +0.085 C 
ATOM     16  C   UNL     1      15.714   7.956  21.734  0.00  0.00    +0.085 C 
ATOM     17  C   UNL     1      17.482   6.710  19.801  0.00  0.00    +0.015 C 
ATOM     18  C   UNL     1      17.155   8.442  21.581  0.00  0.00    +0.015 C 
ATOM     19  C   UNL     1      18.063   7.330  21.066  0.00  0.00    +0.002 C 
ENDBRANCH   9   6
BRANCH  10   3
ATOM      3  O   UNL     1      12.028   6.102  19.266  0.00  0.00    -0.388 OA
ATOM     29  H   UNL     1      11.829   5.886  20.193  0.00  0.00    +0.210 HD
ENDBRANCH  10   3
TORSDOF 5
ENDMDL
MODEL 3
REMARK VINA RESULT:      -7.0     14.618     18.363
REMARK  Name = 25338219
REMARK  6 active torsions:
REMARK  status: ('A' for Active; 'I' for Inactive)
REMARK    1  A    between atoms: O_3  and  C_10
REMARK    2  A    between atoms: O_5  and  C_24
REMARK    3  A    between atoms: O_5  and  C_27
REMARK    4  A    between atoms: N_6  and  C_9
REMARK    5  A    between atoms: N_7  and  C_11
REMARK    6  A    between atoms: N_8  and  C_21
REMARK                            x       y       z     vdW  Elec       q    Type
REMARK                         _______ _______ _______ _____ _____    ______ ____
ROOT
ATOM      1  O   UNL     1      10.244   8.266   5.688  0.00  0.00    -0.342 OA
ATOM      2  O   UNL     1       9.559   7.857   7.867  0.00  0.00    -0.347 OA
ATOM      9  C   UNL     1      11.917   7.737   7.342  0.00  0.00    +0.143 C 
ATOM     10  C   UNL     1      11.791   6.232   7.017  0.00  0.00    +0.159 C 
ATOM     11  C   UNL     1      10.844   5.935   5.834  0.00  0.00    +0.136 C 
ATOM     12  C   UNL     1      10.588   8.463   7.067  0.00  0.00    +0.270 C 
ATOM     13  C   UNL     1       9.687   6.948   5.713  0.00  0.00    +0.170 C 
ATOM     14  C   UNL     1       8.813   7.041   6.950  0.00  0.00    +0.196 C 
ENDROOT
BRANCH  11   7
ATOM      4  O   UNL     1      10.266   4.327   3.535  0.00  0.00    -0.252 OA
ATOM      7  N   UNL     1      11.592   5.897   4.595  0.00  0.00    -0.291 N 
ATOM      8  N   UNL     1      12.138   5.253   2.464  0.00  0.00    -0.269 N 
ATOM     20  C   UNL     1      11.238   5.079   3.519  0.00  0.00    +0.304 C 
ATOM     28  H   UNL     1      12.454   6.431   4.535  0.00  0.00    +0.151 HD
ATOM     30  H   UNL     1      12.892   5.919   2.613  0.00  0.00    +0.156 HD
BRANCH   8  21
ATOM     21  C   UNL     1      12.132   4.613   1.203  0.00  0.00    +0.038 A 
ATOM     22  C   UNL     1      11.037   4.760   0.351  0.00  0.00    +0.069 A 
ATOM     23  C   UNL     1      13.222   3.835   0.810  0.00  0.00    +0.023 A 
ATOM     24  C   UNL     1      11.031   4.130  -0.893  0.00  0.00    +0.122 A 
ATOM     25  C   UNL     1      13.215   3.205  -0.435  0.00  0.00    +0.005 A 
ATOM     26  C   UNL     1      12.120   3.352  -1.285  0.00  0.00    +0.046 A 
BRANCH  24   5
ATOM      5  O   UNL     1       9.962   4.273  -1.723  0.00  0.00    -0.495 OA
ATOM     27  C   UNL     1       9.337   5.554  -1.761  0.00  0.00    +0.277 C 
ENDBRANCH  24   5
ENDBRANCH   8  21
ENDBRANCH  11   7
BRANCH   9   6
ATOM      6  N   UNL     1      12.984   8.338   6.542  0.00  0.00    -0.293 NA
ATOM     15  C   UNL     1      14.205   7.523   6.618  0.00  0.00    +0.085 C 
ATOM     16  C   UNL     1      13.238   9.718   6.976  0.00  0.00    +0.085 C 
ATOM     17  C   UNL     1      15.316   8.112   5.746  0.00  0.00    +0.015 C 
ATOM     18  C   UNL     1      14.317  10.378   6.117  0.00  0.00    +0.015 C 
ATOM     19  C   UNL     1      15.604   9.561   6.119  0.00  0.00    +0.002 C 
ENDBRANCH   9   6
BRANCH  10   3
ATOM      3  O   UNL     1      11.287   5.573   8.186  0.00  0.00    -0.388 OA
ATOM     29  H   UNL     1      11.909   5.746   8.913  0.00  0.00    +0.210 HD
ENDBRANCH  10   3
TORSDOF 5
ENDMDL
MODEL 4
REMARK VINA RESULT:      -6.9      2.513      3.597
REMARK  Name = 25338219
REMARK  6 active torsions:
REMARK  status: ('A' for Active; 'I' for Inactive)
REMARK    1  A    between atoms: O_3  and  C_10
REMARK    2  A    between atoms: O_5  and  C_24
REMARK    3  A    between atoms: O_5  and  C_27
REMARK    4  A    between atoms: N_6  and  C_9
REMARK    5  A    between atoms: N_7  and  C_11
REMARK    6  A    between atoms: N_8  and  C_21
REMARK                            x       y       z     vdW  Elec       q    Type
REMARK                         _______ _______ _______ _____ _____    ______ ____
ROOT
ATOM      1  O   UNL     1      13.922   7.521  17.939  0.00  0.00    -0.342 OA
ATOM      2  O   UNL     1      11.675   7.909  18.364  0.00  0.00    -0.347 OA
ATOM      9  C   UNL     1      13.189   9.793  18.279  0.00  0.00    +0.143 C 
ATOM     10  C   UNL     1      13.459   9.673  19.796  0.00  0.00    +0.159 C 
ATOM     11  C   UNL     1      14.109   8.332  20.201  0.00  0.00    +0.136 C 
ATOM     12  C   UNL     1      12.833   8.419  17.683  0.00  0.00    +0.270 C 
ATOM     13  C   UNL     1      13.683   7.154  19.301  0.00  0.00    +0.170 C 
ATOM     14  C   UNL     1      12.186   6.912  19.263  0.00  0.00    +0.196 C 
ENDROOT
BRANCH  11   7
ATOM      4  O   UNL     1      15.976   6.628  21.548  0.00  0.00    -0.252 OA
ATOM      7  N   UNL     1      15.551   8.456  20.196  0.00  0.00    -0.291 N 
ATOM      8  N   UNL     1      17.727   7.941  20.698  0.00  0.00    -0.269 N 
ATOM     20  C   UNL     1      16.391   7.576  20.884  0.00  0.00    +0.304 C 
ATOM     28  H   UNL     1      15.964   9.261  19.737  0.00  0.00    +0.151 HD
ATOM     30  H   UNL     1      17.900   8.757  20.116  0.00  0.00    +0.156 HD
BRANCH   8  21
ATOM     21  C   UNL     1      18.880   7.312  21.223  0.00  0.00    +0.038 A 
ATOM     22  C   UNL     1      19.424   6.203  20.576  0.00  0.00    +0.069 A 
ATOM     23  C   UNL     1      19.473   7.802  22.386  0.00  0.00    +0.023 A 
ATOM     24  C   UNL     1      20.562   5.583  21.093  0.00  0.00    +0.122 A 
ATOM     25  C   UNL     1      20.612   7.182  22.903  0.00  0.00    +0.005 A 
ATOM     26  C   UNL     1      21.155   6.072  22.256  0.00  0.00    +0.046 A 
BRANCH  24   5
ATOM      5  O   UNL     1      21.092   4.499  20.462  0.00  0.00    -0.495 OA
ATOM     27  C   UNL     1      21.726   3.519  21.281  0.00  0.00    +0.277 C 
ENDBRANCH  24   5
ENDBRANCH   8  21
ENDBRANCH  11   7
BRANCH   9   6
ATOM      6  N   UNL     1      14.365  10.338  17.600  0.00  0.00    -0.293 NA
ATOM     15  C   UNL     1      14.760  11.618  18.204  0.00  0.00    +0.085 C 
ATOM     16  C   UNL     1      14.106  10.486  16.161  0.00  0.00    +0.085 C 
ATOM     17  C   UNL     1      16.019  12.177  17.537  0.00  0.00    +0.015 C 
ATOM     18  C   UNL     1      15.342  11.007  15.428  0.00  0.00    +0.015 C 
ATOM     19  C   UNL     1      15.831  12.320  16.031  0.00  0.00    +0.002 C 
ENDBRANCH   9   6
BRANCH  10   3
ATOM      3  O   UNL     1      12.202   9.799  20.474  0.00  0.00    -0.388 OA
ATOM     29  H   UNL     1      12.222  10.630  20.979  0.00  0.00    +0.210 HD
ENDBRANCH  10   3
TORSDOF 5
ENDMDL
MODEL 5
REMARK VINA RESULT:      -6.7      2.318      4.102
REMARK  Name = 25338219
REMARK  6 active torsions:
REMARK  status: ('A' for Active; 'I' for Inactive)
REMARK    1  A    between atoms: O_3  and  C_10
REMARK    2  A    between atoms: O_5  and  C_24
REMARK    3  A    between atoms: O_5  and  C_27
REMARK    4  A    between atoms: N_6  and  C_9
REMARK    5  A    between atoms: N_7  and  C_11
REMARK    6  A    between atoms: N_8  and  C_21
REMARK                            x       y       z     vdW  Elec       q    Type
REMARK                         _______ _______ _______ _____ _____    ______ ____
ROOT
ATOM      1  O   UNL     1      12.635  11.266  23.455  0.00  0.00    -0.342 OA
ATOM      2  O   UNL     1      11.540  12.846  22.155  0.00  0.00    -0.347 OA
ATOM      9  C   UNL     1      11.971  10.658  21.217  0.00  0.00    +0.143 C 
ATOM     10  C   UNL     1      13.331  11.140  20.663  0.00  0.00    +0.159 C 
ATOM     11  C   UNL     1      14.321  11.585  21.762  0.00  0.00    +0.136 C 
ATOM     12  C   UNL     1      11.594  11.448  22.484  0.00  0.00    +0.270 C 
ATOM     13  C   UNL     1      13.624  12.192  22.997  0.00  0.00    +0.170 C 
ATOM     14  C   UNL     1      12.755  13.396  22.690  0.00  0.00    +0.196 C 
ENDROOT
BRANCH  11   7
ATOM      4  O   UNL     1      16.106  10.087  20.096  0.00  0.00    -0.252 OA
ATOM      7  N   UNL     1      15.150  10.469  22.166  0.00  0.00    -0.291 N 
ATOM      8  N   UNL     1      16.669   8.766  21.953  0.00  0.00    -0.269 N 
ATOM     20  C   UNL     1      15.996   9.793  21.284  0.00  0.00    +0.304 C 
ATOM     28  H   UNL     1      15.055  10.116  23.113  0.00  0.00    +0.151 HD
ATOM     30  H   UNL     1      16.464   8.656  22.943  0.00  0.00    +0.156 HD
BRANCH   8  21
ATOM     21  C   UNL     1      17.610   7.854  21.421  0.00  0.00    +0.038 A 
ATOM     22  C   UNL     1      18.932   7.878  21.864  0.00  0.00    +0.069 A 
ATOM     23  C   UNL     1      17.215   6.929  20.454  0.00  0.00    +0.023 A 
ATOM     24  C   UNL     1      19.860   6.978  21.341  0.00  0.00    +0.122 A 
ATOM     25  C   UNL     1      18.143   6.029  19.930  0.00  0.00    +0.005 A 
ATOM     26  C   UNL     1      19.465   6.054  20.373  0.00  0.00    +0.046 A 
BRANCH  24   5
ATOM      5  O   UNL     1      21.150   7.002  21.772  0.00  0.00    -0.495 OA
ATOM     27  C   UNL     1      22.098   7.677  20.947  0.00  0.00    +0.277 C 
ENDBRANCH  24   5
ENDBRANCH   8  21
ENDBRANCH  11   7
BRANCH   9   6
ATOM      6  N   UNL     1      12.030   9.229  21.523  0.00  0.00    -0.293 NA
ATOM     15  C   UNL     1      12.758   8.507  20.470  0.00  0.00    +0.085 C 
ATOM     16  C   UNL     1      10.677   8.685  21.702  0.00  0.00    +0.085 C 
ATOM     17  C   UNL     1      12.871   7.017  20.800  0.00  0.00    +0.015 C 
ATOM     18  C   UNL     1      10.722   7.203  22.072  0.00  0.00    +0.015 C 
ATOM     19  C   UNL     1      11.500   6.397  21.037  0.00  0.00    +0.002 C 
ENDBRANCH   9   6
BRANCH  10   3
ATOM      3  O   UNL     1      13.080  12.252  19.793  0.00  0.00    -0.388 OA
ATOM     29  H   UNL     1      12.804  11.895  18.932  0.00  0.00    +0.210 HD
ENDBRANCH  10   3
TORSDOF 5
ENDMDL
MODEL 6
REMARK VINA RESULT:      -6.6     27.973     29.749
REMARK  Name = 25338219
REMARK  6 active torsions:
REMARK  status: ('A' for Active; 'I' for Inactive)
REMARK    1  A    between atoms: O_3  and  C_10
REMARK    2  A    between atoms: O_5  and  C_24
REMARK    3  A    between atoms: O_5  and  C_27
REMARK    4  A    between atoms: N_6  and  C_9
REMARK    5  A    between atoms: N_7  and  C_11
REMARK    6  A    between atoms: N_8  and  C_21
REMARK                            x       y       z     vdW  Elec       q    Type
REMARK                         _______ _______ _______ _____ _____    ______ ____
ROOT
ATOM      1  O   UNL     1      -9.448  -8.243  17.069  0.00  0.00    -0.342 OA
ATOM      2  O   UNL     1     -11.365  -9.471  17.517  0.00  0.00    -0.347 OA
ATOM      9  C   UNL     1      -9.250 -10.632  17.338  0.00  0.00    +0.143 C 
ATOM     10  C   UNL     1      -9.468 -10.840  15.822  0.00  0.00    +0.159 C 
ATOM     11  C   UNL     1      -9.556  -9.519  15.026  0.00  0.00    +0.136 C 
ATOM     12  C   UNL     1      -9.964  -9.354  17.816  0.00  0.00    +0.270 C 
ATOM     13  C   UNL     1     -10.170  -8.360  15.839  0.00  0.00    +0.170 C 
ATOM     14  C   UNL     1     -11.565  -8.640  16.363  0.00  0.00    +0.196 C 
ENDROOT
BRANCH  11   7
ATOM      4  O   UNL     1      -8.253 -10.489  12.667  0.00  0.00    -0.252 OA
ATOM      7  N   UNL     1      -8.246  -9.139  14.544  0.00  0.00    -0.291 N 
ATOM      8  N   UNL     1      -6.416  -9.116  13.164  0.00  0.00    -0.269 N 
ATOM     20  C   UNL     1      -7.684  -9.664  13.378  0.00  0.00    +0.304 C 
ATOM     28  H   UNL     1      -7.680  -8.522  15.120  0.00  0.00    +0.151 HD
ATOM     30  H   UNL     1      -6.089  -8.441  13.851  0.00  0.00    +0.156 HD
BRANCH   8  21
ATOM     21  C   UNL     1      -5.522  -9.383  12.101  0.00  0.00    +0.038 A 
ATOM     22  C   UNL     1      -4.581 -10.405  12.222  0.00  0.00    +0.069 A 
ATOM     23  C   UNL     1      -5.581  -8.624  10.932  0.00  0.00    +0.023 A 
ATOM     24  C   UNL     1      -3.699 -10.669  11.175  0.00  0.00    +0.122 A 
ATOM     25  C   UNL     1      -4.698  -8.888   9.884  0.00  0.00    +0.005 A 
ATOM     26  C   UNL     1      -3.758  -9.910  10.006  0.00  0.00    +0.046 A 
BRANCH  24   5
ATOM      5  O   UNL     1      -2.780 -11.666  11.293  0.00  0.00    -0.495 OA
ATOM     27  C   UNL     1      -1.972 -11.667  12.468  0.00  0.00    +0.277 C 
ENDBRANCH  24   5
ENDBRANCH   8  21
ENDBRANCH  11   7
BRANCH   9   6
ATOM      6  N   UNL     1      -7.820 -10.540  17.633  0.00  0.00    -0.293 NA
ATOM     15  C   UNL     1      -7.072 -11.549  16.870  0.00  0.00    +0.085 C 
ATOM     16  C   UNL     1      -7.584 -10.682  19.076  0.00  0.00    +0.085 C 
ATOM     17  C   UNL     1      -5.569 -11.434  17.130  0.00  0.00    +0.015 C 
ATOM     18  C   UNL     1      -6.098 -10.540  19.409  0.00  0.00    +0.015 C 
ATOM     19  C   UNL     1      -5.255 -11.534  18.618  0.00  0.00    +0.002 C 
ENDBRANCH   9   6
BRANCH  10   3
ATOM      3  O   UNL     1     -10.694 -11.562  15.652  0.00  0.00    -0.388 OA
ATOM     29  H   UNL     1     -11.083 -11.693  16.533  0.00  0.00    +0.210 HD
ENDBRANCH  10   3
TORSDOF 5
ENDMDL
MODEL 7
REMARK VINA RESULT:      -6.5      3.124      7.227
REMARK  Name = 25338219
REMARK  6 active torsions:
REMARK  status: ('A' for Active; 'I' for Inactive)
REMARK    1  A    between atoms: O_3  and  C_10
REMARK    2  A    between atoms: O_5  and  C_24
REMARK    3  A    between atoms: O_5  and  C_27
REMARK    4  A    between atoms: N_6  and  C_9
REMARK    5  A    between atoms: N_7  and  C_11
REMARK    6  A    between atoms: N_8  and  C_21
REMARK                            x       y       z     vdW  Elec       q    Type
REMARK                         _______ _______ _______ _____ _____    ______ ____
ROOT
ATOM      1  O   UNL     1      15.500   8.529  19.907  0.00  0.00    -0.342 OA
ATOM      2  O   UNL     1      15.631   6.240  20.265  0.00  0.00    -0.347 OA
ATOM      9  C   UNL     1      13.713   7.131  19.090  0.00  0.00    +0.143 C 
ATOM     10  C   UNL     1      12.947   7.299  20.422  0.00  0.00    +0.159 C 
ATOM     11  C   UNL     1      13.626   8.281  21.402  0.00  0.00    +0.136 C 
ATOM     12  C   UNL     1      15.231   7.248  19.321  0.00  0.00    +0.270 C 
ATOM     13  C   UNL     1      15.163   8.298  21.278  0.00  0.00    +0.170 C 
ATOM     14  C   UNL     1      15.819   6.949  21.500  0.00  0.00    +0.196 C 
ENDROOT
BRANCH  11   7
ATOM      4  O   UNL     1      13.939  10.512  23.172  0.00  0.00    -0.252 OA
ATOM      7  N   UNL     1      13.104   9.617  21.210  0.00  0.00    -0.291 N 
ATOM      8  N   UNL     1      12.688  11.822  21.679  0.00  0.00    -0.269 N 
ATOM     20  C   UNL     1      13.305  10.651  22.128  0.00  0.00    +0.304 C 
ATOM     28  H   UNL     1      12.502   9.789  20.411  0.00  0.00    +0.151 HD
ATOM     30  H   UNL     1      12.201  11.767  20.787  0.00  0.00    +0.156 HD
BRANCH   8  21
ATOM     21  C   UNL     1      12.657  13.086  22.313  0.00  0.00    +0.038 A 
ATOM     22  C   UNL     1      11.700  13.350  23.293  0.00  0.00    +0.069 A 
ATOM     23  C   UNL     1      13.582  14.067  21.958  0.00  0.00    +0.023 A 
ATOM     24  C   UNL     1      11.669  14.596  23.918  0.00  0.00    +0.122 A 
ATOM     25  C   UNL     1      13.551  15.314  22.584  0.00  0.00    +0.005 A 
ATOM     26  C   UNL     1      12.594  15.578  23.563  0.00  0.00    +0.046 A 
BRANCH  24   5
ATOM      5  O   UNL     1      10.735  14.855  24.874  0.00  0.00    -0.495 OA
ATOM     27  C   UNL     1      10.551  13.866  25.885  0.00  0.00    +0.277 C 
ENDBRANCH  24   5
ENDBRANCH   8  21
ENDBRANCH  11   7
BRANCH   9   6
ATOM      6  N   UNL     1      13.279   8.145  18.129  0.00  0.00    -0.293 NA
ATOM     15  C   UNL     1      11.839   8.018  17.864  0.00  0.00    +0.085 C 
ATOM     16  C   UNL     1      14.059   8.045  16.888  0.00  0.00    +0.085 C 
ATOM     17  C   UNL     1      11.359   9.103  16.897  0.00  0.00    +0.015 C 
ATOM     18  C   UNL     1      13.652   9.129  15.891  0.00  0.00    +0.015 C 
ATOM     19  C   UNL     1      12.156   9.081  15.599  0.00  0.00    +0.002 C 
ENDBRANCH   9   6
BRANCH  10   3
ATOM      3  O   UNL     1      12.867   6.010  21.045  0.00  0.00    -0.388 OA
ATOM     29  H   UNL     1      13.772   5.660  21.116  0.00  0.00    +0.210 HD
ENDBRANCH  10   3
TORSDOF 5
ENDMDL
MODEL 8
REMARK VINA RESULT:      -6.5      4.442      6.530
REMARK  Name = 25338219
REMARK  6 active torsions:
REMARK  status: ('A' for Active; 'I' for Inactive)
REMARK    1  A    between atoms: O_3  and  C_10
REMARK    2  A    between atoms: O_5  and  C_24
REMARK    3  A    between atoms: O_5  and  C_27
REMARK    4  A    between atoms: N_6  and  C_9
REMARK    5  A    between atoms: N_7  and  C_11
REMARK    6  A    between atoms: N_8  and  C_21
REMARK                            x       y       z     vdW  Elec       q    Type
REMARK                         _______ _______ _______ _____ _____    ______ ____
ROOT
ATOM      1  O   UNL     1      10.559   8.982  20.701  0.00  0.00    -0.342 OA
ATOM      2  O   UNL     1      11.165   7.494  22.374  0.00  0.00    -0.347 OA
ATOM      9  C   UNL     1      12.075   9.734  22.419  0.00  0.00    +0.143 C 
ATOM     10  C   UNL     1      13.288   9.283  21.574  0.00  0.00    +0.159 C 
ATOM     11  C   UNL     1      12.901   8.764  20.172  0.00  0.00    +0.136 C 
ATOM     12  C   UNL     1      10.843   8.867  22.103  0.00  0.00    +0.270 C 
ATOM     13  C   UNL     1      11.517   8.083  20.136  0.00  0.00    +0.170 C 
ATOM     14  C   UNL     1      11.382   6.905  21.082  0.00  0.00    +0.196 C 
ENDROOT
BRANCH  11   7
ATOM      4  O   UNL     1      14.795   9.107  18.051  0.00  0.00    -0.252 OA
ATOM      7  N   UNL     1      12.938   9.848  19.213  0.00  0.00    -0.291 N 
ATOM      8  N   UNL     1      13.689  11.084  17.434  0.00  0.00    -0.269 N 
ATOM     20  C   UNL     1      13.902   9.937  18.205  0.00  0.00    +0.304 C 
ATOM     28  H   UNL     1      12.282  10.614  19.325  0.00  0.00    +0.151 HD
ATOM     30  H   UNL     1      12.899  11.669  17.697  0.00  0.00    +0.156 HD
BRANCH   8  21
ATOM     21  C   UNL     1      14.439  11.536  16.324  0.00  0.00    +0.038 A 
ATOM     22  C   UNL     1      13.927  11.401  15.034  0.00  0.00    +0.069 A 
ATOM     23  C   UNL     1      15.692  12.118  16.520  0.00  0.00    +0.023 A 
ATOM     24  C   UNL     1      14.666  11.848  13.939  0.00  0.00    +0.122 A 
ATOM     25  C   UNL     1      16.432  12.565  15.424  0.00  0.00    +0.005 A 
ATOM     26  C   UNL     1      15.919  12.429  14.135  0.00  0.00    +0.046 A 
BRANCH  24   5
ATOM      5  O   UNL     1      14.166  11.715  12.681  0.00  0.00    -0.495 OA
ATOM     27  C   UNL     1      13.135  12.622  12.293  0.00  0.00    +0.277 C 
ENDBRANCH  24   5
ENDBRANCH   8  21
ENDBRANCH  11   7
BRANCH   9   6
ATOM      6  N   UNL     1      11.773  11.141  22.155  0.00  0.00    -0.293 NA
ATOM     15  C   UNL     1      13.013  11.916  22.017  0.00  0.00    +0.085 C 
ATOM     16  C   UNL     1      10.917  11.691  23.215  0.00  0.00    +0.085 C 
ATOM     17  C   UNL     1      12.715  13.381  21.691  0.00  0.00    +0.015 C 
ATOM     18  C   UNL     1      10.550  13.147  22.928  0.00  0.00    +0.015 C 
ATOM     19  C   UNL     1      11.796  14.005  22.734  0.00  0.00    +0.002 C 
ENDBRANCH   9   6
BRANCH  10   3
ATOM      3  O   UNL     1      13.949   8.230  22.287  0.00  0.00    -0.388 OA
ATOM     29  H   UNL     1      13.717   8.320  23.227  0.00  0.00    +0.210 HD
ENDBRANCH  10   3
TORSDOF 5
ENDMDL
MODEL 9
REMARK VINA RESULT:      -6.4     15.555     19.266
REMARK  Name = 25338219
REMARK  6 active torsions:
REMARK  status: ('A' for Active; 'I' for Inactive)
REMARK    1  A    between atoms: O_3  and  C_10
REMARK    2  A    between atoms: O_5  and  C_24
REMARK    3  A    between atoms: O_5  and  C_27
REMARK    4  A    between atoms: N_6  and  C_9
REMARK    5  A    between atoms: N_7  and  C_11
REMARK    6  A    between atoms: N_8  and  C_21
REMARK                            x       y       z     vdW  Elec       q    Type
REMARK                         _______ _______ _______ _____ _____    ______ ____
ROOT
ATOM      1  O   UNL     1       8.063   6.517   6.395  0.00  0.00    -0.342 OA
ATOM      2  O   UNL     1       9.014   7.976   7.927  0.00  0.00    -0.347 OA
ATOM      9  C   UNL     1       9.243   8.450   5.567  0.00  0.00    +0.143 C 
ATOM     10  C   UNL     1      10.561   7.646   5.510  0.00  0.00    +0.159 C 
ATOM     11  C   UNL     1      10.386   6.152   5.861  0.00  0.00    +0.136 C 
ATOM     12  C   UNL     1       8.321   7.901   6.671  0.00  0.00    +0.270 C 
ATOM     13  C   UNL     1       9.257   5.896   6.881  0.00  0.00    +0.170 C 
ATOM     14  C   UNL     1       9.433   6.629   8.197  0.00  0.00    +0.196 C 
ENDROOT
BRANCH  11   7
ATOM      4  O   UNL     1      12.105   5.957   3.578  0.00  0.00    -0.252 OA
ATOM      7  N   UNL     1      10.143   5.383   4.659  0.00  0.00    -0.291 N 
ATOM      8  N   UNL     1      10.542   4.524   2.572  0.00  0.00    -0.269 N 
ATOM     20  C   UNL     1      11.040   5.344   3.588  0.00  0.00    +0.304 C 
ATOM     28  H   UNL     1       9.248   4.914   4.559  0.00  0.00    +0.151 HD
ATOM     30  H   UNL     1       9.639   4.087   2.740  0.00  0.00    +0.156 HD
BRANCH   8  21
ATOM     21  C   UNL     1      11.141   4.222   1.327  0.00  0.00    +0.038 A 
ATOM     22  C   UNL     1      10.492   4.561   0.140  0.00  0.00    +0.069 A 
ATOM     23  C   UNL     1      12.382   3.584   1.287  0.00  0.00    +0.023 A 
ATOM     24  C   UNL     1      11.083   4.263  -1.088  0.00  0.00    +0.122 A 
ATOM     25  C   UNL     1      12.973   3.287   0.058  0.00  0.00    +0.005 A 
ATOM     26  C   UNL     1      12.323   3.626  -1.128  0.00  0.00    +0.046 A 
BRANCH  24   5
ATOM      5  O   UNL     1      10.450   4.593  -2.246  0.00  0.00    -0.495 OA
ATOM     27  C   UNL     1       9.258   5.368  -2.135  0.00  0.00    +0.277 C 
ENDBRANCH  24   5
ENDBRANCH   8  21
ENDBRANCH  11   7
BRANCH   9   6
ATOM      6  N   UNL     1       8.559   8.388   4.275  0.00  0.00    -0.293 NA
ATOM     15  C   UNL     1       9.509   8.621   3.178  0.00  0.00    +0.085 C 
ATOM     16  C   UNL     1       7.451   9.353   4.232  0.00  0.00    +0.085 C 
ATOM     17  C   UNL     1       8.819   8.511   1.817  0.00  0.00    +0.015 C 
ATOM     18  C   UNL     1       6.694   9.266   2.906  0.00  0.00    +0.015 C 
ATOM     19  C   UNL     1       7.632   9.461   1.719  0.00  0.00    +0.002 C 
ENDBRANCH   9   6
BRANCH  10   3
ATOM      3  O   UNL     1      11.472   8.235   6.447  0.00  0.00    -0.388 OA
ATOM     29  H   UNL     1      10.944   8.650   7.150  0.00  0.00    +0.210 HD
ENDBRANCH  10   3
TORSDOF 5
ENDMDL
MODEL 10
REMARK VINA RESULT:      -6.4     27.656     29.714
REMARK  Name = 25338219
REMARK  6 active torsions:
REMARK  status: ('A' for Active; 'I' for Inactive)
REMARK    1  A    between atoms: O_3  and  C_10
REMARK    2  A    between atoms: O_5  and  C_24
REMARK    3  A    between atoms: O_5  and  C_27
REMARK    4  A    between atoms: N_6  and  C_9
REMARK    5  A    between atoms: N_7  and  C_11
REMARK    6  A    between atoms: N_8  and  C_21
REMARK                            x       y       z     vdW  Elec       q    Type
REMARK                         _______ _______ _______ _____ _____    ______ ____
ROOT
ATOM      1  O   UNL     1      -9.199 -12.319  17.802  0.00  0.00    -0.342 OA
ATOM      2  O   UNL     1      -8.633 -12.046  20.035  0.00  0.00    -0.347 OA
ATOM      9  C   UNL     1      -9.020 -10.080  18.680  0.00  0.00    +0.143 C 
ATOM     10  C   UNL     1      -7.525 -10.027  18.291  0.00  0.00    +0.159 C 
ATOM     11  C   UNL     1      -7.047 -11.272  17.512  0.00  0.00    +0.136 C 
ATOM     12  C   UNL     1      -9.451 -11.529  18.972  0.00  0.00    +0.270 C 
ATOM     13  C   UNL     1      -7.794 -12.562  17.911  0.00  0.00    +0.170 C 
ATOM     14  C   UNL     1      -7.687 -12.909  19.384  0.00  0.00    +0.196 C 
ENDROOT
BRANCH  11   7
ATOM      4  O   UNL     1      -5.047 -10.224  15.750  0.00  0.00    -0.252 OA
ATOM      7  N   UNL     1      -7.180 -11.051  16.088  0.00  0.00    -0.291 N 
ATOM      8  N   UNL     1      -6.563 -10.429  13.970  0.00  0.00    -0.269 N 
ATOM     20  C   UNL     1      -6.149 -10.533  15.301  0.00  0.00    +0.304 C 
ATOM     28  H   UNL     1      -8.087 -11.206  15.659  0.00  0.00    +0.151 HD
ATOM     30  H   UNL     1      -7.513 -10.731  13.763  0.00  0.00    +0.156 HD
BRANCH   8  21
ATOM     21  C   UNL     1      -5.822  -9.955  12.863  0.00  0.00    +0.038 A 
ATOM     22  C   UNL     1      -4.602 -10.546  12.536  0.00  0.00    +0.069 A 
ATOM     23  C   UNL     1      -6.311  -8.895  12.099  0.00  0.00    +0.023 A 
ATOM     24  C   UNL     1      -3.870 -10.079  11.444  0.00  0.00    +0.122 A 
ATOM     25  C   UNL     1      -5.579  -8.428  11.007  0.00  0.00    +0.005 A 
ATOM     26  C   UNL     1      -4.359  -9.019  10.680  0.00  0.00    +0.046 A 
BRANCH  24   5
ATOM      5  O   UNL     1      -2.680 -10.656  11.125  0.00  0.00    -0.495 OA
ATOM     27  C   UNL     1      -1.833 -11.036  12.208  0.00  0.00    +0.277 C 
ENDBRANCH  24   5
ENDBRANCH   8  21
ENDBRANCH  11   7
BRANCH   9   6
ATOM      6  N   UNL     1      -9.840  -9.528  17.602  0.00  0.00    -0.293 NA
ATOM     15  C   UNL     1      -9.261  -8.271  17.107  0.00  0.00    +0.085 C 
ATOM     16  C   UNL     1     -11.224  -9.332  18.057  0.00  0.00    +0.085 C 
ATOM     17  C   UNL     1     -10.081  -7.705  15.946  0.00  0.00    +0.015 C 
ATOM     18  C   UNL     1     -12.107  -8.801  16.928  0.00  0.00    +0.015 C 
ATOM     19  C   UNL     1     -11.540  -7.513  16.339  0.00  0.00    +0.002 C 
ENDBRANCH   9   6
BRANCH  10   3
ATOM      3  O   UNL     1      -6.763  -9.920  19.501  0.00  0.00    -0.388 OA
ATOM     29  H   UNL     1      -6.837 -10.769  19.971  0.00  0.00    +0.210 HD
ENDBRANCH  10   3
TORSDOF 5
ENDMDL
