MODEL 1
REMARK VINA RESULT:      -7.1      0.000      0.000
REMARK  Name = 75367000
REMARK  11 active torsions:
REMARK  status: ('A' for Active; 'I' for Inactive)
REMARK    1  A    between atoms: O_2  and  C_11
REMARK    2  A    between atoms: O_5  and  C_21
REMARK    3  A    between atoms: O_5  and  C_24
REMARK    4  A    between atoms: N_6  and  C_15
REMARK    5  A    between atoms: N_8  and  C_20
REMARK    6  A    between atoms: C_9  and  C_15
REMARK    7  A    between atoms: C_10  and  C_14
REMARK    8  A    between atoms: C_14  and  C_16
REMARK    9  A    between atoms: C_19  and  C_21
REMARK   10  A    between atoms: C_20  and  C_22
REMARK   11  A    between atoms: C_20  and  C_23
REMARK                            x       y       z     vdW  Elec       q    Type
REMARK                         _______ _______ _______ _____ _____    ______ ____
ROOT
ATOM      1  O   UNL     1      10.621   8.492  19.778  0.00  0.00    -0.369 OA
ATOM      9  C   UNL     1      10.873   8.357  21.182  0.00  0.00    +0.164 C 
ATOM     10  C   UNL     1      11.776   8.403  18.940  0.00  0.00    +0.125 C 
ATOM     11  C   UNL     1      11.612   7.050  21.494  0.00  0.00    +0.145 C 
ATOM     12  C   UNL     1      12.480   7.060  19.134  0.00  0.00    +0.034 C 
ATOM     13  C   UNL     1      12.833   6.845  20.603  0.00  0.00    +0.036 C 
ENDROOT
BRANCH  11   2
ATOM      2  O   UNL     1      10.722   5.953  21.272  0.00  0.00    -0.389 OA
ATOM     30  H   UNL     1      10.287   5.750  22.117  0.00  0.00    +0.210 HD
ENDBRANCH  11   2
BRANCH  10  14
ATOM     14  C   UNL     1      11.312   8.570  17.500  0.00  0.00    +0.090 C 
BRANCH  14  16
ATOM      3  O   UNL     1      13.368   9.921  14.866  0.00  0.00    -0.356 OA
ATOM      7  N   UNL     1      12.282   9.184  15.324  0.00  0.00    -0.083 NA
ATOM     16  C   UNL     1      12.348   9.262  16.656  0.00  0.00    +0.086 A 
ATOM     17  C   UNL     1      13.444  10.027  17.092  0.00  0.00    +0.074 A 
ATOM     19  C   UNL     1      14.052  10.418  15.928  0.00  0.00    +0.175 A 
BRANCH  19  21
ATOM     21  C   UNL     1      15.237  11.228  15.622  0.00  0.00    +0.306 C 
BRANCH  21   5
ATOM      5  O   UNL     1      15.263  12.398  16.445  0.00  0.00    -0.484 OA
BRANCH   5  24
ATOM     24  C   UNL     1      16.297  12.494  17.335  0.00  0.00    +0.121 A 
ATOM     25  C   UNL     1      17.541  12.960  16.910  0.00  0.00    +0.045 A 
ATOM     26  C   UNL     1      16.106  12.125  18.666  0.00  0.00    +0.045 A 
ATOM     27  C   UNL     1      18.595  13.057  17.819  0.00  0.00    +0.004 A 
ATOM     28  C   UNL     1      17.160  12.223  19.574  0.00  0.00    +0.004 A 
ATOM     29  C   UNL     1      18.405  12.689  19.151  0.00  0.00    +0.000 A 
ENDBRANCH   5  24
ENDBRANCH  21   5
ENDBRANCH  19  21
ENDBRANCH  14  16
ENDBRANCH  10  14
BRANCH   9  15
ATOM     15  C   UNL     1      11.585   9.590  21.735  0.00  0.00    +0.140 C 
BRANCH  15   6
ATOM      4  O   UNL     1      12.117  12.173  22.905  0.00  0.00    -0.253 OA
ATOM      6  N   UNL     1      10.713  10.351  22.579  0.00  0.00    -0.297 N 
ATOM      8  N   UNL     1      10.018  12.118  23.895  0.00  0.00    -0.297 N 
ATOM     18  C   UNL     1      11.046  11.602  23.109  0.00  0.00    +0.300 C 
ATOM     31  H   UNL     1       9.811   9.952  22.820  0.00  0.00    +0.150 HD
ATOM     32  H   UNL     1       9.144  11.605  23.943  0.00  0.00    +0.150 HD
BRANCH   8  20
ATOM     20  C   UNL     1      10.109  13.398  24.559  0.00  0.00    +0.068 C 
ATOM     22  C   UNL     1      10.305  14.510  23.538  0.00  0.00    +0.027 C 
ATOM     23  C   UNL     1      11.232  13.388  25.588  0.00  0.00    +0.027 C 
ENDBRANCH   8  20
ENDBRANCH  15   6
ENDBRANCH   9  15
TORSDOF 9
ENDMDL
MODEL 2
REMARK VINA RESULT:      -7.1      2.123      2.890
REMARK  Name = 75367000
REMARK  11 active torsions:
REMARK  status: ('A' for Active; 'I' for Inactive)
REMARK    1  A    between atoms: O_2  and  C_11
REMARK    2  A    between atoms: O_5  and  C_21
REMARK    3  A    between atoms: O_5  and  C_24
REMARK    4  A    between atoms: N_6  and  C_15
REMARK    5  A    between atoms: N_8  and  C_20
REMARK    6  A    between atoms: C_9  and  C_15
REMARK    7  A    between atoms: C_10  and  C_14
REMARK    8  A    between atoms: C_14  and  C_16
REMARK    9  A    between atoms: C_19  and  C_21
REMARK   10  A    between atoms: C_20  and  C_22
REMARK   11  A    between atoms: C_20  and  C_23
REMARK                            x       y       z     vdW  Elec       q    Type
REMARK                         _______ _______ _______ _____ _____    ______ ____
ROOT
ATOM      1  O   UNL     1      11.022   8.526  19.540  0.00  0.00    -0.369 OA
ATOM      9  C   UNL     1      10.806   9.026  20.866  0.00  0.00    +0.164 C 
ATOM     10  C   UNL     1      12.301   7.927  19.317  0.00  0.00    +0.125 C 
ATOM     11  C   UNL     1      11.032   7.935  21.919  0.00  0.00    +0.145 C 
ATOM     12  C   UNL     1      12.520   6.754  20.272  0.00  0.00    +0.034 C 
ATOM     13  C   UNL     1      12.355   7.201  21.721  0.00  0.00    +0.036 C 
ENDROOT
BRANCH  11   2
ATOM      2  O   UNL     1       9.980   6.971  21.818  0.00  0.00    -0.389 OA
ATOM     30  H   UNL     1       9.295   7.343  21.238  0.00  0.00    +0.210 HD
ENDBRANCH  11   2
BRANCH  10  14
ATOM     14  C   UNL     1      12.343   7.462  17.868  0.00  0.00    +0.090 C 
BRANCH  14  16
ATOM      3  O   UNL     1      12.732   9.857  15.203  0.00  0.00    -0.356 OA
ATOM      7  N   UNL     1      12.088   8.786  15.809  0.00  0.00    -0.083 NA
ATOM     16  C   UNL     1      12.767   8.568  16.939  0.00  0.00    +0.086 A 
ATOM     17  C   UNL     1      13.839   9.463  17.098  0.00  0.00    +0.074 A 
ATOM     19  C   UNL     1      13.773  10.252  15.979  0.00  0.00    +0.175 A 
BRANCH  19  21
ATOM     21  C   UNL     1      14.568  11.383  15.484  0.00  0.00    +0.306 C 
BRANCH  21   5
ATOM      5  O   UNL     1      14.573  11.396  14.054  0.00  0.00    -0.484 OA
BRANCH   5  24
ATOM     24  C   UNL     1      15.746  11.761  13.454  0.00  0.00    +0.121 A 
ATOM     25  C   UNL     1      15.804  11.904  12.067  0.00  0.00    +0.045 A 
ATOM     26  C   UNL     1      16.883  11.990  14.227  0.00  0.00    +0.045 A 
ATOM     27  C   UNL     1      17.001  12.277  11.455  0.00  0.00    +0.004 A 
ATOM     28  C   UNL     1      18.079  12.363  13.615  0.00  0.00    +0.004 A 
ATOM     29  C   UNL     1      18.139  12.506  12.229  0.00  0.00    +0.000 A 
ENDBRANCH   5  24
ENDBRANCH  21   5
ENDBRANCH  19  21
ENDBRANCH  14  16
ENDBRANCH  10  14
BRANCH   9  15
ATOM     15  C   UNL     1      11.635  10.283  21.122  0.00  0.00    +0.140 C 
BRANCH  15   6
ATOM      4  O   UNL     1      11.423  13.161  21.114  0.00  0.00    -0.253 OA
ATOM      6  N   UNL     1      11.024  11.106  22.123  0.00  0.00    -0.297 N 
ATOM      8  N   UNL     1      10.316  13.050  23.151  0.00  0.00    -0.297 N 
ATOM     18  C   UNL     1      10.962  12.501  22.046  0.00  0.00    +0.300 C 
ATOM     31  H   UNL     1      10.631  10.652  22.942  0.00  0.00    +0.150 HD
ATOM     32  H   UNL     1       9.905  12.419  23.831  0.00  0.00    +0.150 HD
BRANCH   8  20
ATOM     20  C   UNL     1      10.118  14.471  23.316  0.00  0.00    +0.068 C 
ATOM     22  C   UNL     1      10.327  14.868  24.771  0.00  0.00    +0.027 C 
ATOM     23  C   UNL     1       8.736  14.880  22.825  0.00  0.00    +0.027 C 
ENDBRANCH   8  20
ENDBRANCH  15   6
ENDBRANCH   9  15
TORSDOF 9
ENDMDL
MODEL 3
REMARK VINA RESULT:      -7.0     13.367     15.894
REMARK  Name = 75367000
REMARK  11 active torsions:
REMARK  status: ('A' for Active; 'I' for Inactive)
REMARK    1  A    between atoms: O_2  and  C_11
REMARK    2  A    between atoms: O_5  and  C_21
REMARK    3  A    between atoms: O_5  and  C_24
REMARK    4  A    between atoms: N_6  and  C_15
REMARK    5  A    between atoms: N_8  and  C_20
REMARK    6  A    between atoms: C_9  and  C_15
REMARK    7  A    between atoms: C_10  and  C_14
REMARK    8  A    between atoms: C_14  and  C_16
REMARK    9  A    between atoms: C_19  and  C_21
REMARK   10  A    between atoms: C_20  and  C_22
REMARK   11  A    between atoms: C_20  and  C_23
REMARK                            x       y       z     vdW  Elec       q    Type
REMARK                         _______ _______ _______ _____ _____    ______ ____
ROOT
ATOM      1  O   UNL     1      11.386   6.236   7.120  0.00  0.00    -0.369 OA
ATOM      9  C   UNL     1      10.224   5.416   6.941  0.00  0.00    +0.164 C 
ATOM     10  C   UNL     1      11.213   7.616   6.789  0.00  0.00    +0.125 C 
ATOM     11  C   UNL     1       9.024   5.967   7.721  0.00  0.00    +0.145 C 
ATOM     12  C   UNL     1      10.100   8.238   7.631  0.00  0.00    +0.034 C 
ATOM     13  C   UNL     1       8.801   7.456   7.469  0.00  0.00    +0.036 C 
ENDROOT
BRANCH  11   2
ATOM      2  O   UNL     1       9.265   5.795   9.121  0.00  0.00    -0.389 OA
ATOM     30  H   UNL     1       8.627   6.349   9.600  0.00  0.00    +0.210 HD
ENDBRANCH  11   2
BRANCH  10  14
ATOM     14  C   UNL     1      12.541   8.318   7.040  0.00  0.00    +0.090 C 
BRANCH  14  16
ATOM      3  O   UNL     1      14.262   7.428   4.002  0.00  0.00    -0.356 OA
ATOM      7  N   UNL     1      13.113   7.554   4.772  0.00  0.00    -0.083 NA
ATOM     16  C   UNL     1      13.533   8.046   5.941  0.00  0.00    +0.086 A 
ATOM     17  C   UNL     1      14.924   8.248   5.966  0.00  0.00    +0.074 A 
ATOM     19  C   UNL     1      15.334   7.844   4.723  0.00  0.00    +0.175 A 
BRANCH  19  21
ATOM     21  C   UNL     1      16.639   7.778   4.054  0.00  0.00    +0.306 C 
BRANCH  21   5
ATOM      5  O   UNL     1      17.492   8.824   4.528  0.00  0.00    -0.484 OA
BRANCH   5  24
ATOM     24  C   UNL     1      18.686   8.437   5.071  0.00  0.00    +0.121 A 
ATOM     25  C   UNL     1      19.590   7.697   4.310  0.00  0.00    +0.045 A 
ATOM     26  C   UNL     1      18.998   8.782   6.386  0.00  0.00    +0.045 A 
ATOM     27  C   UNL     1      20.808   7.302   4.865  0.00  0.00    +0.004 A 
ATOM     28  C   UNL     1      20.215   8.387   6.940  0.00  0.00    +0.004 A 
ATOM     29  C   UNL     1      21.121   7.648   6.180  0.00  0.00    +0.000 A 
ENDBRANCH   5  24
ENDBRANCH  21   5
ENDBRANCH  19  21
ENDBRANCH  14  16
ENDBRANCH  10  14
BRANCH   9  15
ATOM     15  C   UNL     1       9.924   5.203   5.459  0.00  0.00    +0.140 C 
BRANCH  15   6
ATOM      4  O   UNL     1      10.167   4.730   2.623  0.00  0.00    -0.253 OA
ATOM      6  N   UNL     1      11.132   5.171   4.690  0.00  0.00    -0.297 N 
ATOM      8  N   UNL     1      12.469   4.957   2.818  0.00  0.00    -0.297 N 
ATOM     18  C   UNL     1      11.166   4.933   3.312  0.00  0.00    +0.300 C 
ATOM     31  H   UNL     1      12.013   5.310   5.176  0.00  0.00    +0.150 HD
ATOM     32  H   UNL     1      13.220   5.206   3.452  0.00  0.00    +0.150 HD
BRANCH   8  20
ATOM     20  C   UNL     1      12.781   4.741   1.424  0.00  0.00    +0.068 C 
ATOM     22  C   UNL     1      13.652   3.502   1.264  0.00  0.00    +0.027 C 
ATOM     23  C   UNL     1      13.455   5.971   0.831  0.00  0.00    +0.027 C 
ENDBRANCH   8  20
ENDBRANCH  15   6
ENDBRANCH   9  15
TORSDOF 9
ENDMDL
MODEL 4
REMARK VINA RESULT:      -7.0     26.903     28.847
REMARK  Name = 75367000
REMARK  11 active torsions:
REMARK  status: ('A' for Active; 'I' for Inactive)
REMARK    1  A    between atoms: O_2  and  C_11
REMARK    2  A    between atoms: O_5  and  C_21
REMARK    3  A    between atoms: O_5  and  C_24
REMARK    4  A    between atoms: N_6  and  C_15
REMARK    5  A    between atoms: N_8  and  C_20
REMARK    6  A    between atoms: C_9  and  C_15
REMARK    7  A    between atoms: C_10  and  C_14
REMARK    8  A    between atoms: C_14  and  C_16
REMARK    9  A    between atoms: C_19  and  C_21
REMARK   10  A    between atoms: C_20  and  C_22
REMARK   11  A    between atoms: C_20  and  C_23
REMARK                            x       y       z     vdW  Elec       q    Type
REMARK                         _______ _______ _______ _____ _____    ______ ____
ROOT
ATOM      1  O   UNL     1      -6.366 -11.441  16.888  0.00  0.00    -0.369 OA
ATOM      9  C   UNL     1      -7.463 -10.634  17.337  0.00  0.00    +0.164 C 
ATOM     10  C   UNL     1      -5.100 -11.127  17.474  0.00  0.00    +0.125 C 
ATOM     11  C   UNL     1      -7.599 -10.675  18.864  0.00  0.00    +0.145 C 
ATOM     12  C   UNL     1      -5.160 -11.271  18.995  0.00  0.00    +0.034 C 
ATOM     13  C   UNL     1      -6.276 -10.406  19.574  0.00  0.00    +0.036 C 
ENDROOT
BRANCH  11   2
ATOM      2  O   UNL     1      -8.044 -11.978  19.252  0.00  0.00    -0.389 OA
ATOM     30  H   UNL     1      -8.927 -11.882  19.648  0.00  0.00    +0.210 HD
ENDBRANCH  11   2
BRANCH  10  14
ATOM     14  C   UNL     1      -4.071 -12.079  16.879  0.00  0.00    +0.090 C 
BRANCH  14  16
ATOM      3  O   UNL     1      -1.682 -10.194  14.949  0.00  0.00    -0.356 OA
ATOM      7  N   UNL     1      -2.212 -10.640  16.153  0.00  0.00    -0.083 NA
ATOM     16  C   UNL     1      -3.247 -11.412  15.811  0.00  0.00    +0.086 A 
ATOM     17  C   UNL     1      -3.417 -11.489  14.418  0.00  0.00    +0.074 A 
ATOM     19  C   UNL     1      -2.408 -10.706  13.922  0.00  0.00    +0.175 A 
BRANCH  19  21
ATOM     21  C   UNL     1      -1.981 -10.333  12.568  0.00  0.00    +0.306 C 
BRANCH  21   5
ATOM      5  O   UNL     1      -2.477 -11.277  11.615  0.00  0.00    -0.484 OA
BRANCH   5  24
ATOM     24  C   UNL     1      -3.232 -10.770  10.594  0.00  0.00    +0.121 A 
ATOM     25  C   UNL     1      -3.998 -11.626   9.802  0.00  0.00    +0.045 A 
ATOM     26  C   UNL     1      -3.237  -9.399  10.344  0.00  0.00    +0.045 A 
ATOM     27  C   UNL     1      -4.768 -11.109   8.760  0.00  0.00    +0.004 A 
ATOM     28  C   UNL     1      -4.007  -8.882   9.303  0.00  0.00    +0.004 A 
ATOM     29  C   UNL     1      -4.773  -9.737   8.511  0.00  0.00    +0.000 A 
ENDBRANCH   5  24
ENDBRANCH  21   5
ENDBRANCH  19  21
ENDBRANCH  14  16
ENDBRANCH  10  14
BRANCH   9  15
ATOM     15  C   UNL     1      -7.362  -9.213  16.786  0.00  0.00    +0.140 C 
BRANCH  15   6
ATOM      4  O   UNL     1      -9.749  -7.781  17.545  0.00  0.00    -0.253 OA
ATOM      6  N   UNL     1      -8.485  -8.905  15.952  0.00  0.00    -0.297 N 
ATOM      8  N   UNL     1     -10.552  -8.043  15.383  0.00  0.00    -0.297 N 
ATOM     18  C   UNL     1      -9.611  -8.204  16.397  0.00  0.00    +0.300 C 
ATOM     31  H   UNL     1      -8.471  -9.230  14.990  0.00  0.00    +0.150 HD
ATOM     32  H   UNL     1     -10.314  -8.363  14.450  0.00  0.00    +0.150 HD
BRANCH   8  20
ATOM     20  C   UNL     1     -11.805  -7.353  15.581  0.00  0.00    +0.068 C 
ATOM     22  C   UNL     1     -12.899  -7.992  14.736  0.00  0.00    +0.027 C 
ATOM     23  C   UNL     1     -11.656  -5.871  15.261  0.00  0.00    +0.027 C 
ENDBRANCH   8  20
ENDBRANCH  15   6
ENDBRANCH   9  15
TORSDOF 9
ENDMDL
MODEL 5
REMARK VINA RESULT:      -7.0     26.597     30.249
REMARK  Name = 75367000
REMARK  11 active torsions:
REMARK  status: ('A' for Active; 'I' for Inactive)
REMARK    1  A    between atoms: O_2  and  C_11
REMARK    2  A    between atoms: O_5  and  C_21
REMARK    3  A    between atoms: O_5  and  C_24
REMARK    4  A    between atoms: N_6  and  C_15
REMARK    5  A    between atoms: N_8  and  C_20
REMARK    6  A    between atoms: C_9  and  C_15
REMARK    7  A    between atoms: C_10  and  C_14
REMARK    8  A    between atoms: C_14  and  C_16
REMARK    9  A    between atoms: C_19  and  C_21
REMARK   10  A    between atoms: C_20  and  C_22
REMARK   11  A    between atoms: C_20  and  C_23
REMARK                            x       y       z     vdW  Elec       q    Type
REMARK                         _______ _______ _______ _____ _____    ______ ____
ROOT
ATOM      1  O   UNL     1      -8.415  -9.336  17.891  0.00  0.00    -0.369 OA
ATOM      9  C   UNL     1      -7.083  -9.857  17.804  0.00  0.00    +0.164 C 
ATOM     10  C   UNL     1      -9.447 -10.318  18.011  0.00  0.00    +0.125 C 
ATOM     11  C   UNL     1      -6.761 -10.770  18.993  0.00  0.00    +0.145 C 
ATOM     12  C   UNL     1      -9.229 -11.179  19.255  0.00  0.00    +0.034 C 
ATOM     13  C   UNL     1      -7.844 -11.820  19.230  0.00  0.00    +0.036 C 
ENDROOT
BRANCH  11   2
ATOM      2  O   UNL     1      -6.663  -9.971  20.175  0.00  0.00    -0.389 OA
ATOM     30  H   UNL     1      -6.263 -10.521  20.870  0.00  0.00    +0.210 HD
ENDBRANCH  11   2
BRANCH  10  14
ATOM     14  C   UNL     1     -10.776  -9.580  18.089  0.00  0.00    +0.090 C 
BRANCH  14  16
ATOM      3  O   UNL     1     -11.250  -8.141  14.819  0.00  0.00    -0.356 OA
ATOM      7  N   UNL     1     -11.045  -9.220  15.669  0.00  0.00    -0.083 NA
ATOM     16  C   UNL     1     -10.990  -8.689  16.894  0.00  0.00    +0.086 A 
ATOM     17  C   UNL     1     -11.152  -7.293  16.879  0.00  0.00    +0.074 A 
ATOM     19  C   UNL     1     -11.312  -6.998  15.550  0.00  0.00    +0.175 A 
BRANCH  19  21
ATOM     21  C   UNL     1     -11.526  -5.753  14.803  0.00  0.00    +0.306 C 
BRANCH  21   5
ATOM      5  O   UNL     1     -12.923  -5.547  14.575  0.00  0.00    -0.484 OA
BRANCH   5  24
ATOM     24  C   UNL     1     -13.255  -4.759  13.508  0.00  0.00    +0.121 A 
ATOM     25  C   UNL     1     -12.258  -4.269  12.666  0.00  0.00    +0.045 A 
ATOM     26  C   UNL     1     -14.592  -4.445  13.263  0.00  0.00    +0.045 A 
ATOM     27  C   UNL     1     -12.597  -3.465  11.577  0.00  0.00    +0.004 A 
ATOM     28  C   UNL     1     -14.931  -3.642  12.175  0.00  0.00    +0.004 A 
ATOM     29  C   UNL     1     -13.934  -3.152  11.331  0.00  0.00    +0.000 A 
ENDBRANCH   5  24
ENDBRANCH  21   5
ENDBRANCH  19  21
ENDBRANCH  14  16
ENDBRANCH  10  14
BRANCH   9  15
ATOM     15  C   UNL     1      -6.842 -10.529  16.454  0.00  0.00    +0.140 C 
BRANCH  15   6
ATOM      4  O   UNL     1      -4.389 -12.002  16.825  0.00  0.00    -0.253 OA
ATOM      6  N   UNL     1      -5.549 -10.195  15.937  0.00  0.00    -0.297 N 
ATOM      8  N   UNL     1      -3.282 -10.412  15.547  0.00  0.00    -0.297 N 
ATOM     18  C   UNL     1      -4.402 -10.965  16.163  0.00  0.00    +0.300 C 
ATOM     31  H   UNL     1      -5.456  -9.343  15.393  0.00  0.00    +0.150 HD
ATOM     32  H   UNL     1      -3.409  -9.593  14.962  0.00  0.00    +0.150 HD
BRANCH   8  20
ATOM     20  C   UNL     1      -1.970 -11.012  15.625  0.00  0.00    +0.068 C 
ATOM     22  C   UNL     1      -0.894  -9.937  15.584  0.00  0.00    +0.027 C 
ATOM     23  C   UNL     1      -1.780 -12.027  14.506  0.00  0.00    +0.027 C 
ENDBRANCH   8  20
ENDBRANCH  15   6
ENDBRANCH   9  15
TORSDOF 9
ENDMDL
MODEL 6
REMARK VINA RESULT:      -7.0     27.318     29.247
REMARK  Name = 75367000
REMARK  11 active torsions:
REMARK  status: ('A' for Active; 'I' for Inactive)
REMARK    1  A    between atoms: O_2  and  C_11
REMARK    2  A    between atoms: O_5  and  C_21
REMARK    3  A    between atoms: O_5  and  C_24
REMARK    4  A    between atoms: N_6  and  C_15
REMARK    5  A    between atoms: N_8  and  C_20
REMARK    6  A    between atoms: C_9  and  C_15
REMARK    7  A    between atoms: C_10  and  C_14
REMARK    8  A    between atoms: C_14  and  C_16
REMARK    9  A    between atoms: C_19  and  C_21
REMARK   10  A    between atoms: C_20  and  C_22
REMARK   11  A    between atoms: C_20  and  C_23
REMARK                            x       y       z     vdW  Elec       q    Type
REMARK                         _______ _______ _______ _____ _____    ______ ____
ROOT
ATOM      1  O   UNL     1      -6.257 -12.281  17.392  0.00  0.00    -0.369 OA
ATOM      9  C   UNL     1      -7.671 -12.261  17.621  0.00  0.00    +0.164 C 
ATOM     10  C   UNL     1      -5.549 -11.127  17.852  0.00  0.00    +0.125 C 
ATOM     11  C   UNL     1      -7.995 -12.040  19.103  0.00  0.00    +0.145 C 
ATOM     12  C   UNL     1      -5.750 -10.935  19.354  0.00  0.00    +0.034 C 
ATOM     13  C   UNL     1      -7.235 -10.855  19.694  0.00  0.00    +0.036 C 
ENDROOT
BRANCH  11   2
ATOM      2  O   UNL     1      -7.618 -13.208  19.837  0.00  0.00    -0.389 OA
ATOM     30  H   UNL     1      -7.361 -13.890  19.194  0.00  0.00    +0.210 HD
ENDBRANCH  11   2
BRANCH  10  14
ATOM     14  C   UNL     1      -4.077 -11.330  17.522  0.00  0.00    +0.090 C 
BRANCH  14  16
ATOM      3  O   UNL     1      -4.150 -10.405  14.039  0.00  0.00    -0.356 OA
ATOM      7  N   UNL     1      -4.765 -10.640  15.263  0.00  0.00    -0.083 NA
ATOM     16  C   UNL     1      -3.775 -10.997  16.085  0.00  0.00    +0.086 A 
ATOM     17  C   UNL     1      -2.525 -11.007  15.443  0.00  0.00    +0.074 A 
ATOM     19  C   UNL     1      -2.816 -10.627  14.158  0.00  0.00    +0.175 A 
BRANCH  19  21
ATOM     21  C   UNL     1      -2.007 -10.424  12.950  0.00  0.00    +0.306 C 
BRANCH  21   5
ATOM      5  O   UNL     1      -2.367 -11.378  11.947  0.00  0.00    -0.484 OA
BRANCH   5  24
ATOM     24  C   UNL     1      -3.069 -10.900  10.877  0.00  0.00    +0.121 A 
ATOM     25  C   UNL     1      -3.858 -11.765  10.118  0.00  0.00    +0.045 A 
ATOM     26  C   UNL     1      -2.998  -9.548  10.543  0.00  0.00    +0.045 A 
ATOM     27  C   UNL     1      -4.575 -11.277   9.025  0.00  0.00    +0.004 A 
ATOM     28  C   UNL     1      -3.714  -9.060   9.451  0.00  0.00    +0.004 A 
ATOM     29  C   UNL     1      -4.503  -9.924   8.692  0.00  0.00    +0.000 A 
ENDBRANCH   5  24
ENDBRANCH  21   5
ENDBRANCH  19  21
ENDBRANCH  14  16
ENDBRANCH  10  14
BRANCH   9  15
ATOM     15  C   UNL     1      -8.363 -11.256  16.703  0.00  0.00    +0.140 C 
BRANCH  15   6
ATOM      4  O   UNL     1      -8.839  -9.379  14.563  0.00  0.00    -0.253 OA
ATOM      6  N   UNL     1      -7.794 -11.283  15.389  0.00  0.00    -0.297 N 
ATOM      8  N   UNL     1      -7.389 -10.597  13.221  0.00  0.00    -0.297 N 
ATOM     18  C   UNL     1      -8.077 -10.332  14.403  0.00  0.00    +0.300 C 
ATOM     31  H   UNL     1      -7.164 -12.045  15.156  0.00  0.00    +0.150 HD
ATOM     32  H   UNL     1      -6.726 -11.365  13.210  0.00  0.00    +0.150 HD
BRANCH   8  20
ATOM     20  C   UNL     1      -7.505  -9.765  12.045  0.00  0.00    +0.068 C 
ATOM     22  C   UNL     1      -7.633 -10.628  10.798  0.00  0.00    +0.027 C 
ATOM     23  C   UNL     1      -6.317  -8.818  11.941  0.00  0.00    +0.027 C 
ENDBRANCH   8  20
ENDBRANCH  15   6
ENDBRANCH   9  15
TORSDOF 9
ENDMDL
MODEL 7
REMARK VINA RESULT:      -6.7      5.396      6.182
REMARK  Name = 75367000
REMARK  11 active torsions:
REMARK  status: ('A' for Active; 'I' for Inactive)
REMARK    1  A    between atoms: O_2  and  C_11
REMARK    2  A    between atoms: O_5  and  C_21
REMARK    3  A    between atoms: O_5  and  C_24
REMARK    4  A    between atoms: N_6  and  C_15
REMARK    5  A    between atoms: N_8  and  C_20
REMARK    6  A    between atoms: C_9  and  C_15
REMARK    7  A    between atoms: C_10  and  C_14
REMARK    8  A    between atoms: C_14  and  C_16
REMARK    9  A    between atoms: C_19  and  C_21
REMARK   10  A    between atoms: C_20  and  C_22
REMARK   11  A    between atoms: C_20  and  C_23
REMARK                            x       y       z     vdW  Elec       q    Type
REMARK                         _______ _______ _______ _____ _____    ______ ____
ROOT
ATOM      1  O   UNL     1      13.382   8.678  19.690  0.00  0.00    -0.369 OA
ATOM      9  C   UNL     1      12.351   9.447  20.324  0.00  0.00    +0.164 C 
ATOM     10  C   UNL     1      13.683   7.430  20.318  0.00  0.00    +0.125 C 
ATOM     11  C   UNL     1      11.056   8.637  20.463  0.00  0.00    +0.145 C 
ATOM     12  C   UNL     1      12.441   6.540  20.372  0.00  0.00    +0.034 C 
ATOM     13  C   UNL     1      11.294   7.260  21.076  0.00  0.00    +0.036 C 
ENDROOT
BRANCH  11   2
ATOM      2  O   UNL     1      10.491   8.444  19.164  0.00  0.00    -0.389 OA
ATOM     30  H   UNL     1      11.213   8.197  18.562  0.00  0.00    +0.210 HD
ENDBRANCH  11   2
BRANCH  10  14
ATOM     14  C   UNL     1      14.791   6.766  19.511  0.00  0.00    +0.090 C 
BRANCH  14  16
ATOM      3  O   UNL     1      17.592   7.589  21.624  0.00  0.00    -0.356 OA
ATOM      7  N   UNL     1      16.236   7.598  21.321  0.00  0.00    -0.083 NA
ATOM     16  C   UNL     1      16.138   6.952  20.155  0.00  0.00    +0.086 A 
ATOM     17  C   UNL     1      17.388   6.518  19.680  0.00  0.00    +0.074 A 
ATOM     19  C   UNL     1      18.268   6.943  20.640  0.00  0.00    +0.175 A 
BRANCH  19  21
ATOM     21  C   UNL     1      19.723   6.841  20.803  0.00  0.00    +0.306 C 
BRANCH  21   5
ATOM      5  O   UNL     1      20.137   5.475  20.712  0.00  0.00    -0.484 OA
BRANCH   5  24
ATOM     24  C   UNL     1      21.073   5.061  21.619  0.00  0.00    +0.121 A 
ATOM     25  C   UNL     1      21.730   3.845  21.436  0.00  0.00    +0.045 A 
ATOM     26  C   UNL     1      21.370   5.856  22.725  0.00  0.00    +0.045 A 
ATOM     27  C   UNL     1      22.686   3.423  22.361  0.00  0.00    +0.004 A 
ATOM     28  C   UNL     1      22.325   5.434  23.650  0.00  0.00    +0.004 A 
ATOM     29  C   UNL     1      22.984   4.218  23.468  0.00  0.00    +0.000 A 
ENDBRANCH   5  24
ENDBRANCH  21   5
ENDBRANCH  19  21
ENDBRANCH  14  16
ENDBRANCH  10  14
BRANCH   9  15
ATOM     15  C   UNL     1      12.835  10.030  21.649  0.00  0.00    +0.140 C 
BRANCH  15   6
ATOM      4  O   UNL     1      12.890  12.776  22.534  0.00  0.00    -0.253 OA
ATOM      6  N   UNL     1      11.785  10.745  22.310  0.00  0.00    -0.297 N 
ATOM      8  N   UNL     1      10.724  12.527  23.329  0.00  0.00    -0.297 N 
ATOM     18  C   UNL     1      11.890  12.082  22.710  0.00  0.00    +0.300 C 
ATOM     31  H   UNL     1      10.923  10.248  22.516  0.00  0.00    +0.150 HD
ATOM     32  H   UNL     1       9.926  11.901  23.361  0.00  0.00    +0.150 HD
BRANCH   8  20
ATOM     20  C   UNL     1      10.571  13.871  23.834  0.00  0.00    +0.068 C 
ATOM     22  C   UNL     1      10.426  13.852  25.350  0.00  0.00    +0.027 C 
ATOM     23  C   UNL     1       9.383  14.559  23.175  0.00  0.00    +0.027 C 
ENDBRANCH   8  20
ENDBRANCH  15   6
ENDBRANCH   9  15
TORSDOF 9
ENDMDL
MODEL 8
REMARK VINA RESULT:      -6.7     14.168     18.172
REMARK  Name = 75367000
REMARK  11 active torsions:
REMARK  status: ('A' for Active; 'I' for Inactive)
REMARK    1  A    between atoms: O_2  and  C_11
REMARK    2  A    between atoms: O_5  and  C_21
REMARK    3  A    between atoms: O_5  and  C_24
REMARK    4  A    between atoms: N_6  and  C_15
REMARK    5  A    between atoms: N_8  and  C_20
REMARK    6  A    between atoms: C_9  and  C_15
REMARK    7  A    between atoms: C_10  and  C_14
REMARK    8  A    between atoms: C_14  and  C_16
REMARK    9  A    between atoms: C_19  and  C_21
REMARK   10  A    between atoms: C_20  and  C_22
REMARK   11  A    between atoms: C_20  and  C_23
REMARK                            x       y       z     vdW  Elec       q    Type
REMARK                         _______ _______ _______ _____ _____    ______ ____
ROOT
ATOM      1  O   UNL     1      10.736   6.750   5.744  0.00  0.00    -0.369 OA
ATOM      9  C   UNL     1      11.146   7.042   7.086  0.00  0.00    +0.164 C 
ATOM     10  C   UNL     1      10.536   5.364   5.457  0.00  0.00    +0.125 C 
ATOM     11  C   UNL     1      10.165   6.460   8.110  0.00  0.00    +0.145 C 
ATOM     12  C   UNL     1       9.474   4.770   6.381  0.00  0.00    +0.034 C 
ATOM     13  C   UNL     1       9.849   4.991   7.844  0.00  0.00    +0.036 C 
ENDROOT
BRANCH  11   2
ATOM      2  O   UNL     1       8.936   7.190   8.037  0.00  0.00    -0.389 OA
ATOM     30  H   UNL     1       8.772   7.577   8.913  0.00  0.00    +0.210 HD
ENDBRANCH  11   2
BRANCH  10  14
ATOM     14  C   UNL     1      10.109   5.255   3.999  0.00  0.00    +0.090 C 
BRANCH  14  16
ATOM      3  O   UNL     1      13.162   5.362   2.087  0.00  0.00    -0.356 OA
ATOM      7  N   UNL     1      12.254   5.907   2.987  0.00  0.00    -0.083 NA
ATOM     16  C   UNL     1      11.281   4.998   3.091  0.00  0.00    +0.086 A 
ATOM     17  C   UNL     1      11.518   3.869   2.288  0.00  0.00    +0.074 A 
ATOM     19  C   UNL     1      12.712   4.148   1.677  0.00  0.00    +0.175 A 
BRANCH  19  21
ATOM     21  C   UNL     1      13.557   3.427   0.717  0.00  0.00    +0.306 C 
BRANCH  21   5
ATOM      5  O   UNL     1      13.543   4.089  -0.550  0.00  0.00    -0.484 OA
BRANCH   5  24
ATOM     24  C   UNL     1      12.514   3.770  -1.392  0.00  0.00    +0.121 A 
ATOM     25  C   UNL     1      11.647   4.765  -1.842  0.00  0.00    +0.045 A 
ATOM     26  C   UNL     1      12.333   2.449  -1.801  0.00  0.00    +0.045 A 
ATOM     27  C   UNL     1      10.597   4.439  -2.701  0.00  0.00    +0.004 A 
ATOM     28  C   UNL     1      11.284   2.123  -2.660  0.00  0.00    +0.004 A 
ATOM     29  C   UNL     1      10.416   3.118  -3.111  0.00  0.00    +0.000 A 
ENDBRANCH   5  24
ENDBRANCH  21   5
ENDBRANCH  19  21
ENDBRANCH  14  16
ENDBRANCH  10  14
BRANCH   9  15
ATOM     15  C   UNL     1      12.589   6.604   7.327  0.00  0.00    +0.140 C 
BRANCH  15   6
ATOM      4  O   UNL     1      14.345   8.593   6.193  0.00  0.00    -0.253 OA
ATOM      6  N   UNL     1      13.312   6.514   6.094  0.00  0.00    -0.297 N 
ATOM      8  N   UNL     1      14.725   7.178   4.392  0.00  0.00    -0.297 N 
ATOM     18  C   UNL     1      14.147   7.526   5.610  0.00  0.00    +0.300 C 
ATOM     31  H   UNL     1      13.198   5.676   5.532  0.00  0.00    +0.150 HD
ATOM     32  H   UNL     1      14.558   6.246   4.027  0.00  0.00    +0.150 HD
BRANCH   8  20
ATOM     20  C   UNL     1      15.630   8.049   3.678  0.00  0.00    +0.068 C 
ATOM     22  C   UNL     1      15.622   7.716   2.192  0.00  0.00    +0.027 C 
ATOM     23  C   UNL     1      17.035   7.952   4.258  0.00  0.00    +0.027 C 
ENDBRANCH   8  20
ENDBRANCH  15   6
ENDBRANCH   9  15
TORSDOF 9
ENDMDL
MODEL 9
REMARK VINA RESULT:      -6.5     27.268     29.512
REMARK  Name = 75367000
REMARK  11 active torsions:
REMARK  status: ('A' for Active; 'I' for Inactive)
REMARK    1  A    between atoms: O_2  and  C_11
REMARK    2  A    between atoms: O_5  and  C_21
REMARK    3  A    between atoms: O_5  and  C_24
REMARK    4  A    between atoms: N_6  and  C_15
REMARK    5  A    between atoms: N_8  and  C_20
REMARK    6  A    between atoms: C_9  and  C_15
REMARK    7  A    between atoms: C_10  and  C_14
REMARK    8  A    between atoms: C_14  and  C_16
REMARK    9  A    between atoms: C_19  and  C_21
REMARK   10  A    between atoms: C_20  and  C_22
REMARK   11  A    between atoms: C_20  and  C_23
REMARK                            x       y       z     vdW  Elec       q    Type
REMARK                         _______ _______ _______ _____ _____    ______ ____
ROOT
ATOM      1  O   UNL     1      -5.012 -12.000  17.935  0.00  0.00    -0.369 OA
ATOM      9  C   UNL     1      -6.041 -12.950  18.242  0.00  0.00    +0.164 C 
ATOM     10  C   UNL     1      -5.378 -10.989  16.993  0.00  0.00    +0.125 C 
ATOM     11  C   UNL     1      -7.316 -12.254  18.732  0.00  0.00    +0.145 C 
ATOM     12  C   UNL     1      -6.578 -10.190  17.499  0.00  0.00    +0.034 C 
ATOM     13  C   UNL     1      -7.749 -11.117  17.810  0.00  0.00    +0.036 C 
ENDROOT
BRANCH  11   2
ATOM      2  O   UNL     1      -7.069 -11.695  20.025  0.00  0.00    -0.389 OA
ATOM     30  H   UNL     1      -7.920 -11.644  20.492  0.00  0.00    +0.210 HD
ENDBRANCH  11   2
BRANCH  10  14
ATOM     14  C   UNL     1      -4.167 -10.086  16.798  0.00  0.00    +0.090 C 
BRANCH  14  16
ATOM      3  O   UNL     1      -1.492 -11.435  14.794  0.00  0.00    -0.356 OA
ATOM      7  N   UNL     1      -2.047 -11.054  16.010  0.00  0.00    -0.083 NA
ATOM     16  C   UNL     1      -3.263 -10.593  15.706  0.00  0.00    +0.086 A 
ATOM     17  C   UNL     1      -3.529 -10.656  14.327  0.00  0.00    +0.074 A 
ATOM     19  C   UNL     1      -2.384 -11.193  13.799  0.00  0.00    +0.175 A 
BRANCH  19  21
ATOM     21  C   UNL     1      -1.957 -11.539  12.438  0.00  0.00    +0.306 C 
BRANCH  21   5
ATOM      5  O   UNL     1      -3.064 -12.038  11.684  0.00  0.00    -0.484 OA
BRANCH   5  24
ATOM     24  C   UNL     1      -3.516 -11.242  10.668  0.00  0.00    +0.121 A 
ATOM     25  C   UNL     1      -4.265 -11.795   9.630  0.00  0.00    +0.045 A 
ATOM     26  C   UNL     1      -3.228  -9.878  10.671  0.00  0.00    +0.045 A 
ATOM     27  C   UNL     1      -4.726 -10.982   8.593  0.00  0.00    +0.004 A 
ATOM     28  C   UNL     1      -3.689  -9.065   9.636  0.00  0.00    +0.004 A 
ATOM     29  C   UNL     1      -4.439  -9.617   8.597  0.00  0.00    +0.000 A 
ENDBRANCH   5  24
ENDBRANCH  21   5
ENDBRANCH  19  21
ENDBRANCH  14  16
ENDBRANCH  10  14
BRANCH   9  15
ATOM     15  C   UNL     1      -6.290 -13.890  17.064  0.00  0.00    +0.140 C 
BRANCH  15   6
ATOM      4  O   UNL     1      -5.318 -13.747  14.351  0.00  0.00    -0.253 OA
ATOM      6  N   UNL     1      -5.059 -14.419  16.560  0.00  0.00    -0.297 N 
ATOM      8  N   UNL     1      -3.420 -14.911  15.007  0.00  0.00    -0.297 N 
ATOM     18  C   UNL     1      -4.657 -14.308  15.224  0.00  0.00    +0.300 C 
ATOM     31  H   UNL     1      -4.452 -14.918  17.204  0.00  0.00    +0.150 HD
ATOM     32  H   UNL     1      -2.918 -15.284  15.806  0.00  0.00    +0.150 HD
BRANCH   8  20
ATOM     20  C   UNL     1      -2.779 -14.936  13.713  0.00  0.00    +0.068 C 
ATOM     22  C   UNL     1      -3.263 -16.134  12.907  0.00  0.00    +0.027 C 
ATOM     23  C   UNL     1      -1.264 -14.951  13.867  0.00  0.00    +0.027 C 
ENDBRANCH   8  20
ENDBRANCH  15   6
ENDBRANCH   9  15
TORSDOF 9
ENDMDL
MODEL 10
REMARK VINA RESULT:      -6.5     22.757     25.709
REMARK  Name = 75367000
REMARK  11 active torsions:
REMARK  status: ('A' for Active; 'I' for Inactive)
REMARK    1  A    between atoms: O_2  and  C_11
REMARK    2  A    between atoms: O_5  and  C_21
REMARK    3  A    between atoms: O_5  and  C_24
REMARK    4  A    between atoms: N_6  and  C_15
REMARK    5  A    between atoms: N_8  and  C_20
REMARK    6  A    between atoms: C_9  and  C_15
REMARK    7  A    between atoms: C_10  and  C_14
REMARK    8  A    between atoms: C_14  and  C_16
REMARK    9  A    between atoms: C_19  and  C_21
REMARK   10  A    between atoms: C_20  and  C_22
REMARK   11  A    between atoms: C_20  and  C_23
REMARK                            x       y       z     vdW  Elec       q    Type
REMARK                         _______ _______ _______ _____ _____    ______ ____
ROOT
ATOM      1  O   UNL     1     -10.893   8.314  18.914  0.00  0.00    -0.369 OA
ATOM      9  C   UNL     1     -10.118   9.008  17.927  0.00  0.00    +0.164 C 
ATOM     10  C   UNL     1     -12.305   8.528  18.840  0.00  0.00    +0.125 C 
ATOM     11  C   UNL     1     -10.596   8.678  16.508  0.00  0.00    +0.145 C 
ATOM     12  C   UNL     1     -12.844   8.100  17.476  0.00  0.00    +0.034 C 
ATOM     13  C   UNL     1     -12.107   8.825  16.354  0.00  0.00    +0.036 C 
ENDROOT
BRANCH  11   2
ATOM      2  O   UNL     1     -10.259   7.319  16.212  0.00  0.00    -0.389 OA
ATOM     30  H   UNL     1     -11.059   6.783  16.340  0.00  0.00    +0.210 HD
ENDBRANCH  11   2
BRANCH  10  14
ATOM     14  C   UNL     1     -12.950   7.719  19.957  0.00  0.00    +0.090 C 
BRANCH  14  16
ATOM      3  O   UNL     1     -14.076   9.133  23.075  0.00  0.00    -0.356 OA
ATOM      7  N   UNL     1     -14.072   8.136  22.107  0.00  0.00    -0.083 NA
ATOM     16  C   UNL     1     -13.213   8.562  21.177  0.00  0.00    +0.086 A 
ATOM     17  C   UNL     1     -12.650   9.809  21.499  0.00  0.00    +0.074 A 
ATOM     19  C   UNL     1     -13.226  10.124  22.703  0.00  0.00    +0.175 A 
BRANCH  19  21
ATOM     21  C   UNL     1     -13.108  11.265  23.619  0.00  0.00    +0.306 C 
BRANCH  21   5
ATOM      5  O   UNL     1     -11.814  11.278  24.229  0.00  0.00    -0.484 OA
BRANCH   5  24
ATOM     24  C   UNL     1     -11.750  10.853  25.527  0.00  0.00    +0.121 A 
ATOM     25  C   UNL     1     -10.521  10.510  26.089  0.00  0.00    +0.045 A 
ATOM     26  C   UNL     1     -12.915  10.762  26.289  0.00  0.00    +0.045 A 
ATOM     27  C   UNL     1     -10.455  10.076  27.413  0.00  0.00    +0.004 A 
ATOM     28  C   UNL     1     -12.850  10.329  27.613  0.00  0.00    +0.004 A 
ATOM     29  C   UNL     1     -11.620   9.986  28.176  0.00  0.00    +0.000 A 
ENDBRANCH   5  24
ENDBRANCH  21   5
ENDBRANCH  19  21
ENDBRANCH  14  16
ENDBRANCH  10  14
BRANCH   9  15
ATOM     15  C   UNL     1     -10.082  10.508  18.211  0.00  0.00    +0.140 C 
BRANCH  15   6
ATOM      4  O   UNL     1     -10.916  12.911  16.848  0.00  0.00    -0.253 OA
ATOM      6  N   UNL     1      -9.371  11.208  17.183  0.00  0.00    -0.297 N 
ATOM      8  N   UNL     1      -8.957  12.844  15.605  0.00  0.00    -0.297 N 
ATOM     18  C   UNL     1      -9.845  12.372  16.569  0.00  0.00    +0.300 C 
ATOM     31  H   UNL     1      -8.483  10.828  16.872  0.00  0.00    +0.150 HD
ATOM     32  H   UNL     1      -8.065  12.371  15.500  0.00  0.00    +0.150 HD
BRANCH   8  20
ATOM     20  C   UNL     1      -9.208  14.033  14.825  0.00  0.00    +0.068 C 
ATOM     22  C   UNL     1     -10.099  13.704  13.635  0.00  0.00    +0.027 C 
ATOM     23  C   UNL     1      -7.897  14.664  14.375  0.00  0.00    +0.027 C 
ENDBRANCH   8  20
ENDBRANCH  15   6
ENDBRANCH   9  15
TORSDOF 9
ENDMDL
