MODEL 1
REMARK VINA RESULT:      -8.1      0.000      0.000
REMARK  Name = 11913221
REMARK  7 active torsions:
REMARK  status: ('A' for Active; 'I' for Inactive)
REMARK    1  A    between atoms: S_1  and  N_6
REMARK    2  A    between atoms: S_1  and  C_17
REMARK    3  A    between atoms: N_6  and  C_12
REMARK    4  A    between atoms: N_7  and  C_13
REMARK    5  A    between atoms: C_17  and  C_18
REMARK    6  A    between atoms: C_19  and  C_24
REMARK    7  A    between atoms: C_32  and  C_33
REMARK                            x       y       z     vdW  Elec       q    Type
REMARK                         _______ _______ _______ _____ _____    ______ ____
ROOT
ATOM      7  N   UNL     1      -4.870 -12.441   4.074  0.00  0.00    -0.306 N 
ATOM      8  N   UNL     1      -4.694 -11.679   6.287  0.00  0.00    -0.214 NA
ATOM      9  N   UNL     1      -6.186 -10.610   4.726  0.00  0.00    -0.223 NA
ATOM     16  C   UNL     1      -5.261 -11.551   5.058  0.00  0.00    +0.216 A 
ATOM     19  C   UNL     1      -5.099 -10.796   7.222  0.00  0.00    +0.076 A 
ATOM     22  C   UNL     1      -6.545  -9.759   5.709  0.00  0.00    +0.116 A 
ATOM     23  C   UNL     1      -6.030  -9.804   6.988  0.00  0.00    +0.048 A 
ATOM     40  H   UNL     1      -5.260 -12.302   3.149  0.00  0.00    +0.149 HD
ENDROOT
BRANCH   7  13
ATOM      2  O   UNL     1      -1.541 -13.934   3.956  0.00  0.00    -0.370 OA
ATOM      3  O   UNL     1      -4.062 -14.898   2.381  0.00  0.00    -0.370 OA
ATOM     10  C   UNL     1      -3.034 -13.934   2.103  0.00  0.00    +0.170 C 
ATOM     11  C   UNL     1      -2.685 -13.255   3.413  0.00  0.00    +0.171 C 
ATOM     12  C   UNL     1      -1.759 -14.632   1.699  0.00  0.00    +0.133 C 
ATOM     13  C   UNL     1      -3.896 -13.489   4.286  0.00  0.00    +0.130 C 
ATOM     14  C   UNL     1      -1.110 -14.945   3.033  0.00  0.00    +0.183 C 
ATOM     15  C   UNL     1      -4.428 -14.812   3.767  0.00  0.00    +0.185 C 
BRANCH  12   6
ATOM      6  N   UNL     1      -0.898 -13.696   0.935  0.00  0.00    -0.186 NA
ATOM     39  H   UNL     1      -1.332 -12.830   0.593  0.00  0.00    +0.148 HD
BRANCH   6   1
ATOM      1  S   UNL     1       0.477 -14.306   0.138  0.00  0.00    +0.034 S 
ATOM      4  O   UNL     1       0.662 -13.624  -1.127  0.00  0.00    -0.158 OA
ATOM      5  O   UNL     1       0.432 -15.756   0.199  0.00  0.00    -0.158 OA
BRANCH   1  17
ATOM     17  C   UNL     1       1.762 -13.770   1.243  0.00  0.00    +0.220 C 
BRANCH  17  18
ATOM     18  C   UNL     1       3.053 -14.357   0.761  0.00  0.00    -0.025 A 
ATOM     20  C   UNL     1       3.579 -15.481   1.390  0.00  0.00    +0.005 A 
ATOM     21  C   UNL     1       3.720 -13.773  -0.313  0.00  0.00    +0.005 A 
ATOM     25  C   UNL     1       4.781 -16.028   0.940  0.00  0.00    +0.000 A 
ATOM     26  C   UNL     1       4.922 -14.320  -0.762  0.00  0.00    +0.000 A 
ATOM     27  C   UNL     1       5.452 -15.447  -0.136  0.00  0.00    +0.000 A 
ENDBRANCH  17  18
ENDBRANCH   1  17
ENDBRANCH   6   1
ENDBRANCH  12   6
ENDBRANCH   7  13
BRANCH  19  24
ATOM     24  C   UNL     1      -4.484 -10.950   8.519  0.00  0.00    +0.001 A 
ATOM     28  C   UNL     1      -4.072  -9.825   9.237  0.00  0.00    +0.010 A 
ATOM     29  C   UNL     1      -4.300 -12.225   9.060  0.00  0.00    +0.010 A 
ATOM     30  C   UNL     1      -3.478  -9.974  10.491  0.00  0.00    +0.009 A 
ATOM     31  C   UNL     1      -3.706 -12.373  10.314  0.00  0.00    +0.009 A 
ATOM     32  C   UNL     1      -3.294 -11.248  11.029  0.00  0.00    -0.018 A 
BRANCH  32  33
ATOM     33  C   UNL     1      -2.678 -11.402  12.329  0.00  0.00    -0.018 A 
ATOM     34  C   UNL     1      -2.304 -12.670  12.778  0.00  0.00    +0.008 A 
ATOM     35  C   UNL     1      -2.457 -10.285  13.133  0.00  0.00    +0.008 A 
ATOM     36  C   UNL     1      -1.709 -12.818  14.030  0.00  0.00    +0.001 A 
ATOM     37  C   UNL     1      -1.863 -10.433  14.386  0.00  0.00    +0.001 A 
ATOM     38  C   UNL     1      -1.489 -11.700  14.835  0.00  0.00    +0.000 A 
ENDBRANCH  32  33
ENDBRANCH  19  24
TORSDOF 7
ENDMDL
MODEL 2
REMARK VINA RESULT:      -7.9     10.469     14.114
REMARK  Name = 11913221
REMARK  7 active torsions:
REMARK  status: ('A' for Active; 'I' for Inactive)
REMARK    1  A    between atoms: S_1  and  N_6
REMARK    2  A    between atoms: S_1  and  C_17
REMARK    3  A    between atoms: N_6  and  C_12
REMARK    4  A    between atoms: N_7  and  C_13
REMARK    5  A    between atoms: C_17  and  C_18
REMARK    6  A    between atoms: C_19  and  C_24
REMARK    7  A    between atoms: C_32  and  C_33
REMARK                            x       y       z     vdW  Elec       q    Type
REMARK                         _______ _______ _______ _____ _____    ______ ____
ROOT
ATOM      7  N   UNL     1      -8.178  -8.817  15.971  0.00  0.00    -0.306 N 
ATOM      8  N   UNL     1     -10.176  -9.078  17.175  0.00  0.00    -0.214 NA
ATOM      9  N   UNL     1     -10.038  -7.537  15.328  0.00  0.00    -0.223 NA
ATOM     16  C   UNL     1      -9.503  -8.467  16.164  0.00  0.00    +0.216 A 
ATOM     19  C   UNL     1     -11.464  -8.714  17.334  0.00  0.00    +0.076 A 
ATOM     22  C   UNL     1     -11.331  -7.220  15.545  0.00  0.00    +0.116 A 
ATOM     23  C   UNL     1     -12.102  -7.780  16.542  0.00  0.00    +0.048 A 
ATOM     40  H   UNL     1      -7.673  -8.316  15.249  0.00  0.00    +0.149 HD
ENDROOT
BRANCH   7  13
ATOM      2  O   UNL     1      -5.295 -10.189  17.740  0.00  0.00    -0.370 OA
ATOM      3  O   UNL     1      -6.729 -11.455  15.269  0.00  0.00    -0.370 OA
ATOM     10  C   UNL     1      -5.663 -10.502  15.410  0.00  0.00    +0.170 C 
ATOM     11  C   UNL     1      -5.989  -9.635  16.610  0.00  0.00    +0.171 C 
ATOM     12  C   UNL     1      -4.384 -11.203  15.798  0.00  0.00    +0.133 C 
ATOM     13  C   UNL     1      -7.482  -9.789  16.785  0.00  0.00    +0.130 C 
ATOM     14  C   UNL     1      -4.500 -11.302  17.306  0.00  0.00    +0.183 C 
ATOM     15  C   UNL     1      -7.734 -11.190  16.259  0.00  0.00    +0.185 C 
BRANCH  12   6
ATOM      6  N   UNL     1      -3.222 -10.352  15.444  0.00  0.00    -0.186 NA
ATOM     39  H   UNL     1      -3.306  -9.343  15.617  0.00  0.00    +0.148 HD
BRANCH   6   1
ATOM      1  S   UNL     1      -2.129 -10.902  14.260  0.00  0.00    +0.034 S 
ATOM      4  O   UNL     1      -1.289 -11.948  14.808  0.00  0.00    -0.158 OA
ATOM      5  O   UNL     1      -1.543  -9.745  13.610  0.00  0.00    -0.158 OA
BRANCH   1  17
ATOM     17  C   UNL     1      -3.250 -11.650  13.100  0.00  0.00    +0.220 C 
BRANCH  17  18
ATOM     18  C   UNL     1      -3.618 -10.610  12.086  0.00  0.00    -0.025 A 
ATOM     20  C   UNL     1      -2.717 -10.276  11.080  0.00  0.00    +0.005 A 
ATOM     21  C   UNL     1      -4.858  -9.984  12.159  0.00  0.00    +0.005 A 
ATOM     25  C   UNL     1      -3.060  -9.308  10.136  0.00  0.00    +0.000 A 
ATOM     26  C   UNL     1      -5.202  -9.015  11.215  0.00  0.00    +0.000 A 
ATOM     27  C   UNL     1      -4.303  -8.677  10.204  0.00  0.00    +0.000 A 
ENDBRANCH  17  18
ENDBRANCH   1  17
ENDBRANCH   6   1
ENDBRANCH  12   6
ENDBRANCH   7  13
BRANCH  19  24
ATOM     24  C   UNL     1     -12.160  -9.375  18.414  0.00  0.00    +0.001 A 
ATOM     28  C   UNL     1     -11.447  -9.856  19.515  0.00  0.00    +0.010 A 
ATOM     29  C   UNL     1     -13.546  -9.533  18.362  0.00  0.00    +0.010 A 
ATOM     30  C   UNL     1     -12.119 -10.494  20.558  0.00  0.00    +0.009 A 
ATOM     31  C   UNL     1     -14.217 -10.171  19.405  0.00  0.00    +0.009 A 
ATOM     32  C   UNL     1     -13.504 -10.651  20.503  0.00  0.00    -0.018 A 
BRANCH  32  33
ATOM     33  C   UNL     1     -14.200 -11.313  21.586  0.00  0.00    -0.018 A 
ATOM     34  C   UNL     1     -13.590 -12.369  22.264  0.00  0.00    +0.008 A 
ATOM     35  C   UNL     1     -15.479 -10.894  21.953  0.00  0.00    +0.008 A 
ATOM     36  C   UNL     1     -14.260 -13.006  23.308  0.00  0.00    +0.001 A 
ATOM     37  C   UNL     1     -16.148 -11.531  22.996  0.00  0.00    +0.001 A 
ATOM     38  C   UNL     1     -15.540 -12.587  23.674  0.00  0.00    +0.000 A 
ENDBRANCH  32  33
ENDBRANCH  19  24
TORSDOF 7
ENDMDL
MODEL 3
REMARK VINA RESULT:      -7.9      4.955     12.218
REMARK  Name = 11913221
REMARK  7 active torsions:
REMARK  status: ('A' for Active; 'I' for Inactive)
REMARK    1  A    between atoms: S_1  and  N_6
REMARK    2  A    between atoms: S_1  and  C_17
REMARK    3  A    between atoms: N_6  and  C_12
REMARK    4  A    between atoms: N_7  and  C_13
REMARK    5  A    between atoms: C_17  and  C_18
REMARK    6  A    between atoms: C_19  and  C_24
REMARK    7  A    between atoms: C_32  and  C_33
REMARK                            x       y       z     vdW  Elec       q    Type
REMARK                         _______ _______ _______ _____ _____    ______ ____
ROOT
ATOM      7  N   UNL     1      -5.348 -10.095   8.217  0.00  0.00    -0.306 N 
ATOM      8  N   UNL     1      -4.428 -11.330   6.446  0.00  0.00    -0.214 NA
ATOM      9  N   UNL     1      -6.656 -10.426   6.297  0.00  0.00    -0.223 NA
ATOM     16  C   UNL     1      -5.481 -10.633   6.949  0.00  0.00    +0.216 A 
ATOM     19  C   UNL     1      -4.591 -11.839   5.208  0.00  0.00    +0.076 A 
ATOM     22  C   UNL     1      -6.752 -10.964   5.064  0.00  0.00    +0.116 A 
ATOM     23  C   UNL     1      -5.743 -11.687   4.462  0.00  0.00    +0.048 A 
ATOM     40  H   UNL     1      -6.158  -9.624   8.602  0.00  0.00    +0.149 HD
ENDROOT
BRANCH   7  13
ATOM      2  O   UNL     1      -3.204 -11.713  10.691  0.00  0.00    -0.370 OA
ATOM      3  O   UNL     1      -4.534  -8.896  10.948  0.00  0.00    -0.370 OA
ATOM     10  C   UNL     1      -4.970 -10.227  11.270  0.00  0.00    +0.170 C 
ATOM     11  C   UNL     1      -4.432 -11.151  10.196  0.00  0.00    +0.171 C 
ATOM     12  C   UNL     1      -4.301 -10.703  12.536  0.00  0.00    +0.133 C 
ATOM     13  C   UNL     1      -4.156 -10.238   9.025  0.00  0.00    +0.130 C 
ATOM     14  C   UNL     1      -2.982 -11.253  12.031  0.00  0.00    +0.183 C 
ATOM     15  C   UNL     1      -3.821  -8.922   9.702  0.00  0.00    +0.185 C 
BRANCH  12   6
ATOM      6  N   UNL     1      -5.098 -11.798  13.141  0.00  0.00    -0.186 NA
ATOM     39  H   UNL     1      -6.037 -11.963  12.759  0.00  0.00    +0.148 HD
BRANCH   6   1
ATOM      1  S   UNL     1      -4.753 -12.284  14.735  0.00  0.00    +0.034 S 
ATOM      4  O   UNL     1      -3.471 -12.959  14.782  0.00  0.00    -0.158 OA
ATOM      5  O   UNL     1      -5.940 -12.910  15.286  0.00  0.00    -0.158 OA
BRANCH   1  17
ATOM     17  C   UNL     1      -4.570 -10.704  15.529  0.00  0.00    +0.220 C 
BRANCH  17  18
ATOM     18  C   UNL     1      -4.960 -10.868  16.966  0.00  0.00    -0.025 A 
ATOM     20  C   UNL     1      -6.140 -10.298  17.432  0.00  0.00    +0.005 A 
ATOM     21  C   UNL     1      -4.136 -11.589  17.827  0.00  0.00    +0.005 A 
ATOM     25  C   UNL     1      -6.502 -10.451  18.771  0.00  0.00    +0.000 A 
ATOM     26  C   UNL     1      -4.498 -11.742  19.166  0.00  0.00    +0.000 A 
ATOM     27  C   UNL     1      -5.680 -11.173  19.638  0.00  0.00    +0.000 A 
ENDBRANCH  17  18
ENDBRANCH   1  17
ENDBRANCH   6   1
ENDBRANCH  12   6
ENDBRANCH   7  13
BRANCH  19  24
ATOM     24  C   UNL     1      -3.461 -12.576   4.693  0.00  0.00    +0.001 A 
ATOM     28  C   UNL     1      -3.148 -12.518   3.333  0.00  0.00    +0.010 A 
ATOM     29  C   UNL     1      -2.676 -13.347   5.554  0.00  0.00    +0.010 A 
ATOM     30  C   UNL     1      -2.056 -13.229   2.836  0.00  0.00    +0.009 A 
ATOM     31  C   UNL     1      -1.584 -14.058   5.055  0.00  0.00    +0.009 A 
ATOM     32  C   UNL     1      -1.274 -13.999   3.698  0.00  0.00    -0.018 A 
BRANCH  32  33
ATOM     33  C   UNL     1      -0.141 -14.737   3.181  0.00  0.00    -0.018 A 
ATOM     34  C   UNL     1       0.442 -14.361   1.970  0.00  0.00    +0.008 A 
ATOM     35  C   UNL     1       0.369 -15.822   3.893  0.00  0.00    +0.008 A 
ATOM     36  C   UNL     1       1.535 -15.070   1.473  0.00  0.00    +0.001 A 
ATOM     37  C   UNL     1       1.461 -16.532   3.395  0.00  0.00    +0.001 A 
ATOM     38  C   UNL     1       2.044 -16.157   2.185  0.00  0.00    +0.000 A 
ENDBRANCH  32  33
ENDBRANCH  19  24
TORSDOF 7
ENDMDL
MODEL 4
REMARK VINA RESULT:      -7.9     22.742     24.702
REMARK  Name = 11913221
REMARK  7 active torsions:
REMARK  status: ('A' for Active; 'I' for Inactive)
REMARK    1  A    between atoms: S_1  and  N_6
REMARK    2  A    between atoms: S_1  and  C_17
REMARK    3  A    between atoms: N_6  and  C_12
REMARK    4  A    between atoms: N_7  and  C_13
REMARK    5  A    between atoms: C_17  and  C_18
REMARK    6  A    between atoms: C_19  and  C_24
REMARK    7  A    between atoms: C_32  and  C_33
REMARK                            x       y       z     vdW  Elec       q    Type
REMARK                         _______ _______ _______ _____ _____    ______ ____
ROOT
ATOM      7  N   UNL     1       5.936  11.035   0.373  0.00  0.00    -0.306 N 
ATOM      8  N   UNL     1       7.249   9.546   1.625  0.00  0.00    -0.214 NA
ATOM      9  N   UNL     1       7.783  10.034  -0.673  0.00  0.00    -0.223 NA
ATOM     16  C   UNL     1       7.022  10.180   0.444  0.00  0.00    +0.216 A 
ATOM     19  C   UNL     1       8.315   8.720   1.659  0.00  0.00    +0.076 A 
ATOM     22  C   UNL     1       8.833   9.193  -0.569  0.00  0.00    +0.116 A 
ATOM     23  C   UNL     1       9.151   8.502   0.582  0.00  0.00    +0.048 A 
ATOM     40  H   UNL     1       5.746  11.461  -0.527  0.00  0.00    +0.149 HD
ENDROOT
BRANCH   7  13
ATOM      2  O   UNL     1       3.087  10.331   2.544  0.00  0.00    -0.370 OA
ATOM      3  O   UNL     1       3.408  12.794   0.646  0.00  0.00    -0.370 OA
ATOM     10  C   UNL     1       2.889  11.466   0.462  0.00  0.00    +0.170 C 
ATOM     11  C   UNL     1       3.749  10.526   1.284  0.00  0.00    +0.171 C 
ATOM     12  C   UNL     1       1.519  11.351   1.085  0.00  0.00    +0.133 C 
ATOM     13  C   UNL     1       5.041  11.284   1.482  0.00  0.00    +0.130 C 
ATOM     14  C   UNL     1       1.834  11.031   2.533  0.00  0.00    +0.183 C 
ATOM     15  C   UNL     1       4.582  12.730   1.471  0.00  0.00    +0.185 C 
BRANCH  12   6
ATOM      6  N   UNL     1       0.786  10.216   0.473  0.00  0.00    -0.186 NA
ATOM     39  H   UNL     1       1.239   9.731  -0.311  0.00  0.00    +0.148 HD
BRANCH   6   1
ATOM      1  S   UNL     1      -0.909  10.155   0.619  0.00  0.00    +0.034 S 
ATOM      4  O   UNL     1      -1.486  11.428   0.237  0.00  0.00    -0.158 OA
ATOM      5  O   UNL     1      -1.233   9.547   1.896  0.00  0.00    -0.158 OA
BRANCH   1  17
ATOM     17  C   UNL     1      -1.306   8.971  -0.646  0.00  0.00    +0.220 C 
BRANCH  17  18
ATOM     18  C   UNL     1      -2.362   9.575  -1.521  0.00  0.00    -0.025 A 
ATOM     20  C   UNL     1      -1.996  10.256  -2.677  0.00  0.00    +0.005 A 
ATOM     21  C   UNL     1      -3.703   9.452  -1.169  0.00  0.00    +0.005 A 
ATOM     25  C   UNL     1      -2.979  10.819  -3.491  0.00  0.00    +0.000 A 
ATOM     26  C   UNL     1      -4.687  10.015  -1.983  0.00  0.00    +0.000 A 
ATOM     27  C   UNL     1      -4.325  10.698  -3.143  0.00  0.00    +0.000 A 
ENDBRANCH  17  18
ENDBRANCH   1  17
ENDBRANCH   6   1
ENDBRANCH  12   6
ENDBRANCH   7  13
BRANCH  19  24
ATOM     24  C   UNL     1       8.537   8.057   2.922  0.00  0.00    +0.001 A 
ATOM     28  C   UNL     1       7.862   8.486   4.066  0.00  0.00    +0.010 A 
ATOM     29  C   UNL     1       9.427   6.984   3.003  0.00  0.00    +0.010 A 
ATOM     30  C   UNL     1       8.076   7.845   5.287  0.00  0.00    +0.009 A 
ATOM     31  C   UNL     1       9.641   6.343   4.223  0.00  0.00    +0.009 A 
ATOM     32  C   UNL     1       8.967   6.774   5.365  0.00  0.00    -0.018 A 
BRANCH  32  33
ATOM     33  C   UNL     1       9.188   6.109   6.631  0.00  0.00    -0.018 A 
ATOM     34  C   UNL     1       9.680   4.803   6.656  0.00  0.00    +0.008 A 
ATOM     35  C   UNL     1       8.913   6.773   7.826  0.00  0.00    +0.008 A 
ATOM     36  C   UNL     1       9.895   4.163   7.876  0.00  0.00    +0.001 A 
ATOM     37  C   UNL     1       9.127   6.133   9.046  0.00  0.00    +0.001 A 
ATOM     38  C   UNL     1       9.618   4.827   9.071  0.00  0.00    +0.000 A 
ENDBRANCH  32  33
ENDBRANCH  19  24
TORSDOF 7
ENDMDL
MODEL 5
REMARK VINA RESULT:      -7.9      8.803     14.911
REMARK  Name = 11913221
REMARK  7 active torsions:
REMARK  status: ('A' for Active; 'I' for Inactive)
REMARK    1  A    between atoms: S_1  and  N_6
REMARK    2  A    between atoms: S_1  and  C_17
REMARK    3  A    between atoms: N_6  and  C_12
REMARK    4  A    between atoms: N_7  and  C_13
REMARK    5  A    between atoms: C_17  and  C_18
REMARK    6  A    between atoms: C_19  and  C_24
REMARK    7  A    between atoms: C_32  and  C_33
REMARK                            x       y       z     vdW  Elec       q    Type
REMARK                         _______ _______ _______ _____ _____    ______ ____
ROOT
ATOM      7  N   UNL     1      -3.647 -11.845  16.771  0.00  0.00    -0.306 N 
ATOM      8  N   UNL     1      -3.408 -11.207  14.525  0.00  0.00    -0.214 NA
ATOM      9  N   UNL     1      -1.735 -10.629  16.161  0.00  0.00    -0.223 NA
ATOM     16  C   UNL     1      -2.908 -11.208  15.790  0.00  0.00    +0.216 A 
ATOM     19  C   UNL     1      -2.662 -10.578  13.595  0.00  0.00    +0.076 A 
ATOM     22  C   UNL     1      -1.040 -10.018  15.180  0.00  0.00    +0.116 A 
ATOM     23  C   UNL     1      -1.458  -9.959  13.866  0.00  0.00    +0.048 A 
ATOM     40  H   UNL     1      -3.291 -11.794  17.718  0.00  0.00    +0.149 HD
ENDROOT
BRANCH   7  13
ATOM      2  O   UNL     1      -7.118 -12.016  15.651  0.00  0.00    -0.370 OA
ATOM      3  O   UNL     1      -6.093 -12.401  18.579  0.00  0.00    -0.370 OA
ATOM     10  C   UNL     1      -6.483 -11.249  17.813  0.00  0.00    +0.170 C 
ATOM     11  C   UNL     1      -6.011 -11.472  16.389  0.00  0.00    +0.171 C 
ATOM     12  C   UNL     1      -7.986 -11.184  17.697  0.00  0.00    +0.133 C 
ATOM     13  C   UNL     1      -4.912 -12.501  16.520  0.00  0.00    +0.130 C 
ATOM     14  C   UNL     1      -8.269 -12.078  16.505  0.00  0.00    +0.183 C 
ATOM     15  C   UNL     1      -5.344 -13.293  17.740  0.00  0.00    +0.185 C 
BRANCH  12   6
ATOM      6  N   UNL     1      -8.404  -9.795  17.387  0.00  0.00    -0.186 NA
ATOM     39  H   UNL     1      -7.896  -9.035  17.856  0.00  0.00    +0.148 HD
BRANCH   6   1
ATOM      1  S   UNL     1      -9.988  -9.516  16.831  0.00  0.00    +0.034 S 
ATOM      4  O   UNL     1     -10.924 -10.351  17.557  0.00  0.00    -0.158 OA
ATOM      5  O   UNL     1      -9.967  -9.515  15.380  0.00  0.00    -0.158 OA
BRANCH   1  17
ATOM     17  C   UNL     1     -10.231  -7.835  17.358  0.00  0.00    +0.220 C 
BRANCH  17  18
ATOM     18  C   UNL     1     -11.240  -7.211  16.444  0.00  0.00    -0.025 A 
ATOM     20  C   UNL     1     -10.853  -6.190  15.582  0.00  0.00    +0.005 A 
ATOM     21  C   UNL     1     -12.558  -7.657  16.464  0.00  0.00    +0.005 A 
ATOM     25  C   UNL     1     -11.793  -5.609  14.731  0.00  0.00    +0.000 A 
ATOM     26  C   UNL     1     -13.498  -7.076  15.612  0.00  0.00    +0.000 A 
ATOM     27  C   UNL     1     -13.116  -6.052  14.746  0.00  0.00    +0.000 A 
ENDBRANCH  17  18
ENDBRANCH   1  17
ENDBRANCH   6   1
ENDBRANCH  12   6
ENDBRANCH   7  13
BRANCH  19  24
ATOM     24  C   UNL     1      -3.211 -10.587  12.259  0.00  0.00    +0.001 A 
ATOM     28  C   UNL     1      -2.747  -9.679  11.305  0.00  0.00    +0.010 A 
ATOM     29  C   UNL     1      -4.207 -11.505  11.918  0.00  0.00    +0.010 A 
ATOM     30  C   UNL     1      -3.277  -9.689  10.014  0.00  0.00    +0.009 A 
ATOM     31  C   UNL     1      -4.737 -11.514  10.627  0.00  0.00    +0.009 A 
ATOM     32  C   UNL     1      -4.272 -10.606   9.676  0.00  0.00    -0.018 A 
BRANCH  32  33
ATOM     33  C   UNL     1      -4.822 -10.615   8.337  0.00  0.00    -0.018 A 
ATOM     34  C   UNL     1      -4.425 -11.596   7.428  0.00  0.00    +0.008 A 
ATOM     35  C   UNL     1      -5.749  -9.645   7.956  0.00  0.00    +0.008 A 
ATOM     36  C   UNL     1      -4.955 -11.607   6.138  0.00  0.00    +0.001 A 
ATOM     37  C   UNL     1      -6.278  -9.655   6.666  0.00  0.00    +0.001 A 
ATOM     38  C   UNL     1      -5.881 -10.635   5.757  0.00  0.00    +0.000 A 
ENDBRANCH  32  33
ENDBRANCH  19  24
TORSDOF 7
ENDMDL
MODEL 6
REMARK VINA RESULT:      -7.8     20.194     22.372
REMARK  Name = 11913221
REMARK  7 active torsions:
REMARK  status: ('A' for Active; 'I' for Inactive)
REMARK    1  A    between atoms: S_1  and  N_6
REMARK    2  A    between atoms: S_1  and  C_17
REMARK    3  A    between atoms: N_6  and  C_12
REMARK    4  A    between atoms: N_7  and  C_13
REMARK    5  A    between atoms: C_17  and  C_18
REMARK    6  A    between atoms: C_19  and  C_24
REMARK    7  A    between atoms: C_32  and  C_33
REMARK                            x       y       z     vdW  Elec       q    Type
REMARK                         _______ _______ _______ _____ _____    ______ ____
ROOT
ATOM      7  N   UNL     1       8.772   5.838  -3.963  0.00  0.00    -0.306 N 
ATOM      8  N   UNL     1       9.537   5.457  -1.777  0.00  0.00    -0.214 NA
ATOM      9  N   UNL     1      10.400   4.181  -3.630  0.00  0.00    -0.223 NA
ATOM     16  C   UNL     1       9.594   5.138  -3.098  0.00  0.00    +0.216 A 
ATOM     19  C   UNL     1      10.352   4.756  -0.963  0.00  0.00    +0.076 A 
ATOM     22  C   UNL     1      11.188   3.519  -2.758  0.00  0.00    +0.116 A 
ATOM     23  C   UNL     1      11.207   3.765  -1.401  0.00  0.00    +0.048 A 
ATOM     40  H   UNL     1       8.785   5.555  -4.936  0.00  0.00    +0.149 HD
ENDROOT
BRANCH   7  13
ATOM      2  O   UNL     1       5.788   7.155  -2.324  0.00  0.00    -0.370 OA
ATOM      3  O   UNL     1       6.418   7.252  -5.384  0.00  0.00    -0.370 OA
ATOM     10  C   UNL     1       5.779   6.282  -4.537  0.00  0.00    +0.170 C 
ATOM     11  C   UNL     1       6.513   6.287  -3.211  0.00  0.00    +0.171 C 
ATOM     12  C   UNL     1       4.382   6.733  -4.188  0.00  0.00    +0.133 C 
ATOM     13  C   UNL     1       7.864   6.880  -3.536  0.00  0.00    +0.130 C 
ATOM     14  C   UNL     1       4.611   7.634  -2.990  0.00  0.00    +0.183 C 
ATOM     15  C   UNL     1       7.548   7.808  -4.694  0.00  0.00    +0.185 C 
BRANCH  12   6
ATOM      6  N   UNL     1       3.567   5.563  -3.782  0.00  0.00    -0.186 NA
ATOM     39  H   UNL     1       4.016   4.861  -3.182  0.00  0.00    +0.148 HD
BRANCH   6   1
ATOM      1  S   UNL     1       2.247   5.102  -4.754  0.00  0.00    +0.034 S 
ATOM      4  O   UNL     1       1.853   6.203  -5.611  0.00  0.00    -0.158 OA
ATOM      5  O   UNL     1       1.274   4.434  -3.911  0.00  0.00    -0.158 OA
BRANCH   1  17
ATOM     17  C   UNL     1       3.007   3.859  -5.773  0.00  0.00    +0.220 C 
BRANCH  17  18
ATOM     18  C   UNL     1       2.072   2.691  -5.842  0.00  0.00    -0.025 A 
ATOM     20  C   UNL     1       2.291   1.582  -5.032  0.00  0.00    +0.005 A 
ATOM     21  C   UNL     1       0.990   2.723  -6.717  0.00  0.00    +0.005 A 
ATOM     25  C   UNL     1       1.420   0.494  -5.096  0.00  0.00    +0.000 A 
ATOM     26  C   UNL     1       0.119   1.635  -6.781  0.00  0.00    +0.000 A 
ATOM     27  C   UNL     1       0.334   0.521  -5.971  0.00  0.00    +0.000 A 
ENDBRANCH  17  18
ENDBRANCH   1  17
ENDBRANCH   6   1
ENDBRANCH  12   6
ENDBRANCH   7  13
BRANCH  19  24
ATOM     24  C   UNL     1      10.275   5.111   0.435  0.00  0.00    +0.001 A 
ATOM     28  C   UNL     1      10.616   4.175   1.414  0.00  0.00    +0.010 A 
ATOM     29  C   UNL     1       9.860   6.390   0.812  0.00  0.00    +0.010 A 
ATOM     30  C   UNL     1      10.542   4.518   2.765  0.00  0.00    +0.009 A 
ATOM     31  C   UNL     1       9.787   6.732   2.162  0.00  0.00    +0.009 A 
ATOM     32  C   UNL     1      10.127   5.796   3.138  0.00  0.00    -0.018 A 
BRANCH  32  33
ATOM     33  C   UNL     1      10.051   6.151   4.539  0.00  0.00    -0.018 A 
ATOM     34  C   UNL     1      11.218   6.245   5.299  0.00  0.00    +0.008 A 
ATOM     35  C   UNL     1       8.812   6.400   5.130  0.00  0.00    +0.008 A 
ATOM     36  C   UNL     1      11.145   6.588   6.649  0.00  0.00    +0.001 A 
ATOM     37  C   UNL     1       8.740   6.743   6.479  0.00  0.00    +0.001 A 
ATOM     38  C   UNL     1       9.905   6.836   7.239  0.00  0.00    +0.000 A 
ENDBRANCH  32  33
ENDBRANCH  19  24
TORSDOF 7
ENDMDL
MODEL 7
REMARK VINA RESULT:      -7.8     25.852     28.062
REMARK  Name = 11913221
REMARK  7 active torsions:
REMARK  status: ('A' for Active; 'I' for Inactive)
REMARK    1  A    between atoms: S_1  and  N_6
REMARK    2  A    between atoms: S_1  and  C_17
REMARK    3  A    between atoms: N_6  and  C_12
REMARK    4  A    between atoms: N_7  and  C_13
REMARK    5  A    between atoms: C_17  and  C_18
REMARK    6  A    between atoms: C_19  and  C_24
REMARK    7  A    between atoms: C_32  and  C_33
REMARK                            x       y       z     vdW  Elec       q    Type
REMARK                         _______ _______ _______ _____ _____    ______ ____
ROOT
ATOM      7  N   UNL     1      13.101  13.113  11.763  0.00  0.00    -0.306 N 
ATOM      8  N   UNL     1      13.523  11.834  13.686  0.00  0.00    -0.214 NA
ATOM      9  N   UNL     1      15.332  12.623  12.305  0.00  0.00    -0.223 NA
ATOM     16  C   UNL     1      14.012  12.505  12.610  0.00  0.00    +0.216 A 
ATOM     19  C   UNL     1      14.438  11.255  14.489  0.00  0.00    +0.076 A 
ATOM     22  C   UNL     1      16.192  12.020  13.150  0.00  0.00    +0.116 A 
ATOM     23  C   UNL     1      15.800  11.314  14.269  0.00  0.00    +0.048 A 
ATOM     40  H   UNL     1      13.475  13.564  10.937  0.00  0.00    +0.149 HD
ENDROOT
BRANCH   7  13
ATOM      2  O   UNL     1       9.825  11.506  11.853  0.00  0.00    -0.370 OA
ATOM      3  O   UNL     1      10.721  13.781   9.907  0.00  0.00    -0.370 OA
ATOM     10  C   UNL     1      10.808  12.348   9.856  0.00  0.00    +0.170 C 
ATOM     11  C   UNL     1      11.087  11.862  11.265  0.00  0.00    +0.171 C 
ATOM     12  C   UNL     1       9.461  11.755   9.521  0.00  0.00    +0.133 C 
ATOM     13  C   UNL     1      11.670  13.067  11.965  0.00  0.00    +0.130 C 
ATOM     14  C   UNL     1       8.786  11.670  10.876  0.00  0.00    +0.183 C 
ATOM     15  C   UNL     1      11.001  14.224  11.244  0.00  0.00    +0.185 C 
BRANCH  12   6
ATOM      6  N   UNL     1       9.640  10.391   8.968  0.00  0.00    -0.186 NA
ATOM     39  H   UNL     1       9.884   9.643   9.628  0.00  0.00    +0.148 HD
BRANCH   6   1
ATOM      1  S   UNL     1      10.052  10.216   7.326  0.00  0.00    +0.034 S 
ATOM      4  O   UNL     1      11.274   9.446   7.200  0.00  0.00    -0.158 OA
ATOM      5  O   UNL     1       9.923  11.511   6.685  0.00  0.00    -0.158 OA
BRANCH   1  17
ATOM     17  C   UNL     1       8.706   9.205   6.754  0.00  0.00    +0.220 C 
BRANCH  17  18
ATOM     18  C   UNL     1       9.100   7.772   6.943  0.00  0.00    -0.025 A 
ATOM     20  C   UNL     1       9.553   7.031   5.857  0.00  0.00    +0.005 A 
ATOM     21  C   UNL     1       9.007   7.191   8.205  0.00  0.00    +0.005 A 
ATOM     25  C   UNL     1       9.919   5.696   6.034  0.00  0.00    +0.000 A 
ATOM     26  C   UNL     1       9.373   5.856   8.381  0.00  0.00    +0.000 A 
ATOM     27  C   UNL     1       9.829   5.109   7.296  0.00  0.00    +0.000 A 
ENDBRANCH  17  18
ENDBRANCH   1  17
ENDBRANCH   6   1
ENDBRANCH  12   6
ENDBRANCH   7  13
BRANCH  19  24
ATOM     24  C   UNL     1      13.896  10.547  15.625  0.00  0.00    +0.001 A 
ATOM     28  C   UNL     1      12.691   9.852  15.507  0.00  0.00    +0.010 A 
ATOM     29  C   UNL     1      14.577  10.554  16.845  0.00  0.00    +0.010 A 
ATOM     30  C   UNL     1      12.168   9.167  16.605  0.00  0.00    +0.009 A 
ATOM     31  C   UNL     1      14.053   9.869  17.942  0.00  0.00    +0.009 A 
ATOM     32  C   UNL     1      12.849   9.176  17.822  0.00  0.00    -0.018 A 
BRANCH  32  33
ATOM     33  C   UNL     1      12.306   8.466  18.960  0.00  0.00    -0.018 A 
ATOM     34  C   UNL     1      12.783   7.193  19.279  0.00  0.00    +0.008 A 
ATOM     35  C   UNL     1      11.308   9.052  19.738  0.00  0.00    +0.008 A 
ATOM     36  C   UNL     1      12.261   6.509  20.376  0.00  0.00    +0.001 A 
ATOM     37  C   UNL     1      10.786   8.367  20.834  0.00  0.00    +0.001 A 
ATOM     38  C   UNL     1      11.262   7.095  21.153  0.00  0.00    +0.000 A 
ENDBRANCH  32  33
ENDBRANCH  19  24
TORSDOF 7
ENDMDL
MODEL 8
REMARK VINA RESULT:      -7.6      5.705      8.958
REMARK  Name = 11913221
REMARK  7 active torsions:
REMARK  status: ('A' for Active; 'I' for Inactive)
REMARK    1  A    between atoms: S_1  and  N_6
REMARK    2  A    between atoms: S_1  and  C_17
REMARK    3  A    between atoms: N_6  and  C_12
REMARK    4  A    between atoms: N_7  and  C_13
REMARK    5  A    between atoms: C_17  and  C_18
REMARK    6  A    between atoms: C_19  and  C_24
REMARK    7  A    between atoms: C_32  and  C_33
REMARK                            x       y       z     vdW  Elec       q    Type
REMARK                         _______ _______ _______ _____ _____    ______ ____
ROOT
ATOM      7  N   UNL     1      -3.200 -10.361  12.322  0.00  0.00    -0.306 N 
ATOM      8  N   UNL     1      -4.330 -10.492  14.375  0.00  0.00    -0.214 NA
ATOM      9  N   UNL     1      -1.941 -10.788  14.257  0.00  0.00    -0.223 NA
ATOM     16  C   UNL     1      -3.156 -10.553  13.692  0.00  0.00    +0.216 A 
ATOM     19  C   UNL     1      -4.250 -10.683  15.708  0.00  0.00    +0.076 A 
ATOM     22  C   UNL     1      -1.935 -10.970  15.593  0.00  0.00    +0.116 A 
ATOM     23  C   UNL     1      -3.068 -10.929  16.379  0.00  0.00    +0.048 A 
ATOM     40  H   UNL     1      -2.327 -10.460  11.818  0.00  0.00    +0.149 HD
ENDROOT
BRANCH   7  13
ATOM      2  O   UNL     1      -6.122 -11.283  10.338  0.00  0.00    -0.370 OA
ATOM      3  O   UNL     1      -3.727  -9.509   9.398  0.00  0.00    -0.370 OA
ATOM     10  C   UNL     1      -3.967 -10.926   9.394  0.00  0.00    +0.170 C 
ATOM     11  C   UNL     1      -4.723 -11.259  10.665  0.00  0.00    +0.171 C 
ATOM     12  C   UNL     1      -4.927 -11.290   8.288  0.00  0.00    +0.133 C 
ATOM     13  C   UNL     1      -4.421 -10.103  11.590  0.00  0.00    +0.130 C 
ATOM     14  C   UNL     1      -6.281 -11.058   8.930  0.00  0.00    +0.183 C 
ATOM     15  C   UNL     1      -4.221  -8.950  10.625  0.00  0.00    +0.185 C 
BRANCH  12   6
ATOM      6  N   UNL     1      -4.777 -12.726   7.949  0.00  0.00    -0.186 NA
ATOM     39  H   UNL     1      -4.122 -13.278   8.517  0.00  0.00    +0.148 HD
BRANCH   6   1
ATOM      1  S   UNL     1      -5.144 -13.242   6.369  0.00  0.00    +0.034 S 
ATOM      4  O   UNL     1      -6.579 -13.357   6.205  0.00  0.00    -0.158 OA
ATOM      5  O   UNL     1      -4.269 -14.351   6.038  0.00  0.00    -0.158 OA
BRANCH   1  17
ATOM     17  C   UNL     1      -4.596 -11.837   5.428  0.00  0.00    +0.220 C 
BRANCH  17  18
ATOM     18  C   UNL     1      -4.243 -12.317   4.054  0.00  0.00    -0.025 A 
ATOM     20  C   UNL     1      -2.908 -12.455   3.691  0.00  0.00    +0.005 A 
ATOM     21  C   UNL     1      -5.255 -12.621   3.147  0.00  0.00    +0.005 A 
ATOM     25  C   UNL     1      -2.580 -12.903   2.411  0.00  0.00    +0.000 A 
ATOM     26  C   UNL     1      -4.927 -13.069   1.867  0.00  0.00    +0.000 A 
ATOM     27  C   UNL     1      -3.590 -13.210   1.499  0.00  0.00    +0.000 A 
ENDBRANCH  17  18
ENDBRANCH   1  17
ENDBRANCH   6   1
ENDBRANCH  12   6
ENDBRANCH   7  13
BRANCH  19  24
ATOM     24  C   UNL     1      -5.508 -10.616  16.414  0.00  0.00    +0.001 A 
ATOM     28  C   UNL     1      -6.276  -9.451  16.365  0.00  0.00    +0.010 A 
ATOM     29  C   UNL     1      -5.960 -11.716  17.146  0.00  0.00    +0.010 A 
ATOM     30  C   UNL     1      -7.492  -9.386  17.047  0.00  0.00    +0.009 A 
ATOM     31  C   UNL     1      -7.176 -11.650  17.827  0.00  0.00    +0.009 A 
ATOM     32  C   UNL     1      -7.941 -10.486  17.778  0.00  0.00    -0.018 A 
BRANCH  32  33
ATOM     33  C   UNL     1      -9.202 -10.418  18.484  0.00  0.00    -0.018 A 
ATOM     34  C   UNL     1     -10.228  -9.602  18.004  0.00  0.00    +0.008 A 
ATOM     35  C   UNL     1      -9.394 -11.168  19.645  0.00  0.00    +0.008 A 
ATOM     36  C   UNL     1     -11.444  -9.537  18.684  0.00  0.00    +0.001 A 
ATOM     37  C   UNL     1     -10.610 -11.102  20.325  0.00  0.00    +0.001 A 
ATOM     38  C   UNL     1     -11.634 -10.287  19.845  0.00  0.00    +0.000 A 
ENDBRANCH  32  33
ENDBRANCH  19  24
TORSDOF 7
ENDMDL
MODEL 9
REMARK VINA RESULT:      -7.6      9.039     15.750
REMARK  Name = 11913221
REMARK  7 active torsions:
REMARK  status: ('A' for Active; 'I' for Inactive)
REMARK    1  A    between atoms: S_1  and  N_6
REMARK    2  A    between atoms: S_1  and  C_17
REMARK    3  A    between atoms: N_6  and  C_12
REMARK    4  A    between atoms: N_7  and  C_13
REMARK    5  A    between atoms: C_17  and  C_18
REMARK    6  A    between atoms: C_19  and  C_24
REMARK    7  A    between atoms: C_32  and  C_33
REMARK                            x       y       z     vdW  Elec       q    Type
REMARK                         _______ _______ _______ _____ _____    ______ ____
ROOT
ATOM      7  N   UNL     1      -3.681 -11.905  16.629  0.00  0.00    -0.306 N 
ATOM      8  N   UNL     1      -3.390 -11.346  14.368  0.00  0.00    -0.214 NA
ATOM      9  N   UNL     1      -1.848 -10.560  16.044  0.00  0.00    -0.223 NA
ATOM     16  C   UNL     1      -2.952 -11.251  15.651  0.00  0.00    +0.216 A 
ATOM     19  C   UNL     1      -2.656 -10.697  13.441  0.00  0.00    +0.076 A 
ATOM     22  C   UNL     1      -1.162  -9.935  15.066  0.00  0.00    +0.116 A 
ATOM     23  C   UNL     1      -1.521  -9.968  13.734  0.00  0.00    +0.048 A 
ATOM     40  H   UNL     1      -3.375 -11.783  17.587  0.00  0.00    +0.149 HD
ENDROOT
BRANCH   7  13
ATOM      2  O   UNL     1      -7.131 -12.377  15.534  0.00  0.00    -0.370 OA
ATOM      3  O   UNL     1      -6.029 -12.804  18.427  0.00  0.00    -0.370 OA
ATOM     10  C   UNL     1      -6.548 -11.661  17.726  0.00  0.00    +0.170 C 
ATOM     11  C   UNL     1      -6.076 -11.760  16.289  0.00  0.00    +0.171 C 
ATOM     12  C   UNL     1      -8.051 -11.747  17.628  0.00  0.00    +0.133 C 
ATOM     13  C   UNL     1      -4.875 -12.674  16.355  0.00  0.00    +0.130 C 
ATOM     14  C   UNL     1      -8.258 -12.602  16.393  0.00  0.00    +0.183 C 
ATOM     15  C   UNL     1      -5.204 -13.569  17.536  0.00  0.00    +0.185 C 
BRANCH  12   6
ATOM      6  N   UNL     1      -8.614 -10.395  17.396  0.00  0.00    -0.186 NA
ATOM     39  H   UNL     1      -7.949  -9.622  17.274  0.00  0.00    +0.148 HD
BRANCH   6   1
ATOM      1  S   UNL     1     -10.191 -10.055  17.941  0.00  0.00    +0.034 S 
ATOM      4  O   UNL     1     -11.137 -10.957  17.316  0.00  0.00    -0.158 OA
ATOM      5  O   UNL     1     -10.390  -8.619  17.887  0.00  0.00    -0.158 OA
BRANCH   1  17
ATOM     17  C   UNL     1     -10.051 -10.507  19.655  0.00  0.00    +0.220 C 
BRANCH  17  18
ATOM     18  C   UNL     1     -11.425 -10.835  20.153  0.00  0.00    -0.025 A 
ATOM     20  C   UNL     1     -11.757 -12.153  20.447  0.00  0.00    +0.005 A 
ATOM     21  C   UNL     1     -12.362  -9.818  20.317  0.00  0.00    +0.005 A 
ATOM     25  C   UNL     1     -13.037 -12.458  20.912  0.00  0.00    +0.000 A 
ATOM     26  C   UNL     1     -13.642 -10.123  20.781  0.00  0.00    +0.000 A 
ATOM     27  C   UNL     1     -13.979 -11.443  21.078  0.00  0.00    +0.000 A 
ENDBRANCH  17  18
ENDBRANCH   1  17
ENDBRANCH   6   1
ENDBRANCH  12   6
ENDBRANCH   7  13
BRANCH  19  24
ATOM     24  C   UNL     1      -3.140 -10.811  12.085  0.00  0.00    +0.001 A 
ATOM     28  C   UNL     1      -3.175  -9.686  11.258  0.00  0.00    +0.010 A 
ATOM     29  C   UNL     1      -3.574 -12.046  11.597  0.00  0.00    +0.010 A 
ATOM     30  C   UNL     1      -3.642  -9.796   9.948  0.00  0.00    +0.009 A 
ATOM     31  C   UNL     1      -4.041 -12.154  10.287  0.00  0.00    +0.009 A 
ATOM     32  C   UNL     1      -4.075 -11.030   9.463  0.00  0.00    -0.018 A 
BRANCH  32  33
ATOM     33  C   UNL     1      -4.560 -11.143   8.104  0.00  0.00    -0.018 A 
ATOM     34  C   UNL     1      -5.297 -10.103   7.538  0.00  0.00    +0.008 A 
ATOM     35  C   UNL     1      -4.289 -12.291   7.359  0.00  0.00    +0.008 A 
ATOM     36  C   UNL     1      -5.763 -10.211   6.228  0.00  0.00    +0.001 A 
ATOM     37  C   UNL     1      -4.755 -12.399   6.050  0.00  0.00    +0.001 A 
ATOM     38  C   UNL     1      -5.492 -11.360   5.484  0.00  0.00    +0.000 A 
ENDBRANCH  32  33
ENDBRANCH  19  24
TORSDOF 7
ENDMDL
MODEL 10
REMARK VINA RESULT:      -7.6     20.386     23.279
REMARK  Name = 11913221
REMARK  7 active torsions:
REMARK  status: ('A' for Active; 'I' for Inactive)
REMARK    1  A    between atoms: S_1  and  N_6
REMARK    2  A    between atoms: S_1  and  C_17
REMARK    3  A    between atoms: N_6  and  C_12
REMARK    4  A    between atoms: N_7  and  C_13
REMARK    5  A    between atoms: C_17  and  C_18
REMARK    6  A    between atoms: C_19  and  C_24
REMARK    7  A    between atoms: C_32  and  C_33
REMARK                            x       y       z     vdW  Elec       q    Type
REMARK                         _______ _______ _______ _____ _____    ______ ____
ROOT
ATOM      7  N   UNL     1       6.928   7.991  -4.655  0.00  0.00    -0.306 N 
ATOM      8  N   UNL     1       4.866   6.933  -5.029  0.00  0.00    -0.214 NA
ATOM      9  N   UNL     1       4.966   9.244  -4.354  0.00  0.00    -0.223 NA
ATOM     16  C   UNL     1       5.546   8.058  -4.680  0.00  0.00    +0.216 A 
ATOM     19  C   UNL     1       3.521   7.034  -5.043  0.00  0.00    +0.076 A 
ATOM     22  C   UNL     1       3.618   9.274  -4.389  0.00  0.00    +0.116 A 
ATOM     23  C   UNL     1       2.835   8.190  -4.728  0.00  0.00    +0.048 A 
ATOM     40  H   UNL     1       7.420   8.820  -4.343  0.00  0.00    +0.149 HD
ENDROOT
BRANCH   7  13
ATOM      2  O   UNL     1       8.131   4.591  -4.089  0.00  0.00    -0.370 OA
ATOM      3  O   UNL     1       9.870   7.187  -4.157  0.00  0.00    -0.370 OA
ATOM     10  C   UNL     1       9.145   6.510  -3.116  0.00  0.00    +0.170 C 
ATOM     11  C   UNL     1       7.875   5.960  -3.734  0.00  0.00    +0.171 C 
ATOM     12  C   UNL     1       9.900   5.282  -2.668  0.00  0.00    +0.133 C 
ATOM     13  C   UNL     1       7.676   6.796  -4.977  0.00  0.00    +0.130 C 
ATOM     14  C   UNL     1       9.454   4.233  -3.666  0.00  0.00    +0.183 C 
ATOM     15  C   UNL     1       9.098   7.156  -5.366  0.00  0.00    +0.185 C 
BRANCH  12   6
ATOM      6  N   UNL     1       9.457   4.894  -1.307  0.00  0.00    -0.186 NA
ATOM     39  H   UNL     1       8.498   5.143  -1.034  0.00  0.00    +0.148 HD
BRANCH   6   1
ATOM      1  S   UNL     1      10.630   4.660  -0.095  0.00  0.00    +0.034 S 
ATOM      4  O   UNL     1      10.028   4.030   1.063  0.00  0.00    -0.158 OA
ATOM      5  O   UNL     1      11.394   5.886   0.041  0.00  0.00    -0.158 OA
BRANCH   1  17
ATOM     17  C   UNL     1      11.683   3.464  -0.884  0.00  0.00    +0.220 C 
BRANCH  17  18
ATOM     18  C   UNL     1      13.061   3.629  -0.321  0.00  0.00    -0.025 A 
ATOM     20  C   UNL     1      13.299   3.345   1.020  0.00  0.00    +0.005 A 
ATOM     21  C   UNL     1      14.096   4.067  -1.143  0.00  0.00    +0.005 A 
ATOM     25  C   UNL     1      14.583   3.499   1.544  0.00  0.00    +0.000 A 
ATOM     26  C   UNL     1      15.380   4.221  -0.618  0.00  0.00    +0.000 A 
ATOM     27  C   UNL     1      15.623   3.937   0.725  0.00  0.00    +0.000 A 
ENDBRANCH  17  18
ENDBRANCH   1  17
ENDBRANCH   6   1
ENDBRANCH  12   6
ENDBRANCH   7  13
BRANCH  19  24
ATOM     24  C   UNL     1       2.820   5.828  -5.415  0.00  0.00    +0.001 A 
ATOM     28  C   UNL     1       2.587   4.832  -4.464  0.00  0.00    +0.010 A 
ATOM     29  C   UNL     1       2.371   5.654  -6.726  0.00  0.00    +0.010 A 
ATOM     30  C   UNL     1       1.908   3.667  -4.823  0.00  0.00    +0.009 A 
ATOM     31  C   UNL     1       1.693   4.489  -7.084  0.00  0.00    +0.009 A 
ATOM     32  C   UNL     1       1.462   3.496  -6.134  0.00  0.00    -0.018 A 
BRANCH  32  33
ATOM     33  C   UNL     1       0.758   2.287  -6.506  0.00  0.00    -0.018 A 
ATOM     34  C   UNL     1       0.485   1.315  -5.542  0.00  0.00    +0.008 A 
ATOM     35  C   UNL     1       0.352   2.094  -7.826  0.00  0.00    +0.008 A 
ATOM     36  C   UNL     1      -0.195   0.151  -5.900  0.00  0.00    +0.001 A 
ATOM     37  C   UNL     1      -0.327   0.930  -8.183  0.00  0.00    +0.001 A 
ATOM     38  C   UNL     1      -0.600  -0.042  -7.221  0.00  0.00    +0.000 A 
ENDBRANCH  32  33
ENDBRANCH  19  24
TORSDOF 7
ENDMDL
