REMARK  Name = 7050142
REMARK  11 active torsions:
REMARK  status: ('A' for Active; 'I' for Inactive)
REMARK    1  A    between atoms: O_1  and  C_11
REMARK    2  A    between atoms: O_2  and  C_12
REMARK    3  A    between atoms: O_6  and  C_30
REMARK    4  A    between atoms: O_6  and  C_33
REMARK    5  A    between atoms: N_7  and  C_13
REMARK    6  A    between atoms: N_8  and  C_18
REMARK    7  A    between atoms: C_15  and  C_17
REMARK    8  A    between atoms: C_18  and  C_20
REMARK    9  A    between atoms: C_18  and  C_22
REMARK   10  A    between atoms: C_19  and  C_23
REMARK   11  A    between atoms: C_20  and  C_21
REMARK                            x       y       z     vdW  Elec       q    Type
REMARK                         _______ _______ _______ _____ _____    ______ ____
ROOT
ATOM     11  C   UNL     1      -1.390   3.396  -0.073  0.00  0.00    +0.167 C 
ATOM     12  C   UNL     1      -0.108   4.212  -0.276  0.00  0.00    +0.149 C 
ATOM     13  C   UNL     1      -1.186   1.918  -0.459  0.00  0.00    +0.128 C 
ATOM     14  C   UNL     1       1.084   3.620   0.496  0.00  0.00    +0.074 C 
ATOM     15  C   UNL     1       1.113   2.118   0.485  0.00  0.00    +0.015 C 
ATOM     16  C   UNL     1       0.107   1.343   0.052  0.00  0.00    +0.006 C 
ENDROOT
BRANCH  15  17
ATOM      3  O   UNL     1       2.728   1.603   2.112  0.00  0.00    -0.271 OA
ATOM      8  N   UNL     1       2.927   0.665  -0.013  0.00  0.00    -0.300 N 
ATOM     17  C   UNL     1       2.328   1.447   0.959  0.00  0.00    +0.241 C 
ATOM     37  H   UNL     1       2.556   0.682  -0.959  0.00  0.00    +0.150 HD
BRANCH   8  18
ATOM     18  C   UNL     1       4.138  -0.090   0.217  0.00  0.00    +0.163 C 
BRANCH  18  22
ATOM      5  O   UNL     1       5.299   1.710  -0.931  0.00  0.00    -0.274 OA
ATOM      9  N   UNL     1       6.363   0.647   0.805  0.00  0.00    -0.328 N 
ATOM     22  C   UNL     1       5.307   0.843  -0.060  0.00  0.00    +0.231 C 
ATOM     38  H   UNL     1       7.201   1.215   0.739  0.00  0.00    +0.145 HD
ATOM     39  H   UNL     1       6.355  -0.070   1.523  0.00  0.00    +0.145 HD
ENDBRANCH  18  22
BRANCH  18  20
ATOM     20  C   UNL     1       4.223  -1.333  -0.676  0.00  0.00    +0.067 C 
BRANCH  20  21
ATOM     21  C   UNL     1       3.070  -2.284  -0.465  0.00  0.00    -0.045 A 
ATOM     24  C   UNL     1       3.166  -3.296   0.490  0.00  0.00    +0.007 A 
ATOM     25  C   UNL     1       1.909  -2.150  -1.226  0.00  0.00    +0.007 A 
ATOM     28  C   UNL     1       2.100  -4.175   0.684  0.00  0.00    +0.046 A 
ATOM     29  C   UNL     1       0.843  -3.029  -1.031  0.00  0.00    +0.046 A 
ATOM     30  C   UNL     1       0.939  -4.041  -0.076  0.00  0.00    +0.120 A 
BRANCH  30   6
ATOM      6  O   UNL     1      -0.102  -4.898   0.114  0.00  0.00    -0.495 OA
ATOM     33  C   UNL     1      -1.259  -4.705  -0.698  0.00  0.00    +0.277 C 
ENDBRANCH  30   6
ENDBRANCH  20  21
ENDBRANCH  18  20
ENDBRANCH   8  18
ENDBRANCH  15  17
BRANCH  13   7
ATOM      4  O   UNL     1      -3.610   1.334  -1.883  0.00  0.00    -0.270 OA
ATOM      7  N   UNL     1      -2.277   1.093  -0.000  0.00  0.00    -0.302 N 
ATOM     19  C   UNL     1      -3.413   0.868  -0.763  0.00  0.00    +0.246 C 
ATOM     34  H   UNL     1      -2.228   0.748   0.953  0.00  0.00    +0.150 HD
BRANCH  19  23
ATOM     10  N   UNL     1      -6.790  -0.593   0.042  0.00  0.00    -0.263 NA
ATOM     23  C   UNL     1      -4.458   0.016  -0.138  0.00  0.00    +0.055 A 
ATOM     26  C   UNL     1      -4.127  -0.939   0.816  0.00  0.00    +0.016 A 
ATOM     27  C   UNL     1      -5.792   0.149  -0.488  0.00  0.00    +0.123 A 
ATOM     31  C   UNL     1      -5.126  -1.722   1.384  0.00  0.00    +0.020 A 
ATOM     32  C   UNL     1      -6.431  -1.512   0.966  0.00  0.00    +0.111 A 
ENDBRANCH  19  23
ENDBRANCH  13   7
BRANCH  11   1
ATOM      1  O   UNL     1      -1.778   3.484   1.300  0.00  0.00    -0.387 OA
ATOM     35  H   UNL     1      -1.927   4.423   1.502  0.00  0.00    +0.210 HD
ENDBRANCH  11   1
BRANCH  12   2
ATOM      2  O   UNL     1       0.204   4.300  -1.665  0.00  0.00    -0.389 OA
ATOM     36  H   UNL     1       0.995   4.859  -1.754  0.00  0.00    +0.210 HD
ENDBRANCH  12   2
TORSDOF 10
