MODEL 1
REMARK VINA RESULT:      -6.9      0.000      0.000
REMARK  Name = 71693345
REMARK  13 active torsions:
REMARK  status: ('A' for Active; 'I' for Inactive)
REMARK    1  A    between atoms: S_1  and  N_8
REMARK    2  A    between atoms: S_1  and  C_24
REMARK    3  A    between atoms: O_3  and  C_13
REMARK    4  A    between atoms: N_7  and  C_11
REMARK    5  A    between atoms: N_8  and  C_21
REMARK    6  A    between atoms: C_9  and  C_13
REMARK    7  A    between atoms: C_10  and  C_14
REMARK    8  A    between atoms: C_11  and  C_12
REMARK    9  A    between atoms: C_12  and  C_17
REMARK   10  A    between atoms: C_12  and  C_18
REMARK   11  A    between atoms: C_24  and  C_25
REMARK   12  A    between atoms: C_25  and  C_26
REMARK   13  A    between atoms: C_25  and  C_27
REMARK                            x       y       z     vdW  Elec       q    Type
REMARK                         _______ _______ _______ _____ _____    ______ ____
ROOT
ATOM     14  C   UNL     1      16.803   7.459  20.028  0.00  0.00    -0.017 A 
ATOM     19  C   UNL     1      17.424   6.249  19.718  0.00  0.00    +0.008 A 
ATOM     20  C   UNL     1      17.482   8.422  20.774  0.00  0.00    +0.008 A 
ATOM     21  C   UNL     1      19.406   6.965  20.902  0.00  0.00    +0.048 A 
ATOM     22  C   UNL     1      18.726   6.002  20.155  0.00  0.00    +0.025 A 
ATOM     23  C   UNL     1      18.783   8.174  21.211  0.00  0.00    +0.025 A 
ENDROOT
BRANCH  14  10
ATOM      2  O   UNL     1      15.270   7.155  18.250  0.00  0.00    -0.361 OA
ATOM      4  O   UNL     1      11.736   7.245  17.813  0.00  0.00    -0.273 OA
ATOM      7  N   UNL     1      12.964   7.195  19.794  0.00  0.00    -0.291 N 
ATOM      9  C   UNL     1      14.294   7.112  20.445  0.00  0.00    +0.135 C 
ATOM     10  C   UNL     1      15.390   7.728  19.553  0.00  0.00    +0.171 C 
ATOM     15  C   UNL     1      12.814   7.301  18.410  0.00  0.00    +0.242 C 
ATOM     16  C   UNL     1      14.081   7.574  17.626  0.00  0.00    +0.256 C 
BRANCH   7  11
ATOM     11  C   UNL     1      11.783   6.914  20.605  0.00  0.00    +0.111 C 
BRANCH  11  12
ATOM     12  C   UNL     1      10.949   8.171  20.877  0.00  0.00    +0.000 C 
ATOM     17  C   UNL     1      11.725   9.417  20.449  0.00  0.00    +0.009 C 
ATOM     18  C   UNL     1      10.559   8.281  22.353  0.00  0.00    +0.009 C 
ENDBRANCH  11  12
ENDBRANCH   7  11
BRANCH   9  13
ATOM     13  C   UNL     1      14.308   7.756  21.838  0.00  0.00    +0.181 C 
BRANCH  13   3
ATOM      3  O   UNL     1      15.047   6.920  22.704  0.00  0.00    -0.393 OA
ATOM     28  H   UNL     1      14.613   6.948  23.572  0.00  0.00    +0.209 HD
ENDBRANCH  13   3
ENDBRANCH   9  13
ENDBRANCH  14  10
BRANCH  21   8
ATOM      8  N   UNL     1      20.737   6.713  21.348  0.00  0.00    -0.221 N 
ATOM     29  H   UNL     1      21.215   5.960  20.834  0.00  0.00    +0.173 HD
BRANCH   8   1
ATOM      1  S   UNL     1      21.050   6.756  23.041  0.00  0.00    +0.043 S 
ATOM      5  O   UNL     1      21.637   8.043  23.367  0.00  0.00    -0.155 OA
ATOM      6  O   UNL     1      19.917   6.253  23.791  0.00  0.00    -0.155 OA
BRANCH   1  24
ATOM     24  C   UNL     1      22.355   5.552  23.151  0.00  0.00    +0.191 C 
BRANCH  24  25
ATOM     25  C   UNL     1      22.585   4.800  21.840  0.00  0.00    +0.006 C 
ATOM     26  C   UNL     1      21.908   3.428  21.841  0.00  0.00    +0.009 C 
ATOM     27  C   UNL     1      24.086   4.634  21.594  0.00  0.00    +0.009 C 
ENDBRANCH  24  25
ENDBRANCH   1  24
ENDBRANCH   8   1
ENDBRANCH  21   8
TORSDOF 9
ENDMDL
MODEL 2
REMARK VINA RESULT:      -6.8      1.822      2.827
REMARK  Name = 71693345
REMARK  13 active torsions:
REMARK  status: ('A' for Active; 'I' for Inactive)
REMARK    1  A    between atoms: S_1  and  N_8
REMARK    2  A    between atoms: S_1  and  C_24
REMARK    3  A    between atoms: O_3  and  C_13
REMARK    4  A    between atoms: N_7  and  C_11
REMARK    5  A    between atoms: N_8  and  C_21
REMARK    6  A    between atoms: C_9  and  C_13
REMARK    7  A    between atoms: C_10  and  C_14
REMARK    8  A    between atoms: C_11  and  C_12
REMARK    9  A    between atoms: C_12  and  C_17
REMARK   10  A    between atoms: C_12  and  C_18
REMARK   11  A    between atoms: C_24  and  C_25
REMARK   12  A    between atoms: C_25  and  C_26
REMARK   13  A    between atoms: C_25  and  C_27
REMARK                            x       y       z     vdW  Elec       q    Type
REMARK                         _______ _______ _______ _____ _____    ______ ____
ROOT
ATOM     14  C   UNL     1      15.807   6.780  19.919  0.00  0.00    -0.017 A 
ATOM     19  C   UNL     1      16.518   6.968  21.104  0.00  0.00    +0.008 A 
ATOM     20  C   UNL     1      16.413   6.145  18.835  0.00  0.00    +0.008 A 
ATOM     21  C   UNL     1      18.442   5.884  20.122  0.00  0.00    +0.048 A 
ATOM     22  C   UNL     1      17.835   6.520  21.205  0.00  0.00    +0.025 A 
ATOM     23  C   UNL     1      17.730   5.697  18.937  0.00  0.00    +0.025 A 
ENDROOT
BRANCH  14  10
ATOM      2  O   UNL     1      13.612   6.536  20.770  0.00  0.00    -0.361 OA
ATOM      4  O   UNL     1      10.604   8.445  20.803  0.00  0.00    -0.273 OA
ATOM      7  N   UNL     1      12.758   9.120  20.220  0.00  0.00    -0.291 N 
ATOM      9  C   UNL     1      14.194   8.768  20.097  0.00  0.00    +0.135 C 
ATOM     10  C   UNL     1      14.377   7.265  19.809  0.00  0.00    +0.171 C 
ATOM     15  C   UNL     1      11.785   8.180  20.564  0.00  0.00    +0.242 C 
ATOM     16  C   UNL     1      12.234   6.733  20.567  0.00  0.00    +0.256 C 
BRANCH   7  11
ATOM     11  C   UNL     1      12.394  10.534  20.218  0.00  0.00    +0.111 C 
BRANCH  11  12
ATOM     12  C   UNL     1      12.611  11.194  21.584  0.00  0.00    +0.000 C 
ATOM     17  C   UNL     1      11.278  11.691  22.143  0.00  0.00    +0.009 C 
ATOM     18  C   UNL     1      13.605  12.355  21.498  0.00  0.00    +0.009 C 
ENDBRANCH  11  12
ENDBRANCH   7  11
BRANCH   9  13
ATOM     13  C   UNL     1      14.917   9.613  19.038  0.00  0.00    +0.181 C 
BRANCH  13   3
ATOM      3  O   UNL     1      14.497   9.176  17.762  0.00  0.00    -0.393 OA
ATOM     28  H   UNL     1      15.286   9.137  17.197  0.00  0.00    +0.209 HD
ENDBRANCH  13   3
ENDBRANCH   9  13
ENDBRANCH  14  10
BRANCH  21   8
ATOM      8  N   UNL     1      19.789   5.426  20.226  0.00  0.00    -0.221 N 
ATOM     29  H   UNL     1      19.886   4.401  20.196  0.00  0.00    +0.173 HD
BRANCH   8   1
ATOM      1  S   UNL     1      20.839   6.229  21.330  0.00  0.00    +0.043 S 
ATOM      5  O   UNL     1      20.913   7.629  20.957  0.00  0.00    -0.155 OA
ATOM      6  O   UNL     1      20.547   5.844  22.696  0.00  0.00    -0.155 OA
BRANCH   1  24
ATOM     24  C   UNL     1      22.394   5.492  20.877  0.00  0.00    +0.191 C 
BRANCH  24  25
ATOM     25  C   UNL     1      22.855   4.418  21.863  0.00  0.00    +0.006 C 
ATOM     26  C   UNL     1      24.314   4.612  22.280  0.00  0.00    +0.009 C 
ATOM     27  C   UNL     1      22.678   3.032  21.239  0.00  0.00    +0.009 C 
ENDBRANCH  24  25
ENDBRANCH   1  24
ENDBRANCH   8   1
ENDBRANCH  21   8
TORSDOF 9
ENDMDL
MODEL 3
REMARK VINA RESULT:      -6.4      2.943      8.730
REMARK  Name = 71693345
REMARK  13 active torsions:
REMARK  status: ('A' for Active; 'I' for Inactive)
REMARK    1  A    between atoms: S_1  and  N_8
REMARK    2  A    between atoms: S_1  and  C_24
REMARK    3  A    between atoms: O_3  and  C_13
REMARK    4  A    between atoms: N_7  and  C_11
REMARK    5  A    between atoms: N_8  and  C_21
REMARK    6  A    between atoms: C_9  and  C_13
REMARK    7  A    between atoms: C_10  and  C_14
REMARK    8  A    between atoms: C_11  and  C_12
REMARK    9  A    between atoms: C_12  and  C_17
REMARK   10  A    between atoms: C_12  and  C_18
REMARK   11  A    between atoms: C_24  and  C_25
REMARK   12  A    between atoms: C_25  and  C_26
REMARK   13  A    between atoms: C_25  and  C_27
REMARK                            x       y       z     vdW  Elec       q    Type
REMARK                         _______ _______ _______ _____ _____    ______ ____
ROOT
ATOM     14  C   UNL     1      18.069   6.284  20.666  0.00  0.00    -0.017 A 
ATOM     19  C   UNL     1      17.153   6.560  21.681  0.00  0.00    +0.008 A 
ATOM     20  C   UNL     1      17.627   6.114  19.354  0.00  0.00    +0.008 A 
ATOM     21  C   UNL     1      15.351   6.497  20.071  0.00  0.00    +0.048 A 
ATOM     22  C   UNL     1      15.794   6.667  21.383  0.00  0.00    +0.025 A 
ATOM     23  C   UNL     1      16.268   6.220  19.057  0.00  0.00    +0.025 A 
ENDROOT
BRANCH  14  10
ATOM      2  O   UNL     1      20.083   5.164  20.128  0.00  0.00    -0.361 OA
ATOM      4  O   UNL     1      23.574   5.728  20.563  0.00  0.00    -0.273 OA
ATOM      7  N   UNL     1      21.804   7.218  20.851  0.00  0.00    -0.291 N 
ATOM      9  C   UNL     1      20.345   7.467  20.762  0.00  0.00    +0.135 C 
ATOM     10  C   UNL     1      19.544   6.169  20.988  0.00  0.00    +0.171 C 
ATOM     15  C   UNL     1      22.364   5.959  20.627  0.00  0.00    +0.242 C 
ATOM     16  C   UNL     1      21.384   4.808  20.529  0.00  0.00    +0.256 C 
BRANCH   7  11
ATOM     11  C   UNL     1      22.694   8.373  20.937  0.00  0.00    +0.111 C 
BRANCH  11  12
ATOM     12  C   UNL     1      22.860   9.083  19.588  0.00  0.00    +0.000 C 
ATOM     17  C   UNL     1      24.320   9.018  19.138  0.00  0.00    +0.009 C 
ATOM     18  C   UNL     1      22.400  10.541  19.657  0.00  0.00    +0.009 C 
ENDBRANCH  11  12
ENDBRANCH   7  11
BRANCH   9  13
ATOM     13  C   UNL     1      19.876   8.565  21.727  0.00  0.00    +0.181 C 
BRANCH  13   3
ATOM      3  O   UNL     1      19.240   9.575  20.970  0.00  0.00    -0.393 OA
ATOM     28  H   UNL     1      19.476  10.427  21.371  0.00  0.00    +0.209 HD
ENDBRANCH  13   3
ENDBRANCH   9  13
ENDBRANCH  14  10
BRANCH  21   8
ATOM      8  N   UNL     1      13.961   6.607  19.767  0.00  0.00    -0.221 N 
ATOM     29  H   UNL     1      13.615   5.881  19.125  0.00  0.00    +0.173 HD
BRANCH   8   1
ATOM      1  S   UNL     1      13.304   8.179  19.518  0.00  0.00    +0.043 S 
ATOM      5  O   UNL     1      14.398   9.100  19.267  0.00  0.00    -0.155 OA
ATOM      6  O   UNL     1      12.165   8.128  18.623  0.00  0.00    -0.155 OA
BRANCH   1  24
ATOM     24  C   UNL     1      12.699   8.531  21.153  0.00  0.00    +0.191 C 
BRANCH  24  25
ATOM     25  C   UNL     1      11.184   8.359  21.278  0.00  0.00    +0.006 C 
ATOM     26  C   UNL     1      10.580   9.330  22.294  0.00  0.00    +0.009 C 
ATOM     27  C   UNL     1      10.857   6.920  21.682  0.00  0.00    +0.009 C 
ENDBRANCH  24  25
ENDBRANCH   1  24
ENDBRANCH   8   1
ENDBRANCH  21   8
TORSDOF 9
ENDMDL
MODEL 4
REMARK VINA RESULT:      -6.3     27.713     30.003
REMARK  Name = 71693345
REMARK  13 active torsions:
REMARK  status: ('A' for Active; 'I' for Inactive)
REMARK    1  A    between atoms: S_1  and  N_8
REMARK    2  A    between atoms: S_1  and  C_24
REMARK    3  A    between atoms: O_3  and  C_13
REMARK    4  A    between atoms: N_7  and  C_11
REMARK    5  A    between atoms: N_8  and  C_21
REMARK    6  A    between atoms: C_9  and  C_13
REMARK    7  A    between atoms: C_10  and  C_14
REMARK    8  A    between atoms: C_11  and  C_12
REMARK    9  A    between atoms: C_12  and  C_17
REMARK   10  A    between atoms: C_12  and  C_18
REMARK   11  A    between atoms: C_24  and  C_25
REMARK   12  A    between atoms: C_25  and  C_26
REMARK   13  A    between atoms: C_25  and  C_27
REMARK                            x       y       z     vdW  Elec       q    Type
REMARK                         _______ _______ _______ _____ _____    ______ ____
ROOT
ATOM     14  C   UNL     1      -6.148 -10.663  16.834  0.00  0.00    -0.017 A 
ATOM     19  C   UNL     1      -4.884 -10.085  16.955  0.00  0.00    +0.008 A 
ATOM     20  C   UNL     1      -6.296 -11.884  16.176  0.00  0.00    +0.008 A 
ATOM     21  C   UNL     1      -3.916 -11.950  15.762  0.00  0.00    +0.048 A 
ATOM     22  C   UNL     1      -3.769 -10.729  16.420  0.00  0.00    +0.025 A 
ATOM     23  C   UNL     1      -5.180 -12.527  15.640  0.00  0.00    +0.025 A 
ENDROOT
BRANCH  14  10
ATOM      2  O   UNL     1      -8.221  -9.642  16.323  0.00  0.00    -0.361 OA
ATOM      4  O   UNL     1     -11.210  -8.800  18.069  0.00  0.00    -0.273 OA
ATOM      7  N   UNL     1      -9.457 -10.178  18.750  0.00  0.00    -0.291 N 
ATOM      9  C   UNL     1      -8.162 -10.818  18.417  0.00  0.00    +0.135 C 
ATOM     10  C   UNL     1      -7.359  -9.965  17.416  0.00  0.00    +0.171 C 
ATOM     15  C   UNL     1     -10.079  -9.261  17.900  0.00  0.00    +0.242 C 
ATOM     16  C   UNL     1      -9.244  -8.769  16.735  0.00  0.00    +0.256 C 
BRANCH   7  11
ATOM     11  C   UNL     1     -10.214 -10.706  19.882  0.00  0.00    +0.111 C 
BRANCH  11  12
ATOM     12  C   UNL     1     -10.913 -12.029  19.550  0.00  0.00    +0.000 C 
ATOM     17  C   UNL     1     -12.427 -11.872  19.692  0.00  0.00    +0.009 C 
ATOM     18  C   UNL     1     -10.421 -13.167  20.446  0.00  0.00    +0.009 C 
ENDBRANCH  11  12
ENDBRANCH   7  11
BRANCH   9  13
ATOM     13  C   UNL     1      -7.319 -11.123  19.664  0.00  0.00    +0.181 C 
BRANCH  13   3
ATOM      3  O   UNL     1      -6.709  -9.922  20.088  0.00  0.00    -0.393 OA
ATOM     28  H   UNL     1      -6.267  -9.534  19.315  0.00  0.00    +0.209 HD
ENDBRANCH  13   3
ENDBRANCH   9  13
ENDBRANCH  14  10
BRANCH  21   8
ATOM      8  N   UNL     1      -2.775 -12.609  15.215  0.00  0.00    -0.221 N 
ATOM     29  H   UNL     1      -2.132 -12.990  15.923  0.00  0.00    +0.173 HD
BRANCH   8   1
ATOM      1  S   UNL     1      -2.014 -11.909  13.837  0.00  0.00    +0.043 S 
ATOM      5  O   UNL     1      -1.594 -10.562  14.179  0.00  0.00    -0.155 OA
ATOM      6  O   UNL     1      -1.082 -12.839  13.232  0.00  0.00    -0.155 OA
BRANCH   1  24
ATOM     24  C   UNL     1      -3.414 -11.753  12.750  0.00  0.00    +0.191 C 
BRANCH  24  25
ATOM     25  C   UNL     1      -3.812 -10.298  12.496  0.00  0.00    +0.006 C 
ATOM     26  C   UNL     1      -5.296 -10.054  12.775  0.00  0.00    +0.009 C 
ATOM     27  C   UNL     1      -3.490  -9.919  11.049  0.00  0.00    +0.009 C 
ENDBRANCH  24  25
ENDBRANCH   1  24
ENDBRANCH   8   1
ENDBRANCH  21   8
TORSDOF 9
ENDMDL
MODEL 5
REMARK VINA RESULT:      -6.2     28.428     31.278
REMARK  Name = 71693345
REMARK  13 active torsions:
REMARK  status: ('A' for Active; 'I' for Inactive)
REMARK    1  A    between atoms: S_1  and  N_8
REMARK    2  A    between atoms: S_1  and  C_24
REMARK    3  A    between atoms: O_3  and  C_13
REMARK    4  A    between atoms: N_7  and  C_11
REMARK    5  A    between atoms: N_8  and  C_21
REMARK    6  A    between atoms: C_9  and  C_13
REMARK    7  A    between atoms: C_10  and  C_14
REMARK    8  A    between atoms: C_11  and  C_12
REMARK    9  A    between atoms: C_12  and  C_17
REMARK   10  A    between atoms: C_12  and  C_18
REMARK   11  A    between atoms: C_24  and  C_25
REMARK   12  A    between atoms: C_25  and  C_26
REMARK   13  A    between atoms: C_25  and  C_27
REMARK                            x       y       z     vdW  Elec       q    Type
REMARK                         _______ _______ _______ _____ _____    ______ ____
ROOT
ATOM     14  C   UNL     1     -13.768   7.571  21.040  0.00  0.00    -0.017 A 
ATOM     19  C   UNL     1     -14.396   7.744  19.807  0.00  0.00    +0.008 A 
ATOM     20  C   UNL     1     -12.380   7.454  21.106  0.00  0.00    +0.008 A 
ATOM     21  C   UNL     1     -12.246   7.683  18.705  0.00  0.00    +0.048 A 
ATOM     22  C   UNL     1     -13.635   7.800  18.639  0.00  0.00    +0.025 A 
ATOM     23  C   UNL     1     -11.619   7.510  19.938  0.00  0.00    +0.025 A 
ENDROOT
BRANCH  14  10
ATOM      2  O   UNL     1     -15.692   8.408  22.136  0.00  0.00    -0.361 OA
ATOM      4  O   UNL     1     -17.778   7.424  24.851  0.00  0.00    -0.273 OA
ATOM      7  N   UNL     1     -16.158   6.181  23.726  0.00  0.00    -0.291 N 
ATOM      9  C   UNL     1     -15.165   6.116  22.627  0.00  0.00    +0.135 C 
ATOM     10  C   UNL     1     -14.594   7.511  22.308  0.00  0.00    +0.171 C 
ATOM     15  C   UNL     1     -16.855   7.351  24.036  0.00  0.00    +0.242 C 
ATOM     16  C   UNL     1     -16.368   8.612  23.352  0.00  0.00    +0.256 C 
BRANCH   7  11
ATOM     11  C   UNL     1     -16.590   4.927  24.338  0.00  0.00    +0.111 C 
BRANCH  11  12
ATOM     12  C   UNL     1     -17.587   4.163  23.459  0.00  0.00    +0.000 C 
ATOM     17  C   UNL     1     -18.966   4.151  24.120  0.00  0.00    +0.009 C 
ATOM     18  C   UNL     1     -17.123   2.729  23.196  0.00  0.00    +0.009 C 
ENDBRANCH  11  12
ENDBRANCH   7  11
BRANCH   9  13
ATOM     13  C   UNL     1     -14.031   5.122  22.918  0.00  0.00    +0.181 C 
BRANCH  13   3
ATOM      3  O   UNL     1     -14.058   4.118  21.924  0.00  0.00    -0.393 OA
ATOM     28  H   UNL     1     -14.297   4.549  21.086  0.00  0.00    +0.209 HD
ENDBRANCH  13   3
ENDBRANCH   9  13
ENDBRANCH  14  10
BRANCH  21   8
ATOM      8  N   UNL     1     -11.468   7.741  17.510  0.00  0.00    -0.221 N 
ATOM     29  H   UNL     1     -10.955   6.873  17.302  0.00  0.00    +0.173 HD
BRANCH   8   1
ATOM      1  S   UNL     1     -10.614   9.197  17.164  0.00  0.00    +0.043 S 
ATOM      5  O   UNL     1      -9.494   9.301  18.080  0.00  0.00    -0.155 OA
ATOM      6  O   UNL     1     -10.416   9.354  15.737  0.00  0.00    -0.155 OA
BRANCH   1  24
ATOM     24  C   UNL     1     -11.819  10.399  17.683  0.00  0.00    +0.191 C 
BRANCH  24  25
ATOM     25  C   UNL     1     -11.346  11.244  18.867  0.00  0.00    +0.006 C 
ATOM     26  C   UNL     1     -12.347  11.220  20.023  0.00  0.00    +0.009 C 
ATOM     27  C   UNL     1     -11.117  12.688  18.413  0.00  0.00    +0.009 C 
ENDBRANCH  24  25
ENDBRANCH   1  24
ENDBRANCH   8   1
ENDBRANCH  21   8
TORSDOF 9
ENDMDL
MODEL 6
REMARK VINA RESULT:      -6.2      3.089      8.721
REMARK  Name = 71693345
REMARK  13 active torsions:
REMARK  status: ('A' for Active; 'I' for Inactive)
REMARK    1  A    between atoms: S_1  and  N_8
REMARK    2  A    between atoms: S_1  and  C_24
REMARK    3  A    between atoms: O_3  and  C_13
REMARK    4  A    between atoms: N_7  and  C_11
REMARK    5  A    between atoms: N_8  and  C_21
REMARK    6  A    between atoms: C_9  and  C_13
REMARK    7  A    between atoms: C_10  and  C_14
REMARK    8  A    between atoms: C_11  and  C_12
REMARK    9  A    between atoms: C_12  and  C_17
REMARK   10  A    between atoms: C_12  and  C_18
REMARK   11  A    between atoms: C_24  and  C_25
REMARK   12  A    between atoms: C_25  and  C_26
REMARK   13  A    between atoms: C_25  and  C_27
REMARK                            x       y       z     vdW  Elec       q    Type
REMARK                         _______ _______ _______ _____ _____    ______ ____
ROOT
ATOM     14  C   UNL     1      18.073   6.331  20.716  0.00  0.00    -0.017 A 
ATOM     19  C   UNL     1      17.166   6.573  21.748  0.00  0.00    +0.008 A 
ATOM     20  C   UNL     1      17.617   6.174  19.408  0.00  0.00    +0.008 A 
ATOM     21  C   UNL     1      15.344   6.501  20.161  0.00  0.00    +0.048 A 
ATOM     22  C   UNL     1      15.802   6.659  21.470  0.00  0.00    +0.025 A 
ATOM     23  C   UNL     1      16.252   6.259  19.130  0.00  0.00    +0.025 A 
ENDROOT
BRANCH  14  10
ATOM      2  O   UNL     1      20.094   5.232  20.159  0.00  0.00    -0.361 OA
ATOM      4  O   UNL     1      23.583   5.846  20.535  0.00  0.00    -0.273 OA
ATOM      7  N   UNL     1      21.798   7.316  20.834  0.00  0.00    -0.291 N 
ATOM      9  C   UNL     1      20.335   7.544  20.765  0.00  0.00    +0.135 C 
ATOM     10  C   UNL     1      19.555   6.238  21.017  0.00  0.00    +0.171 C 
ATOM     15  C   UNL     1      22.371   6.061  20.614  0.00  0.00    +0.242 C 
ATOM     16  C   UNL     1      21.405   4.896  20.543  0.00  0.00    +0.256 C 
BRANCH   7  11
ATOM     11  C   UNL     1      22.674   8.483  20.894  0.00  0.00    +0.111 C 
BRANCH  11  12
ATOM     12  C   UNL     1      22.815   9.177  19.534  0.00  0.00    +0.000 C 
ATOM     17  C   UNL     1      24.268   9.118  19.064  0.00  0.00    +0.009 C 
ATOM     18  C   UNL     1      22.344  10.632  19.592  0.00  0.00    +0.009 C 
ENDBRANCH  11  12
ENDBRANCH   7  11
BRANCH   9  13
ATOM     13  C   UNL     1      19.865   8.646  21.725  0.00  0.00    +0.181 C 
BRANCH  13   3
ATOM      3  O   UNL     1      19.212   9.643  20.967  0.00  0.00    -0.393 OA
ATOM     28  H   UNL     1      19.866  10.011  20.350  0.00  0.00    +0.209 HD
ENDBRANCH  13   3
ENDBRANCH   9  13
ENDBRANCH  14  10
BRANCH  21   8
ATOM      8  N   UNL     1      13.949   6.590  19.877  0.00  0.00    -0.221 N 
ATOM     29  H   UNL     1      13.571   5.774  19.376  0.00  0.00    +0.173 HD
BRANCH   8   1
ATOM      1  S   UNL     1      13.313   8.112  19.382  0.00  0.00    +0.043 S 
ATOM      5  O   UNL     1      11.938   8.206  19.837  0.00  0.00    -0.155 OA
ATOM      6  O   UNL     1      14.254   9.180  19.655  0.00  0.00    -0.155 OA
BRANCH   1  24
ATOM     24  C   UNL     1      13.258   7.872  17.620  0.00  0.00    +0.191 C 
BRANCH  24  25
ATOM     25  C   UNL     1      12.890   9.144  16.856  0.00  0.00    +0.006 C 
ATOM     26  C   UNL     1      11.486   9.066  16.256  0.00  0.00    +0.009 C 
ATOM     27  C   UNL     1      13.912   9.393  15.744  0.00  0.00    +0.009 C 
ENDBRANCH  24  25
ENDBRANCH   1  24
ENDBRANCH   8   1
ENDBRANCH  21   8
TORSDOF 9
ENDMDL
MODEL 7
REMARK VINA RESULT:      -6.2     31.043     33.639
REMARK  Name = 71693345
REMARK  13 active torsions:
REMARK  status: ('A' for Active; 'I' for Inactive)
REMARK    1  A    between atoms: S_1  and  N_8
REMARK    2  A    between atoms: S_1  and  C_24
REMARK    3  A    between atoms: O_3  and  C_13
REMARK    4  A    between atoms: N_7  and  C_11
REMARK    5  A    between atoms: N_8  and  C_21
REMARK    6  A    between atoms: C_9  and  C_13
REMARK    7  A    between atoms: C_10  and  C_14
REMARK    8  A    between atoms: C_11  and  C_12
REMARK    9  A    between atoms: C_12  and  C_17
REMARK   10  A    between atoms: C_12  and  C_18
REMARK   11  A    between atoms: C_24  and  C_25
REMARK   12  A    between atoms: C_25  and  C_26
REMARK   13  A    between atoms: C_25  and  C_27
REMARK                            x       y       z     vdW  Elec       q    Type
REMARK                         _______ _______ _______ _____ _____    ______ ____
ROOT
ATOM     14  C   UNL     1     -14.350   4.914  33.494  0.00  0.00    -0.017 A 
ATOM     19  C   UNL     1     -13.331   4.254  32.808  0.00  0.00    +0.008 A 
ATOM     20  C   UNL     1     -15.575   4.282  33.701  0.00  0.00    +0.008 A 
ATOM     21  C   UNL     1     -14.763   2.326  32.538  0.00  0.00    +0.048 A 
ATOM     22  C   UNL     1     -13.537   2.960  32.330  0.00  0.00    +0.025 A 
ATOM     23  C   UNL     1     -15.782   2.988  33.223  0.00  0.00    +0.025 A 
ENDROOT
BRANCH  14  10
ATOM      2  O   UNL     1     -13.166   6.228  35.067  0.00  0.00    -0.361 OA
ATOM      4  O   UNL     1     -12.302   9.660  35.471  0.00  0.00    -0.273 OA
ATOM      7  N   UNL     1     -13.152   8.577  33.590  0.00  0.00    -0.291 N 
ATOM      9  C   UNL     1     -13.583   7.305  32.961  0.00  0.00    +0.135 C 
ATOM     10  C   UNL     1     -14.126   6.319  34.013  0.00  0.00    +0.171 C 
ATOM     15  C   UNL     1     -12.787   8.661  34.935  0.00  0.00    +0.242 C 
ATOM     16  C   UNL     1     -13.087   7.439  35.779  0.00  0.00    +0.256 C 
BRANCH   7  11
ATOM     11  C   UNL     1     -12.872   9.715  32.718  0.00  0.00    +0.111 C 
BRANCH  11  12
ATOM     12  C   UNL     1     -11.560   9.547  31.943  0.00  0.00    +0.000 C 
ATOM     17  C   UNL     1     -10.504  10.510  32.486  0.00  0.00    +0.009 C 
ATOM     18  C   UNL     1     -11.757   9.782  30.444  0.00  0.00    +0.009 C 
ENDBRANCH  11  12
ENDBRANCH   7  11
BRANCH   9  13
ATOM     13  C   UNL     1     -14.612   7.522  31.842  0.00  0.00    +0.181 C 
BRANCH  13   3
ATOM      3  O   UNL     1     -15.848   7.857  32.438  0.00  0.00    -0.393 OA
ATOM     28  H   UNL     1     -15.948   7.299  33.227  0.00  0.00    +0.209 HD
ENDBRANCH  13   3
ENDBRANCH   9  13
ENDBRANCH  14  10
BRANCH  21   8
ATOM      8  N   UNL     1     -14.974   1.002  32.049  0.00  0.00    -0.221 N 
ATOM     29  H   UNL     1     -14.520   0.271  32.614  0.00  0.00    +0.173 HD
BRANCH   8   1
ATOM      1  S   UNL     1     -14.929   0.746  30.346  0.00  0.00    +0.043 S 
ATOM      5  O   UNL     1     -13.636   1.181  29.850  0.00  0.00    -0.155 OA
ATOM      6  O   UNL     1     -15.445  -0.565  30.006  0.00  0.00    -0.155 OA
BRANCH   1  24
ATOM     24  C   UNL     1     -16.119   1.956  29.814  0.00  0.00    +0.191 C 
BRANCH  24  25
ATOM     25  C   UNL     1     -15.485   3.122  29.054  0.00  0.00    +0.006 C 
ATOM     26  C   UNL     1     -15.776   4.467  29.722  0.00  0.00    +0.009 C 
ATOM     27  C   UNL     1     -16.000   3.141  27.613  0.00  0.00    +0.009 C 
ENDBRANCH  24  25
ENDBRANCH   1  24
ENDBRANCH   8   1
ENDBRANCH  21   8
TORSDOF 9
ENDMDL
MODEL 8
REMARK VINA RESULT:      -6.1      2.799      8.646
REMARK  Name = 71693345
REMARK  13 active torsions:
REMARK  status: ('A' for Active; 'I' for Inactive)
REMARK    1  A    between atoms: S_1  and  N_8
REMARK    2  A    between atoms: S_1  and  C_24
REMARK    3  A    between atoms: O_3  and  C_13
REMARK    4  A    between atoms: N_7  and  C_11
REMARK    5  A    between atoms: N_8  and  C_21
REMARK    6  A    between atoms: C_9  and  C_13
REMARK    7  A    between atoms: C_10  and  C_14
REMARK    8  A    between atoms: C_11  and  C_12
REMARK    9  A    between atoms: C_12  and  C_17
REMARK   10  A    between atoms: C_12  and  C_18
REMARK   11  A    between atoms: C_24  and  C_25
REMARK   12  A    between atoms: C_25  and  C_26
REMARK   13  A    between atoms: C_25  and  C_27
REMARK                            x       y       z     vdW  Elec       q    Type
REMARK                         _______ _______ _______ _____ _____    ______ ____
ROOT
ATOM     14  C   UNL     1      18.465   6.869  20.581  0.00  0.00    -0.017 A 
ATOM     19  C   UNL     1      17.562   7.287  21.558  0.00  0.00    +0.008 A 
ATOM     20  C   UNL     1      18.005   6.210  19.440  0.00  0.00    +0.008 A 
ATOM     21  C   UNL     1      15.736   6.388  20.253  0.00  0.00    +0.048 A 
ATOM     22  C   UNL     1      16.197   7.046  21.393  0.00  0.00    +0.025 A 
ATOM     23  C   UNL     1      16.641   5.969  19.277  0.00  0.00    +0.025 A 
ENDROOT
BRANCH  14  10
ATOM      2  O   UNL     1      20.072   8.374  21.448  0.00  0.00    -0.361 OA
ATOM      4  O   UNL     1      23.508   8.263  22.384  0.00  0.00    -0.273 OA
ATOM      7  N   UNL     1      22.059   6.495  21.924  0.00  0.00    -0.291 N 
ATOM      9  C   UNL     1      20.686   6.055  21.577  0.00  0.00    +0.135 C 
ATOM     10  C   UNL     1      19.946   7.130  20.757  0.00  0.00    +0.171 C 
ATOM     15  C   UNL     1      22.421   7.843  21.980  0.00  0.00    +0.242 C 
ATOM     16  C   UNL     1      21.405   8.824  21.431  0.00  0.00    +0.256 C 
BRANCH   7  11
ATOM     11  C   UNL     1      22.987   5.500  22.454  0.00  0.00    +0.111 C 
BRANCH  11  12
ATOM     12  C   UNL     1      22.570   4.995  23.840  0.00  0.00    +0.000 C 
ATOM     17  C   UNL     1      23.330   5.757  24.926  0.00  0.00    +0.009 C 
ATOM     18  C   UNL     1      22.816   3.492  23.990  0.00  0.00    +0.009 C 
ENDBRANCH  11  12
ENDBRANCH   7  11
BRANCH   9  13
ATOM     13  C   UNL     1      20.669   4.708  20.840  0.00  0.00    +0.181 C 
BRANCH  13   3
ATOM      3  O   UNL     1      21.312   4.878  19.594  0.00  0.00    -0.393 OA
ATOM     28  H   UNL     1      21.144   4.077  19.072  0.00  0.00    +0.209 HD
ENDBRANCH  13   3
ENDBRANCH   9  13
ENDBRANCH  14  10
BRANCH  21   8
ATOM      8  N   UNL     1      14.341   6.142  20.086  0.00  0.00    -0.221 N 
ATOM     29  H   UNL     1      14.126   5.262  19.598  0.00  0.00    +0.173 HD
BRANCH   8   1
ATOM      1  S   UNL     1      13.324   7.471  19.679  0.00  0.00    +0.043 S 
ATOM      5  O   UNL     1      12.282   6.997  18.787  0.00  0.00    -0.155 OA
ATOM      6  O   UNL     1      12.988   8.246  20.857  0.00  0.00    -0.155 OA
BRANCH   1  24
ATOM     24  C   UNL     1      14.447   8.437  18.692  0.00  0.00    +0.191 C 
BRANCH  24  25
ATOM     25  C   UNL     1      14.436   9.922  19.058  0.00  0.00    +0.006 C 
ATOM     26  C   UNL     1      14.199  10.810  17.836  0.00  0.00    +0.009 C 
ATOM     27  C   UNL     1      15.762  10.300  19.721  0.00  0.00    +0.009 C 
ENDBRANCH  24  25
ENDBRANCH   1  24
ENDBRANCH   8   1
ENDBRANCH  21   8
TORSDOF 9
ENDMDL
MODEL 9
REMARK VINA RESULT:      -6.1     27.109     30.400
REMARK  Name = 71693345
REMARK  13 active torsions:
REMARK  status: ('A' for Active; 'I' for Inactive)
REMARK    1  A    between atoms: S_1  and  N_8
REMARK    2  A    between atoms: S_1  and  C_24
REMARK    3  A    between atoms: O_3  and  C_13
REMARK    4  A    between atoms: N_7  and  C_11
REMARK    5  A    between atoms: N_8  and  C_21
REMARK    6  A    between atoms: C_9  and  C_13
REMARK    7  A    between atoms: C_10  and  C_14
REMARK    8  A    between atoms: C_11  and  C_12
REMARK    9  A    between atoms: C_12  and  C_17
REMARK   10  A    between atoms: C_12  and  C_18
REMARK   11  A    between atoms: C_24  and  C_25
REMARK   12  A    between atoms: C_25  and  C_26
REMARK   13  A    between atoms: C_25  and  C_27
REMARK                            x       y       z     vdW  Elec       q    Type
REMARK                         _______ _______ _______ _____ _____    ______ ____
ROOT
ATOM     14  C   UNL     1      -3.928 -10.515  11.195  0.00  0.00    -0.017 A 
ATOM     19  C   UNL     1      -3.927 -11.390  10.109  0.00  0.00    +0.008 A 
ATOM     20  C   UNL     1      -4.435  -9.224  11.051  0.00  0.00    +0.008 A 
ATOM     21  C   UNL     1      -4.943  -9.682   8.733  0.00  0.00    +0.048 A 
ATOM     22  C   UNL     1      -4.435 -10.974   8.879  0.00  0.00    +0.025 A 
ATOM     23  C   UNL     1      -4.942  -8.807   9.820  0.00  0.00    +0.025 A 
ENDROOT
BRANCH  14  10
ATOM      2  O   UNL     1      -2.354 -10.039  12.898  0.00  0.00    -0.361 OA
ATOM      4  O   UNL     1      -1.885 -10.896  16.324  0.00  0.00    -0.273 OA
ATOM      7  N   UNL     1      -3.769 -11.199  14.986  0.00  0.00    -0.291 N 
ATOM      9  C   UNL     1      -4.419 -10.997  13.668  0.00  0.00    +0.135 C 
ATOM     10  C   UNL     1      -3.378 -10.966  12.532  0.00  0.00    +0.171 C 
ATOM     15  C   UNL     1      -2.433 -10.867  15.220  0.00  0.00    +0.242 C 
ATOM     16  C   UNL     1      -1.614 -10.518  13.994  0.00  0.00    +0.256 C 
BRANCH   7  11
ATOM     11  C   UNL     1      -4.618 -11.527  16.128  0.00  0.00    +0.111 C 
BRANCH  11  12
ATOM     12  C   UNL     1      -4.998 -10.288  16.947  0.00  0.00    +0.000 C 
ATOM     17  C   UNL     1      -5.188 -10.669  18.415  0.00  0.00    +0.009 C 
ATOM     18  C   UNL     1      -6.270  -9.627  16.412  0.00  0.00    +0.009 C 
ENDBRANCH  11  12
ENDBRANCH   7  11
BRANCH   9  13
ATOM     13  C   UNL     1      -5.502 -12.047  13.379  0.00  0.00    +0.181 C 
BRANCH  13   3
ATOM      3  O   UNL     1      -6.743 -11.382  13.271  0.00  0.00    -0.393 OA
ATOM     28  H   UNL     1      -6.930 -10.978  14.134  0.00  0.00    +0.209 HD
ENDBRANCH  13   3
ENDBRANCH   9  13
ENDBRANCH  14  10
BRANCH  21   8
ATOM      8  N   UNL     1      -5.462  -9.257   7.474  0.00  0.00    -0.221 N 
ATOM     29  H   UNL     1      -5.265  -8.272   7.252  0.00  0.00    +0.173 HD
BRANCH   8   1
ATOM      1  S   UNL     1      -7.024  -9.815   7.007  0.00  0.00    +0.043 S 
ATOM      5  O   UNL     1      -6.860 -10.852   6.005  0.00  0.00    -0.155 OA
ATOM      6  O   UNL     1      -7.862 -10.038   8.168  0.00  0.00    -0.155 OA
BRANCH   1  24
ATOM     24  C   UNL     1      -7.633  -8.373   6.162  0.00  0.00    +0.191 C 
BRANCH  24  25
ATOM     25  C   UNL     1      -8.739  -7.652   6.934  0.00  0.00    +0.006 C 
ATOM     26  C   UNL     1      -9.831  -7.118   6.006  0.00  0.00    +0.009 C 
ATOM     27  C   UNL     1      -8.139  -6.499   7.741  0.00  0.00    +0.009 C 
ENDBRANCH  24  25
ENDBRANCH   1  24
ENDBRANCH   8   1
ENDBRANCH  21   8
TORSDOF 9
ENDMDL
MODEL 10
REMARK VINA RESULT:      -6.0     16.181     20.023
REMARK  Name = 71693345
REMARK  13 active torsions:
REMARK  status: ('A' for Active; 'I' for Inactive)
REMARK    1  A    between atoms: S_1  and  N_8
REMARK    2  A    between atoms: S_1  and  C_24
REMARK    3  A    between atoms: O_3  and  C_13
REMARK    4  A    between atoms: N_7  and  C_11
REMARK    5  A    between atoms: N_8  and  C_21
REMARK    6  A    between atoms: C_9  and  C_13
REMARK    7  A    between atoms: C_10  and  C_14
REMARK    8  A    between atoms: C_11  and  C_12
REMARK    9  A    between atoms: C_12  and  C_17
REMARK   10  A    between atoms: C_12  and  C_18
REMARK   11  A    between atoms: C_24  and  C_25
REMARK   12  A    between atoms: C_25  and  C_26
REMARK   13  A    between atoms: C_25  and  C_27
REMARK                            x       y       z     vdW  Elec       q    Type
REMARK                         _______ _______ _______ _____ _____    ______ ____
ROOT
ATOM     14  C   UNL     1      10.704   5.231   2.469  0.00  0.00    -0.017 A 
ATOM     19  C   UNL     1      10.731   4.427   3.608  0.00  0.00    +0.008 A 
ATOM     20  C   UNL     1      10.056   6.466   2.501  0.00  0.00    +0.008 A 
ATOM     21  C   UNL     1       9.461   6.094   4.813  0.00  0.00    +0.048 A 
ATOM     22  C   UNL     1      10.110   4.859   4.781  0.00  0.00    +0.025 A 
ATOM     23  C   UNL     1       9.434   6.897   3.673  0.00  0.00    +0.025 A 
ENDROOT
BRANCH  14  10
ATOM      2  O   UNL     1      10.413   4.866   0.149  0.00  0.00    -0.361 OA
ATOM      4  O   UNL     1      12.503   4.495  -2.712  0.00  0.00    -0.273 OA
ATOM      7  N   UNL     1      13.064   5.250  -0.579  0.00  0.00    -0.291 N 
ATOM      9  C   UNL     1      12.610   5.597   0.789  0.00  0.00    +0.135 C 
ATOM     10  C   UNL     1      11.379   4.764   1.196  0.00  0.00    +0.171 C 
ATOM     15  C   UNL     1      12.211   4.683  -1.529  0.00  0.00    +0.242 C 
ATOM     16  C   UNL     1      10.865   4.216  -1.014  0.00  0.00    +0.256 C 
BRANCH   7  11
ATOM     11  C   UNL     1      14.369   5.738  -1.015  0.00  0.00    +0.111 C 
BRANCH  11  12
ATOM     12  C   UNL     1      15.270   4.611  -1.533  0.00  0.00    +0.000 C 
ATOM     17  C   UNL     1      16.272   4.203  -0.453  0.00  0.00    +0.009 C 
ATOM     18  C   UNL     1      16.014   5.024  -2.805  0.00  0.00    +0.009 C 
ENDBRANCH  11  12
ENDBRANCH   7  11
BRANCH   9  13
ATOM     13  C   UNL     1      13.727   5.454   1.833  0.00  0.00    +0.181 C 
BRANCH  13   3
ATOM      3  O   UNL     1      13.918   4.079   2.090  0.00  0.00    -0.393 OA
ATOM     28  H   UNL     1      14.739   3.814   1.645  0.00  0.00    +0.209 HD
ENDBRANCH  13   3
ENDBRANCH   9  13
ENDBRANCH  14  10
BRANCH  21   8
ATOM      8  N   UNL     1       8.827   6.535   6.013  0.00  0.00    -0.221 N 
ATOM     29  H   UNL     1       7.844   6.816   5.887  0.00  0.00    +0.173 HD
BRANCH   8   1
ATOM      1  S   UNL     1       9.734   7.513   7.102  0.00  0.00    +0.043 S 
ATOM      5  O   UNL     1      10.901   8.019   6.403  0.00  0.00    -0.155 OA
ATOM      6  O   UNL     1       8.867   8.413   7.836  0.00  0.00    -0.155 OA
BRANCH   1  24
ATOM     24  C   UNL     1      10.313   6.268   8.235  0.00  0.00    +0.191 C 
BRANCH  24  25
ATOM     25  C   UNL     1       9.266   5.191   8.522  0.00  0.00    +0.006 C 
ATOM     26  C   UNL     1       8.914   5.117  10.009  0.00  0.00    +0.009 C 
ATOM     27  C   UNL     1       9.779   3.830   8.046  0.00  0.00    +0.009 C 
ENDBRANCH  24  25
ENDBRANCH   1  24
ENDBRANCH   8   1
ENDBRANCH  21   8
TORSDOF 9
ENDMDL
