MODEL 1
REMARK VINA RESULT:      -7.1      0.000      0.000
REMARK  Name = 51137841
REMARK  7 active torsions:
REMARK  status: ('A' for Active; 'I' for Inactive)
REMARK    1  A    between atoms: O_3  and  C_20
REMARK    2  A    between atoms: O_3  and  C_26
REMARK    3  A    between atoms: O_4  and  C_22
REMARK    4  A    between atoms: O_4  and  C_28
REMARK    5  A    between atoms: C_9  and  C_13
REMARK    6  A    between atoms: C_14  and  C_15
REMARK    7  A    between atoms: C_16  and  C_19
REMARK                            x       y       z     vdW  Elec       q    Type
REMARK                         _______ _______ _______ _____ _____    ______ ____
ROOT
ATOM      2  O   UNL     1      15.229   6.752  18.168  0.00  0.00    -0.270 OA
ATOM      5  N   UNL     1      14.079   7.037  20.165  0.00  0.00    -0.297 N 
ATOM      9  C   UNL     1      12.529   7.723  21.836  0.00  0.00    +0.095 C 
ATOM     10  C   UNL     1      11.814   6.842  20.799  0.00  0.00    +0.033 C 
ATOM     11  C   UNL     1      14.002   7.372  21.589  0.00  0.00    +0.121 C 
ATOM     12  C   UNL     1      12.752   6.857  19.599  0.00  0.00    +0.109 C 
ATOM     14  C   UNL     1      15.218   6.965  19.379  0.00  0.00    +0.247 C 
ENDROOT
BRANCH  14  15
ATOM     15  C   UNL     1      16.515   7.176  20.040  0.00  0.00    +0.041 A 
ATOM     17  C   UNL     1      16.795   8.397  20.654  0.00  0.00    +0.062 A 
ATOM     18  C   UNL     1      17.466   6.155  20.053  0.00  0.00    +0.017 A 
ATOM     20  C   UNL     1      18.026   8.596  21.281  0.00  0.00    +0.162 A 
ATOM     21  C   UNL     1      18.695   6.354  20.680  0.00  0.00    +0.050 A 
ATOM     22  C   UNL     1      18.975   7.576  21.293  0.00  0.00    +0.162 A 
BRANCH  20   3
ATOM      3  O   UNL     1      18.286   9.793  21.877  0.00  0.00    -0.491 OA
ATOM     26  C   UNL     1      18.566  10.898  21.019  0.00  0.00    +0.277 C 
ENDBRANCH  20   3
BRANCH  22   4
ATOM      4  O   UNL     1      20.180   7.758  21.903  0.00  0.00    -0.491 OA
ATOM     28  C   UNL     1      21.338   7.736  21.070  0.00  0.00    +0.277 C 
ENDBRANCH  22   4
ENDBRANCH  14  15
BRANCH   9  13
ATOM      1  O   UNL     1      11.765   9.838  22.822  0.00  0.00    -0.420 OA
ATOM      6  N   UNL     1      12.121   9.939  20.615  0.00  0.00    -0.112 NA
ATOM      7  N   UNL     1      11.697  11.185  21.037  0.00  0.00    -0.107 NA
ATOM     13  C   UNL     1      12.145   9.185  21.690  0.00  0.00    +0.222 A 
ATOM     16  C   UNL     1      11.501  11.080  22.330  0.00  0.00    +0.250 A 
BRANCH  16  19
ATOM      8  N   UNL     1      10.600  12.618  25.593  0.00  0.00    -0.263 NA
ATOM     19  C   UNL     1      11.062  12.053  23.289  0.00  0.00    +0.057 A 
ATOM     23  C   UNL     1      10.681  13.329  22.891  0.00  0.00    +0.016 A 
ATOM     24  C   UNL     1      11.004  11.749  24.639  0.00  0.00    +0.124 A 
ATOM     25  C   UNL     1      10.259  14.250  23.844  0.00  0.00    +0.020 A 
ATOM     27  C   UNL     1      10.237  13.849  25.170  0.00  0.00    +0.111 A 
ENDBRANCH  16  19
ENDBRANCH   9  13
TORSDOF 5
ENDMDL
MODEL 2
REMARK VINA RESULT:      -7.1      3.716      7.977
REMARK  Name = 51137841
REMARK  7 active torsions:
REMARK  status: ('A' for Active; 'I' for Inactive)
REMARK    1  A    between atoms: O_3  and  C_20
REMARK    2  A    between atoms: O_3  and  C_26
REMARK    3  A    between atoms: O_4  and  C_22
REMARK    4  A    between atoms: O_4  and  C_28
REMARK    5  A    between atoms: C_9  and  C_13
REMARK    6  A    between atoms: C_14  and  C_15
REMARK    7  A    between atoms: C_16  and  C_19
REMARK                            x       y       z     vdW  Elec       q    Type
REMARK                         _______ _______ _______ _____ _____    ______ ____
ROOT
ATOM      2  O   UNL     1      14.133  10.669  23.026  0.00  0.00    -0.270 OA
ATOM      5  N   UNL     1      12.574   9.389  21.875  0.00  0.00    -0.297 N 
ATOM      9  C   UNL     1      11.511   7.893  20.360  0.00  0.00    +0.095 C 
ATOM     10  C   UNL     1      12.416   7.102  21.319  0.00  0.00    +0.033 C 
ATOM     11  C   UNL     1      11.336   9.219  21.112  0.00  0.00    +0.121 C 
ATOM     12  C   UNL     1      13.347   8.158  21.897  0.00  0.00    +0.109 C 
ATOM     14  C   UNL     1      13.050  10.555  22.455  0.00  0.00    +0.247 C 
ENDROOT
BRANCH  14  15
ATOM     15  C   UNL     1      12.202  11.754  22.369  0.00  0.00    +0.041 A 
ATOM     17  C   UNL     1      11.442  12.151  23.470  0.00  0.00    +0.062 A 
ATOM     18  C   UNL     1      12.158  12.494  21.187  0.00  0.00    +0.017 A 
ATOM     20  C   UNL     1      10.639  13.288  23.388  0.00  0.00    +0.162 A 
ATOM     21  C   UNL     1      11.355  13.631  21.106  0.00  0.00    +0.050 A 
ATOM     22  C   UNL     1      10.594  14.027  22.207  0.00  0.00    +0.162 A 
BRANCH  20   3
ATOM      3  O   UNL     1       9.902  13.665  24.470  0.00  0.00    -0.491 OA
ATOM     26  C   UNL     1      10.579  13.737  25.723  0.00  0.00    +0.277 C 
ENDBRANCH  20   3
BRANCH  22   4
ATOM      4  O   UNL     1       9.814  15.141  22.115  0.00  0.00    -0.491 OA
ATOM     28  C   UNL     1       8.589  15.016  21.395  0.00  0.00    +0.277 C 
ENDBRANCH  22   4
ENDBRANCH  14  15
BRANCH   9  13
ATOM      1  O   UNL     1      12.724   9.142  18.629  0.00  0.00    -0.420 OA
ATOM      6  N   UNL     1      12.126   7.077  18.010  0.00  0.00    -0.112 NA
ATOM      7  N   UNL     1      12.794   7.663  16.952  0.00  0.00    -0.107 NA
ATOM     13  C   UNL     1      12.109   7.976  18.966  0.00  0.00    +0.222 A 
ATOM     16  C   UNL     1      13.124   8.867  17.357  0.00  0.00    +0.250 A 
BRANCH  16  19
ATOM      8  N   UNL     1      15.065  10.657  14.740  0.00  0.00    -0.263 NA
ATOM     19  C   UNL     1      13.829   9.918  16.681  0.00  0.00    +0.057 A 
ATOM     23  C   UNL     1      13.971  11.174  17.259  0.00  0.00    +0.016 A 
ATOM     24  C   UNL     1      14.390   9.711  15.431  0.00  0.00    +0.124 A 
ATOM     25  C   UNL     1      14.660  12.172  16.579  0.00  0.00    +0.020 A 
ATOM     27  C   UNL     1      15.184  11.865  15.333  0.00  0.00    +0.111 A 
ENDBRANCH  16  19
ENDBRANCH   9  13
TORSDOF 5
ENDMDL
MODEL 3
REMARK VINA RESULT:      -6.9      1.603      2.230
REMARK  Name = 51137841
REMARK  7 active torsions:
REMARK  status: ('A' for Active; 'I' for Inactive)
REMARK    1  A    between atoms: O_3  and  C_20
REMARK    2  A    between atoms: O_3  and  C_26
REMARK    3  A    between atoms: O_4  and  C_22
REMARK    4  A    between atoms: O_4  and  C_28
REMARK    5  A    between atoms: C_9  and  C_13
REMARK    6  A    between atoms: C_14  and  C_15
REMARK    7  A    between atoms: C_16  and  C_19
REMARK                            x       y       z     vdW  Elec       q    Type
REMARK                         _______ _______ _______ _____ _____    ______ ____
ROOT
ATOM      2  O   UNL     1      14.887   7.511  17.845  0.00  0.00    -0.270 OA
ATOM      5  N   UNL     1      13.774   7.069  19.835  0.00  0.00    -0.297 N 
ATOM      9  C   UNL     1      12.239   7.094  21.653  0.00  0.00    +0.095 C 
ATOM     10  C   UNL     1      11.534   6.575  20.389  0.00  0.00    +0.033 C 
ATOM     11  C   UNL     1      13.718   6.910  21.290  0.00  0.00    +0.121 C 
ATOM     12  C   UNL     1      12.442   7.027  19.254  0.00  0.00    +0.109 C 
ATOM     14  C   UNL     1      14.896   7.312  19.059  0.00  0.00    +0.247 C 
ENDROOT
BRANCH  14  15
ATOM     15  C   UNL     1      16.200   7.349  19.739  0.00  0.00    +0.041 A 
ATOM     17  C   UNL     1      16.572   8.477  20.471  0.00  0.00    +0.062 A 
ATOM     18  C   UNL     1      17.063   6.257  19.654  0.00  0.00    +0.017 A 
ATOM     20  C   UNL     1      17.808   8.512  21.117  0.00  0.00    +0.162 A 
ATOM     21  C   UNL     1      18.298   6.293  20.300  0.00  0.00    +0.050 A 
ATOM     22  C   UNL     1      18.671   7.421  21.031  0.00  0.00    +0.162 A 
BRANCH  20   3
ATOM      3  O   UNL     1      18.159   9.620  21.829  0.00  0.00    -0.491 OA
ATOM     26  C   UNL     1      18.648  10.738  21.090  0.00  0.00    +0.277 C 
ENDBRANCH  20   3
BRANCH  22   4
ATOM      4  O   UNL     1      19.881   7.443  21.659  0.00  0.00    -0.491 OA
ATOM     28  C   UNL     1      21.039   7.524  20.830  0.00  0.00    +0.277 C 
ENDBRANCH  22   4
ENDBRANCH  14  15
BRANCH   9  13
ATOM      1  O   UNL     1      12.213   9.503  21.179  0.00  0.00    -0.420 OA
ATOM      6  N   UNL     1      11.052   8.922  23.002  0.00  0.00    -0.112 NA
ATOM      7  N   UNL     1      10.956  10.293  22.852  0.00  0.00    -0.107 NA
ATOM     13  C   UNL     1      11.795   8.503  22.003  0.00  0.00    +0.222 A 
ATOM     16  C   UNL     1      11.648  10.587  21.777  0.00  0.00    +0.250 A 
BRANCH  16  19
ATOM      8  N   UNL     1      13.119  13.131  19.499  0.00  0.00    -0.263 NA
ATOM     19  C   UNL     1      11.896  11.851  21.145  0.00  0.00    +0.057 A 
ATOM     23  C   UNL     1      11.199  12.992  21.526  0.00  0.00    +0.016 A 
ATOM     24  C   UNL     1      12.838  11.972  20.136  0.00  0.00    +0.124 A 
ATOM     25  C   UNL     1      11.462  14.203  20.895  0.00  0.00    +0.020 A 
ATOM     27  C   UNL     1      12.423  14.219  19.897  0.00  0.00    +0.111 A 
ENDBRANCH  16  19
ENDBRANCH   9  13
TORSDOF 5
ENDMDL
MODEL 4
REMARK VINA RESULT:      -6.7     28.439     29.753
REMARK  Name = 51137841
REMARK  7 active torsions:
REMARK  status: ('A' for Active; 'I' for Inactive)
REMARK    1  A    between atoms: O_3  and  C_20
REMARK    2  A    between atoms: O_3  and  C_26
REMARK    3  A    between atoms: O_4  and  C_22
REMARK    4  A    between atoms: O_4  and  C_28
REMARK    5  A    between atoms: C_9  and  C_13
REMARK    6  A    between atoms: C_14  and  C_15
REMARK    7  A    between atoms: C_16  and  C_19
REMARK                            x       y       z     vdW  Elec       q    Type
REMARK                         _______ _______ _______ _____ _____    ______ ____
ROOT
ATOM      2  O   UNL     1      -4.476 -14.016  15.542  0.00  0.00    -0.270 OA
ATOM      5  N   UNL     1      -4.621 -12.201  16.983  0.00  0.00    -0.297 N 
ATOM      9  C   UNL     1      -5.248 -10.706  18.725  0.00  0.00    +0.095 C 
ATOM     10  C   UNL     1      -4.599 -11.961  19.330  0.00  0.00    +0.033 C 
ATOM     11  C   UNL     1      -4.770 -10.773  17.268  0.00  0.00    +0.121 C 
ATOM     12  C   UNL     1      -4.668 -12.986  18.206  0.00  0.00    +0.109 C 
ATOM     14  C   UNL     1      -4.527 -12.804  15.739  0.00  0.00    +0.247 C 
ENDROOT
BRANCH  14  15
ATOM     15  C   UNL     1      -4.501 -11.927  14.558  0.00  0.00    +0.041 A 
ATOM     17  C   UNL     1      -5.689 -11.610  13.898  0.00  0.00    +0.062 A 
ATOM     18  C   UNL     1      -3.289 -11.411  14.098  0.00  0.00    +0.017 A 
ATOM     20  C   UNL     1      -5.664 -10.778  12.778  0.00  0.00    +0.162 A 
ATOM     21  C   UNL     1      -3.265 -10.579  12.979  0.00  0.00    +0.050 A 
ATOM     22  C   UNL     1      -4.452 -10.264  12.319  0.00  0.00    +0.162 A 
BRANCH  20   3
ATOM      3  O   UNL     1      -6.831 -10.477  12.143  0.00  0.00    -0.491 OA
ATOM     26  C   UNL     1      -7.745  -9.627  12.833  0.00  0.00    +0.277 C 
ENDBRANCH  20   3
BRANCH  22   4
ATOM      4  O   UNL     1      -4.415  -9.449  11.227  0.00  0.00    -0.491 OA
ATOM     28  C   UNL     1      -3.221  -9.466  10.446  0.00  0.00    +0.277 C 
ENDBRANCH  22   4
ENDBRANCH  14  15
BRANCH   9  13
ATOM      1  O   UNL     1      -7.485  -9.886  18.131  0.00  0.00    -0.420 OA
ATOM      6  N   UNL     1      -7.473 -11.347  19.826  0.00  0.00    -0.112 NA
ATOM      7  N   UNL     1      -8.782 -10.969  19.597  0.00  0.00    -0.107 NA
ATOM     13  C   UNL     1      -6.751 -10.690  18.947  0.00  0.00    +0.222 A 
ATOM     16  C   UNL     1      -8.742 -10.116  18.601  0.00  0.00    +0.250 A 
BRANCH  16  19
ATOM      8  N   UNL     1     -10.480  -7.541  16.559  0.00  0.00    -0.263 NA
ATOM     19  C   UNL     1      -9.798  -9.402  17.942  0.00  0.00    +0.057 A 
ATOM     23  C   UNL     1     -11.116  -9.835  18.024  0.00  0.00    +0.016 A 
ATOM     24  C   UNL     1      -9.534  -8.259  17.204  0.00  0.00    +0.124 A 
ATOM     25  C   UNL     1     -12.117  -9.122  17.374  0.00  0.00    +0.020 A 
ATOM     27  C   UNL     1     -11.750  -7.991  16.661  0.00  0.00    +0.111 A 
ENDBRANCH  16  19
ENDBRANCH   9  13
TORSDOF 5
ENDMDL
MODEL 5
REMARK VINA RESULT:      -6.5      3.764      4.796
REMARK  Name = 51137841
REMARK  7 active torsions:
REMARK  status: ('A' for Active; 'I' for Inactive)
REMARK    1  A    between atoms: O_3  and  C_20
REMARK    2  A    between atoms: O_3  and  C_26
REMARK    3  A    between atoms: O_4  and  C_22
REMARK    4  A    between atoms: O_4  and  C_28
REMARK    5  A    between atoms: C_9  and  C_13
REMARK    6  A    between atoms: C_14  and  C_15
REMARK    7  A    between atoms: C_16  and  C_19
REMARK                            x       y       z     vdW  Elec       q    Type
REMARK                         _______ _______ _______ _____ _____    ______ ____
ROOT
ATOM      2  O   UNL     1      12.587   8.313  16.514  0.00  0.00    -0.270 OA
ATOM      5  N   UNL     1      13.497   8.297  18.651  0.00  0.00    -0.297 N 
ATOM      9  C   UNL     1      13.820   8.092  21.000  0.00  0.00    +0.095 C 
ATOM     10  C   UNL     1      13.584   6.702  20.387  0.00  0.00    +0.033 C 
ATOM     11  C   UNL     1      14.211   8.920  19.768  0.00  0.00    +0.121 C 
ATOM     12  C   UNL     1      12.959   7.002  19.032  0.00  0.00    +0.109 C 
ATOM     14  C   UNL     1      13.255   8.843  17.400  0.00  0.00    +0.247 C 
ENDROOT
BRANCH  14  15
ATOM     15  C   UNL     1      13.830  10.166  17.112  0.00  0.00    +0.041 A 
ATOM     17  C   UNL     1      14.733  10.321  16.059  0.00  0.00    +0.062 A 
ATOM     18  C   UNL     1      13.473  11.267  17.891  0.00  0.00    +0.017 A 
ATOM     20  C   UNL     1      15.278  11.576  15.786  0.00  0.00    +0.162 A 
ATOM     21  C   UNL     1      14.017  12.521  17.617  0.00  0.00    +0.050 A 
ATOM     22  C   UNL     1      14.920  12.675  16.565  0.00  0.00    +0.162 A 
BRANCH  20   3
ATOM      3  O   UNL     1      16.158  11.713  14.755  0.00  0.00    -0.491 OA
ATOM     26  C   UNL     1      15.609  11.830  13.444  0.00  0.00    +0.277 C 
ENDBRANCH  20   3
BRANCH  22   4
ATOM      4  O   UNL     1      15.445  13.907  16.308  0.00  0.00    -0.491 OA
ATOM     28  C   UNL     1      16.497  14.354  17.161  0.00  0.00    +0.277 C 
ENDBRANCH  22   4
ENDBRANCH  14  15
BRANCH   9  13
ATOM      1  O   UNL     1      12.622   9.865  22.205  0.00  0.00    -0.420 OA
ATOM      6  N   UNL     1      11.525   7.916  22.129  0.00  0.00    -0.112 NA
ATOM      7  N   UNL     1      10.747   8.818  22.830  0.00  0.00    -0.107 NA
ATOM     13  C   UNL     1      12.610   8.571  21.783  0.00  0.00    +0.222 A 
ATOM     16  C   UNL     1      11.426   9.940  22.850  0.00  0.00    +0.250 A 
BRANCH  16  19
ATOM      8  N   UNL     1      10.629  12.510  25.416  0.00  0.00    -0.263 NA
ATOM     19  C   UNL     1      11.108  11.212  23.434  0.00  0.00    +0.057 A 
ATOM     23  C   UNL     1      10.970  12.349  22.646  0.00  0.00    +0.016 A 
ATOM     24  C   UNL     1      10.929  11.344  24.802  0.00  0.00    +0.124 A 
ATOM     25  C   UNL     1      10.662  13.566  23.242  0.00  0.00    +0.020 A 
ATOM     27  C   UNL     1      10.503  13.594  24.618  0.00  0.00    +0.111 A 
ENDBRANCH  16  19
ENDBRANCH   9  13
TORSDOF 5
ENDMDL
MODEL 6
REMARK VINA RESULT:      -6.5     27.569     29.634
REMARK  Name = 51137841
REMARK  7 active torsions:
REMARK  status: ('A' for Active; 'I' for Inactive)
REMARK    1  A    between atoms: O_3  and  C_20
REMARK    2  A    between atoms: O_3  and  C_26
REMARK    3  A    between atoms: O_4  and  C_22
REMARK    4  A    between atoms: O_4  and  C_28
REMARK    5  A    between atoms: C_9  and  C_13
REMARK    6  A    between atoms: C_14  and  C_15
REMARK    7  A    between atoms: C_16  and  C_19
REMARK                            x       y       z     vdW  Elec       q    Type
REMARK                         _______ _______ _______ _____ _____    ______ ____
ROOT
ATOM      2  O   UNL     1      -5.797 -13.395  11.392  0.00  0.00    -0.270 OA
ATOM      5  N   UNL     1      -3.776 -12.412  11.978  0.00  0.00    -0.297 N 
ATOM      9  C   UNL     1      -1.849 -11.672  13.162  0.00  0.00    +0.095 C 
ATOM     10  C   UNL     1      -1.802 -13.200  13.002  0.00  0.00    +0.033 C 
ATOM     11  C   UNL     1      -2.864 -11.271  12.083  0.00  0.00    +0.121 C 
ATOM     12  C   UNL     1      -3.238 -13.576  12.663  0.00  0.00    +0.109 C 
ATOM     14  C   UNL     1      -5.033 -12.432  11.394  0.00  0.00    +0.247 C 
ENDROOT
BRANCH  14  15
ATOM     15  C   UNL     1      -5.497 -11.201  10.736  0.00  0.00    +0.041 A 
ATOM     17  C   UNL     1      -5.199 -10.973   9.392  0.00  0.00    +0.062 A 
ATOM     18  C   UNL     1      -6.236 -10.261  11.456  0.00  0.00    +0.017 A 
ATOM     20  C   UNL     1      -5.641  -9.805   8.769  0.00  0.00    +0.162 A 
ATOM     21  C   UNL     1      -6.677  -9.095  10.832  0.00  0.00    +0.050 A 
ATOM     22  C   UNL     1      -6.378  -8.867   9.488  0.00  0.00    +0.162 A 
BRANCH  20   3
ATOM      3  O   UNL     1      -5.343  -9.595   7.456  0.00  0.00    -0.491 OA
ATOM     26  C   UNL     1      -5.655 -10.645   6.543  0.00  0.00    +0.277 C 
ENDBRANCH  20   3
BRANCH  22   4
ATOM      4  O   UNL     1      -6.816  -7.723   8.890  0.00  0.00    -0.491 OA
ATOM     28  C   UNL     1      -8.149  -7.727   8.382  0.00  0.00    +0.277 C 
ENDBRANCH  22   4
ENDBRANCH  14  15
BRANCH   9  13
ATOM      1  O   UNL     1      -3.493 -11.070  14.884  0.00  0.00    -0.420 OA
ATOM      6  N   UNL     1      -1.375 -11.073  15.609  0.00  0.00    -0.112 NA
ATOM      7  N   UNL     1      -2.190 -10.721  16.669  0.00  0.00    -0.107 NA
ATOM     13  C   UNL     1      -2.179 -11.268  14.588  0.00  0.00    +0.222 A 
ATOM     16  C   UNL     1      -3.415 -10.731  16.200  0.00  0.00    +0.250 A 
BRANCH  16  19
ATOM      8  N   UNL     1      -6.847  -9.415  16.760  0.00  0.00    -0.263 NA
ATOM     19  C   UNL     1      -4.663 -10.448  16.849  0.00  0.00    +0.057 A 
ATOM     23  C   UNL     1      -4.919 -10.897  18.139  0.00  0.00    +0.016 A 
ATOM     24  C   UNL     1      -5.651  -9.717  16.207  0.00  0.00    +0.124 A 
ATOM     25  C   UNL     1      -6.139 -10.605  18.741  0.00  0.00    +0.020 A 
ATOM     27  C   UNL     1      -7.060  -9.868  18.015  0.00  0.00    +0.111 A 
ENDBRANCH  16  19
ENDBRANCH   9  13
TORSDOF 5
ENDMDL
MODEL 7
REMARK VINA RESULT:      -6.4     16.244     19.027
REMARK  Name = 51137841
REMARK  7 active torsions:
REMARK  status: ('A' for Active; 'I' for Inactive)
REMARK    1  A    between atoms: O_3  and  C_20
REMARK    2  A    between atoms: O_3  and  C_26
REMARK    3  A    between atoms: O_4  and  C_22
REMARK    4  A    between atoms: O_4  and  C_28
REMARK    5  A    between atoms: C_9  and  C_13
REMARK    6  A    between atoms: C_14  and  C_15
REMARK    7  A    between atoms: C_16  and  C_19
REMARK                            x       y       z     vdW  Elec       q    Type
REMARK                         _______ _______ _______ _____ _____    ______ ____
ROOT
ATOM      2  O   UNL     1       9.670   7.870   1.750  0.00  0.00    -0.270 OA
ATOM      5  N   UNL     1       9.504   6.314   3.466  0.00  0.00    -0.297 N 
ATOM      9  C   UNL     1       9.492   5.242   5.590  0.00  0.00    +0.095 C 
ATOM     10  C   UNL     1       8.325   6.239   5.508  0.00  0.00    +0.033 C 
ATOM     11  C   UNL     1       9.845   5.044   4.110  0.00  0.00    +0.121 C 
ATOM     12  C   UNL     1       8.703   7.148   4.346  0.00  0.00    +0.109 C 
ATOM     14  C   UNL     1       9.921   6.763   2.223  0.00  0.00    +0.247 C 
ENDROOT
BRANCH  14  15
ATOM     15  C   UNL     1      10.741   5.852   1.409  0.00  0.00    +0.041 A 
ATOM     17  C   UNL     1      12.121   5.790   1.609  0.00  0.00    +0.062 A 
ATOM     18  C   UNL     1      10.140   5.050   0.439  0.00  0.00    +0.017 A 
ATOM     20  C   UNL     1      12.898   4.925   0.838  0.00  0.00    +0.162 A 
ATOM     21  C   UNL     1      10.918   4.186  -0.331  0.00  0.00    +0.050 A 
ATOM     22  C   UNL     1      12.297   4.125  -0.132  0.00  0.00    +0.162 A 
BRANCH  20   3
ATOM      3  O   UNL     1      14.244   4.874   1.043  0.00  0.00    -0.491 OA
ATOM     26  C   UNL     1      14.748   3.753   1.767  0.00  0.00    +0.277 C 
ENDBRANCH  20   3
BRANCH  22   4
ATOM      4  O   UNL     1      13.046   3.275  -0.891  0.00  0.00    -0.491 OA
ATOM     28  C   UNL     1      13.160   3.578  -2.281  0.00  0.00    +0.277 C 
ENDBRANCH  22   4
ENDBRANCH  14  15
BRANCH   9  13
ATOM      1  O   UNL     1      11.509   6.601   5.931  0.00  0.00    -0.420 OA
ATOM      6  N   UNL     1      10.834   5.500   7.759  0.00  0.00    -0.112 NA
ATOM      7  N   UNL     1      11.968   6.219   8.087  0.00  0.00    -0.107 NA
ATOM     13  C   UNL     1      10.603   5.754   6.491  0.00  0.00    +0.222 A 
ATOM     16  C   UNL     1      12.327   6.845   6.991  0.00  0.00    +0.250 A 
BRANCH  16  19
ATOM      8  N   UNL     1      15.767   8.016   6.205  0.00  0.00    -0.263 NA
ATOM     19  C   UNL     1      13.428   7.731   6.742  0.00  0.00    +0.057 A 
ATOM     23  C   UNL     1      13.262   9.111   6.785  0.00  0.00    +0.016 A 
ATOM     24  C   UNL     1      14.689   7.238   6.450  0.00  0.00    +0.124 A 
ATOM     25  C   UNL     1      14.348   9.943   6.539  0.00  0.00    +0.020 A 
ATOM     27  C   UNL     1      15.569   9.351   6.257  0.00  0.00    +0.111 A 
ENDBRANCH  16  19
ENDBRANCH   9  13
TORSDOF 5
ENDMDL
MODEL 8
REMARK VINA RESULT:      -6.4      4.313      7.647
REMARK  Name = 51137841
REMARK  7 active torsions:
REMARK  status: ('A' for Active; 'I' for Inactive)
REMARK    1  A    between atoms: O_3  and  C_20
REMARK    2  A    between atoms: O_3  and  C_26
REMARK    3  A    between atoms: O_4  and  C_22
REMARK    4  A    between atoms: O_4  and  C_28
REMARK    5  A    between atoms: C_9  and  C_13
REMARK    6  A    between atoms: C_14  and  C_15
REMARK    7  A    between atoms: C_16  and  C_19
REMARK                            x       y       z     vdW  Elec       q    Type
REMARK                         _______ _______ _______ _____ _____    ______ ____
ROOT
ATOM      2  O   UNL     1      13.169  12.020  18.596  0.00  0.00    -0.270 OA
ATOM      5  N   UNL     1      13.474   9.759  18.162  0.00  0.00    -0.297 N 
ATOM      9  C   UNL     1      13.787   7.410  18.375  0.00  0.00    +0.095 C 
ATOM     10  C   UNL     1      12.380   7.790  18.864  0.00  0.00    +0.033 C 
ATOM     11  C   UNL     1      14.174   8.635  17.537  0.00  0.00    +0.121 C 
ATOM     12  C   UNL     1      12.471   9.291  19.104  0.00  0.00    +0.109 C 
ATOM     14  C   UNL     1      13.735  11.110  17.993  0.00  0.00    +0.247 C 
ENDROOT
BRANCH  14  15
ATOM     15  C   UNL     1      14.779  11.486  17.028  0.00  0.00    +0.041 A 
ATOM     17  C   UNL     1      14.617  11.191  15.674  0.00  0.00    +0.062 A 
ATOM     18  C   UNL     1      15.933  12.137  17.466  0.00  0.00    +0.017 A 
ATOM     20  C   UNL     1      15.607  11.548  14.759  0.00  0.00    +0.162 A 
ATOM     21  C   UNL     1      16.922  12.494  16.551  0.00  0.00    +0.050 A 
ATOM     22  C   UNL     1      16.759  12.199  15.197  0.00  0.00    +0.162 A 
BRANCH  20   3
ATOM      3  O   UNL     1      15.436  11.255  13.439  0.00  0.00    -0.491 OA
ATOM     26  C   UNL     1      14.719  12.203  12.651  0.00  0.00    +0.277 C 
ENDBRANCH  20   3
BRANCH  22   4
ATOM      4  O   UNL     1      17.734  12.554  14.312  0.00  0.00    -0.491 OA
ATOM     28  C   UNL     1      18.962  11.830  14.376  0.00  0.00    +0.277 C 
ENDBRANCH  22   4
ENDBRANCH  14  15
BRANCH   9  13
ATOM      1  O   UNL     1      16.040   7.263  19.343  0.00  0.00    -0.420 OA
ATOM      6  N   UNL     1      14.412   6.583  20.720  0.00  0.00    -0.112 NA
ATOM      7  N   UNL     1      15.617   6.449  21.383  0.00  0.00    -0.107 NA
ATOM     13  C   UNL     1      14.707   7.061  19.533  0.00  0.00    +0.222 A 
ATOM     16  C   UNL     1      16.539   6.857  20.542  0.00  0.00    +0.250 A 
BRANCH  16  19
ATOM      8  N   UNL     1      19.895   8.218  21.380  0.00  0.00    -0.263 NA
ATOM     19  C   UNL     1      17.963   6.940  20.689  0.00  0.00    +0.057 A 
ATOM     23  C   UNL     1      18.786   5.886  20.308  0.00  0.00    +0.016 A 
ATOM     24  C   UNL     1      18.561   8.074  21.214  0.00  0.00    +0.124 A 
ATOM     25  C   UNL     1      20.164   5.997  20.463  0.00  0.00    +0.020 A 
ATOM     27  C   UNL     1      20.664   7.173  20.998  0.00  0.00    +0.111 A 
ENDBRANCH  16  19
ENDBRANCH   9  13
TORSDOF 5
ENDMDL
MODEL 9
REMARK VINA RESULT:      -6.4     27.013     29.531
REMARK  Name = 51137841
REMARK  7 active torsions:
REMARK  status: ('A' for Active; 'I' for Inactive)
REMARK    1  A    between atoms: O_3  and  C_20
REMARK    2  A    between atoms: O_3  and  C_26
REMARK    3  A    between atoms: O_4  and  C_22
REMARK    4  A    between atoms: O_4  and  C_28
REMARK    5  A    between atoms: C_9  and  C_13
REMARK    6  A    between atoms: C_14  and  C_15
REMARK    7  A    between atoms: C_16  and  C_19
REMARK                            x       y       z     vdW  Elec       q    Type
REMARK                         _______ _______ _______ _____ _____    ______ ____
ROOT
ATOM      2  O   UNL     1      -4.272 -13.867  15.146  0.00  0.00    -0.270 OA
ATOM      5  N   UNL     1      -4.443 -11.985  16.495  0.00  0.00    -0.297 N 
ATOM      9  C   UNL     1      -5.207 -10.317  18.011  0.00  0.00    +0.095 C 
ATOM     10  C   UNL     1      -4.978 -11.635  18.767  0.00  0.00    +0.033 C 
ATOM     11  C   UNL     1      -4.393 -10.540  16.729  0.00  0.00    +0.121 C 
ATOM     12  C   UNL     1      -4.945 -12.686  17.665  0.00  0.00    +0.109 C 
ATOM     14  C   UNL     1      -4.146 -12.656  15.320  0.00  0.00    +0.247 C 
ENDROOT
BRANCH  14  15
ATOM     15  C   UNL     1      -3.657 -11.858  14.185  0.00  0.00    +0.041 A 
ATOM     17  C   UNL     1      -4.558 -11.363  13.241  0.00  0.00    +0.062 A 
ATOM     18  C   UNL     1      -2.294 -11.595  14.052  0.00  0.00    +0.017 A 
ATOM     20  C   UNL     1      -4.094 -10.605  12.165  0.00  0.00    +0.162 A 
ATOM     21  C   UNL     1      -1.831 -10.838  12.977  0.00  0.00    +0.050 A 
ATOM     22  C   UNL     1      -2.731 -10.344  12.033  0.00  0.00    +0.162 A 
BRANCH  20   3
ATOM      3  O   UNL     1      -4.984 -10.127  11.250  0.00  0.00    -0.491 OA
ATOM     26  C   UNL     1      -5.649  -8.907  11.569  0.00  0.00    +0.277 C 
ENDBRANCH  20   3
BRANCH  22   4
ATOM      4  O   UNL     1      -2.266  -9.604  10.987  0.00  0.00    -0.491 OA
ATOM     28  C   UNL     1      -0.934  -9.102  11.090  0.00  0.00    +0.277 C 
ENDBRANCH  22   4
ENDBRANCH  14  15
BRANCH   9  13
ATOM      1  O   UNL     1      -7.545 -10.651  18.682  0.00  0.00    -0.420 OA
ATOM      6  N   UNL     1      -7.285  -9.238  16.968  0.00  0.00    -0.112 NA
ATOM      7  N   UNL     1      -8.636  -9.335  17.240  0.00  0.00    -0.107 NA
ATOM     13  C   UNL     1      -6.686 -10.023  17.834  0.00  0.00    +0.222 A 
ATOM     16  C   UNL     1      -8.741 -10.170  18.247  0.00  0.00    +0.250 A 
BRANCH  16  19
ATOM      8  N   UNL     1     -12.258 -10.417  19.427  0.00  0.00    -0.263 NA
ATOM     19  C   UNL     1      -9.900 -10.644  18.947  0.00  0.00    +0.057 A 
ATOM     23  C   UNL     1      -9.825 -11.742  19.797  0.00  0.00    +0.016 A 
ATOM     24  C   UNL     1     -11.129 -10.022  18.798  0.00  0.00    +0.124 A 
ATOM     25  C   UNL     1     -10.966 -12.177  20.462  0.00  0.00    +0.020 A 
ATOM     27  C   UNL     1     -12.147 -11.487  20.245  0.00  0.00    +0.111 A 
ENDBRANCH  16  19
ENDBRANCH   9  13
TORSDOF 5
ENDMDL
MODEL 10
REMARK VINA RESULT:      -6.3      3.648      7.400
REMARK  Name = 51137841
REMARK  7 active torsions:
REMARK  status: ('A' for Active; 'I' for Inactive)
REMARK    1  A    between atoms: O_3  and  C_20
REMARK    2  A    between atoms: O_3  and  C_26
REMARK    3  A    between atoms: O_4  and  C_22
REMARK    4  A    between atoms: O_4  and  C_28
REMARK    5  A    between atoms: C_9  and  C_13
REMARK    6  A    between atoms: C_14  and  C_15
REMARK    7  A    between atoms: C_16  and  C_19
REMARK                            x       y       z     vdW  Elec       q    Type
REMARK                         _______ _______ _______ _____ _____    ______ ____
ROOT
ATOM      2  O   UNL     1      14.642   9.698  22.796  0.00  0.00    -0.270 OA
ATOM      5  N   UNL     1      13.184   8.693  21.293  0.00  0.00    -0.297 N 
ATOM      9  C   UNL     1      12.239   7.618  19.392  0.00  0.00    +0.095 C 
ATOM     10  C   UNL     1      13.196   6.652  20.109  0.00  0.00    +0.033 C 
ATOM     11  C   UNL     1      11.964   8.661  20.484  0.00  0.00    +0.121 C 
ATOM     12  C   UNL     1      14.046   7.563  20.984  0.00  0.00    +0.109 C 
ATOM     14  C   UNL     1      13.572   9.676  22.190  0.00  0.00    +0.247 C 
ENDROOT
BRANCH  14  15
ATOM     15  C   UNL     1      12.638  10.788  22.427  0.00  0.00    +0.041 A 
ATOM     17  C   UNL     1      12.709  11.937  21.639  0.00  0.00    +0.062 A 
ATOM     18  C   UNL     1      11.682  10.693  23.438  0.00  0.00    +0.017 A 
ATOM     20  C   UNL     1      11.823  12.991  21.863  0.00  0.00    +0.162 A 
ATOM     21  C   UNL     1      10.797  11.747  23.662  0.00  0.00    +0.050 A 
ATOM     22  C   UNL     1      10.868  12.897  22.874  0.00  0.00    +0.162 A 
BRANCH  20   3
ATOM      3  O   UNL     1      11.902  14.108  21.087  0.00  0.00    -0.491 OA
ATOM     26  C   UNL     1      12.399  13.942  19.760  0.00  0.00    +0.277 C 
ENDBRANCH  20   3
BRANCH  22   4
ATOM      4  O   UNL     1       9.996  13.919  23.102  0.00  0.00    -0.491 OA
ATOM     28  C   UNL     1      10.245  14.740  24.243  0.00  0.00    +0.277 C 
ENDBRANCH  22   4
ENDBRANCH  14  15
BRANCH   9  13
ATOM      1  O   UNL     1      13.059   9.474  18.010  0.00  0.00    -0.420 OA
ATOM      6  N   UNL     1      13.171   7.476  17.009  0.00  0.00    -0.112 NA
ATOM      7  N   UNL     1      13.659   8.423  16.128  0.00  0.00    -0.107 NA
ATOM     13  C   UNL     1      12.833   8.135  18.093  0.00  0.00    +0.222 A 
ATOM     16  C   UNL     1      13.575   9.574  16.754  0.00  0.00    +0.250 A 
BRANCH  16  19
ATOM      8  N   UNL     1      14.633  13.134  16.913  0.00  0.00    -0.263 NA
ATOM     19  C   UNL     1      13.936  10.895  16.328  0.00  0.00    +0.057 A 
ATOM     23  C   UNL     1      13.948  11.235  14.980  0.00  0.00    +0.016 A 
ATOM     24  C   UNL     1      14.283  11.872  17.247  0.00  0.00    +0.124 A 
ATOM     25  C   UNL     1      14.303  12.524  14.598  0.00  0.00    +0.020 A 
ATOM     27  C   UNL     1      14.634  13.428  15.594  0.00  0.00    +0.111 A 
ENDBRANCH  16  19
ENDBRANCH   9  13
TORSDOF 5
ENDMDL
