REMARK  Name = 40780432
REMARK  7 active torsions:
REMARK  status: ('A' for Active; 'I' for Inactive)
REMARK    1  A    between atoms: N_1  and  C_6
REMARK    2  A    between atoms: N_1  and  C_12
REMARK    3  A    between atoms: N_2  and  C_15
REMARK    4  A    between atoms: C_4  and  C_7
REMARK    5  A    between atoms: C_10  and  C_13
REMARK    6  A    between atoms: C_11  and  C_14
REMARK    7  A    between atoms: C_12  and  C_16
REMARK                            x       y       z     vdW  Elec       q    Type
REMARK                         _______ _______ _______ _____ _____    ______ ____
ROOT
ATOM      4  C   UNL     1      -0.089   0.720   0.238  0.00  0.00    +0.047 C 
ATOM      5  C   UNL     1      -0.734  -0.331  -0.686  0.00  0.00    +0.035 C 
ATOM      6  C   UNL     1      -1.866  -0.981   0.128  0.00  0.00    +0.078 C 
ATOM      8  C   UNL     1      -0.480   0.227   1.601  0.00  0.00    -0.021 C 
ATOM      9  C   UNL     1      -1.451  -0.691   1.537  0.00  0.00    -0.012 C 
ENDROOT
BRANCH   4   7
ATOM      2  N   UNL     1       3.549   0.520  -0.143  0.00  0.00    -0.236 N 
ATOM      3  N   UNL     1       3.420   1.820  -0.461  0.00  0.00    -0.171 NA
ATOM      7  C   UNL     1       1.399   0.871   0.023  0.00  0.00    +0.003 A 
ATOM     10  C   UNL     1       2.368  -0.094   0.156  0.00  0.00    +0.046 A 
ATOM     11  C   UNL     1       2.104   2.028  -0.358  0.00  0.00    +0.064 A 
ATOM     13  C   UNL     1       2.268  -1.519   0.532  0.00  0.00    +0.066 C 
ATOM     14  C   UNL     1       1.559   3.368  -0.639  0.00  0.00    +0.068 C 
BRANCH   2  15
ATOM     15  C   UNL     1       4.813  -0.069  -0.141  0.00  0.00    +0.066 A 
ATOM     17  C   UNL     1       5.080  -1.150  -0.982  0.00  0.00    +0.028 A 
ATOM     18  C   UNL     1       5.811   0.422   0.700  0.00  0.00    +0.028 A 
ATOM     21  C   UNL     1       6.344  -1.738  -0.982  0.00  0.00    +0.002 A 
ATOM     22  C   UNL     1       7.076  -0.167   0.701  0.00  0.00    +0.002 A 
ATOM     25  C   UNL     1       7.342  -1.247  -0.141  0.00  0.00    +0.000 A 
ENDBRANCH   2  15
ENDBRANCH   4   7
BRANCH   6   1
ATOM      1  N   UNL     1      -3.166  -0.393  -0.176  0.00  0.00    -0.306 NA
ATOM     27  H   UNL     1      -3.272  -0.317  -1.188  0.00  0.00    +0.123 HD
BRANCH   1  12
ATOM     12  C   UNL     1      -4.247  -1.214   0.353  0.00  0.00    +0.116 C 
BRANCH  12  16
ATOM     16  C   UNL     1      -5.598  -0.617   0.061  0.00  0.00    -0.034 A 
ATOM     19  C   UNL     1      -6.179   0.271   0.966  0.00  0.00    +0.005 A 
ATOM     20  C   UNL     1      -6.269  -0.952  -1.115  0.00  0.00    +0.005 A 
ATOM     23  C   UNL     1      -7.430   0.825   0.696  0.00  0.00    +0.000 A 
ATOM     24  C   UNL     1      -7.521  -0.398  -1.386  0.00  0.00    +0.000 A 
ATOM     26  C   UNL     1      -8.101   0.490  -0.480  0.00  0.00    +0.000 A 
ENDBRANCH  12  16
ENDBRANCH   1  12
ENDBRANCH   6   1
TORSDOF 5
