REMARK  Name = 51137442
REMARK  5 active torsions:
REMARK  status: ('A' for Active; 'I' for Inactive)
REMARK    1  A    between atoms: N_3  and  C_10
REMARK    2  A    between atoms: C_6  and  C_11
REMARK    3  A    between atoms: C_10  and  C_12
REMARK    4  A    between atoms: C_14  and  C_17
REMARK    5  A    between atoms: C_26  and  C_27
REMARK                            x       y       z     vdW  Elec       q    Type
REMARK                         _______ _______ _______ _____ _____    ______ ____
ROOT
ATOM      3  N   UNL     1      -1.472  -1.010  -0.321  0.00  0.00    -0.294 NA
ATOM      6  C   UNL     1       0.497  -2.119   0.306  0.00  0.00    +0.092 C 
ATOM      7  C   UNL     1      -0.118  -1.430   1.536  0.00  0.00    +0.029 C 
ATOM      8  C   UNL     1      -0.207  -1.473  -0.895  0.00  0.00    +0.097 C 
ATOM      9  C   UNL     1      -1.107  -0.420   0.968  0.00  0.00    +0.085 C 
ENDROOT
BRANCH   6  11
ATOM      1  O   UNL     1       2.550  -0.791   0.164  0.00  0.00    -0.420 OA
ATOM      4  N   UNL     1       2.893  -3.002   0.188  0.00  0.00    -0.112 NA
ATOM      5  N   UNL     1       4.125  -2.379   0.107  0.00  0.00    -0.107 NA
ATOM     11  C   UNL     1       2.004  -2.037   0.219  0.00  0.00    +0.222 A 
ATOM     14  C   UNL     1       3.876  -1.091   0.095  0.00  0.00    +0.248 A 
BRANCH  14  17
ATOM     17  C   UNL     1       4.769   0.030   0.024  0.00  0.00    +0.038 A 
ATOM     22  C   UNL     1       6.146  -0.180  -0.049  0.00  0.00    +0.013 A 
ATOM     23  C   UNL     1       4.260   1.329   0.026  0.00  0.00    +0.013 A 
ATOM     24  C   UNL     1       7.014   0.909  -0.119  0.00  0.00    +0.004 A 
ATOM     25  C   UNL     1       5.128   2.418  -0.044  0.00  0.00    +0.004 A 
ATOM     26  C   UNL     1       6.506   2.208  -0.117  0.00  0.00    -0.050 A 
ATOM     27  C   UNL     1       7.434   3.373  -0.191  0.00  0.00    +0.044 C 
ENDBRANCH  14  17
ENDBRANCH   6  11
BRANCH   3  10
ATOM     10  C   UNL     1      -2.163  -0.067  -1.187  0.00  0.00    +0.158 C 
BRANCH  10  12
ATOM      2  O   UNL     1      -3.967   1.190  -0.145  0.00  0.00    -0.458 OA
ATOM     12  C   UNL     1      -3.618   0.066  -0.824  0.00  0.00    +0.120 A 
ATOM     13  C   UNL     1      -4.716  -0.735  -1.037  0.00  0.00    +0.054 A 
ATOM     15  C   UNL     1      -5.822  -0.063  -0.452  0.00  0.00    +0.020 A 
ATOM     16  C   UNL     1      -5.309   1.115   0.083  0.00  0.00    +0.135 A 
ATOM     18  C   UNL     1      -7.197  -0.319  -0.315  0.00  0.00    +0.011 A 
ATOM     19  C   UNL     1      -6.074   2.067   0.752  0.00  0.00    +0.047 A 
ATOM     20  C   UNL     1      -7.993   0.621   0.354  0.00  0.00    +0.001 A 
ATOM     21  C   UNL     1      -7.439   1.792   0.876  0.00  0.00    +0.004 A 
ENDBRANCH  10  12
ENDBRANCH   3  10
TORSDOF 4
