MODEL 1
REMARK VINA RESULT:      -7.7      0.000      0.000
REMARK  Name = 11912978
REMARK  6 active torsions:
REMARK  status: ('A' for Active; 'I' for Inactive)
REMARK    1  A    between atoms: S_1  and  N_7
REMARK    2  A    between atoms: S_1  and  C_18
REMARK    3  A    between atoms: N_7  and  C_13
REMARK    4  A    between atoms: N_8  and  C_14
REMARK    5  A    between atoms: C_21  and  C_27
REMARK    6  A    between atoms: C_25  and  C_28
REMARK                            x       y       z     vdW  Elec       q    Type
REMARK                         _______ _______ _______ _____ _____    ______ ____
ROOT
ATOM      2  O   UNL     1      17.832   6.098  20.107  0.00  0.00    -0.370 OA
ATOM      3  O   UNL     1      17.369   8.931  21.332  0.00  0.00    -0.370 OA
ATOM     11  C   UNL     1      17.687   7.651  21.904  0.00  0.00    +0.170 C 
ATOM     12  C   UNL     1      16.933   6.603  21.109  0.00  0.00    +0.171 C 
ATOM     13  C   UNL     1      19.142   7.315  21.668  0.00  0.00    +0.133 C 
ATOM     14  C   UNL     1      15.805   7.371  20.461  0.00  0.00    +0.130 C 
ATOM     15  C   UNL     1      19.116   6.719  20.272  0.00  0.00    +0.183 C 
ATOM     16  C   UNL     1      16.401   8.755  20.287  0.00  0.00    +0.185 C 
ENDROOT
BRANCH  14   8
ATOM      8  N   UNL     1      14.666   7.424  21.352  0.00  0.00    -0.306 N 
ATOM      9  N   UNL     1      13.207   8.063  19.629  0.00  0.00    -0.211 NA
ATOM     10  N   UNL     1      12.409   7.773  21.884  0.00  0.00    -0.223 NA
ATOM     17  C   UNL     1      13.390   7.763  20.943  0.00  0.00    +0.216 A 
ATOM     21  C   UNL     1      11.950   8.390  19.265  0.00  0.00    +0.111 A 
ATOM     24  C   UNL     1      11.175   8.108  21.451  0.00  0.00    +0.116 A 
ATOM     26  C   UNL     1      10.884   8.429  20.140  0.00  0.00    +0.051 A 
ATOM     33  H   UNL     1      14.781   7.150  22.322  0.00  0.00    +0.149 HD
BRANCH  21  27
ATOM      6  O   UNL     1      10.571   8.411  17.349  0.00  0.00    -0.461 OA
ATOM     27  C   UNL     1      11.789   8.702  17.871  0.00  0.00    +0.153 A 
ATOM     29  C   UNL     1      12.612   9.244  16.913  0.00  0.00    +0.051 A 
ATOM     30  C   UNL     1      11.849   9.290  15.722  0.00  0.00    +0.042 A 
ATOM     31  C   UNL     1      10.615   8.772  16.039  0.00  0.00    +0.196 A 
ENDBRANCH  21  27
ENDBRANCH  14   8
BRANCH  13   7
ATOM      7  N   UNL     1      19.620   6.358  22.636  0.00  0.00    -0.182 NA
ATOM     32  H   UNL     1      18.912   5.833  23.165  0.00  0.00    +0.148 HD
BRANCH   7   1
ATOM      1  S   UNL     1      21.171   6.536  23.305  0.00  0.00    +0.059 S 
ATOM      4  O   UNL     1      21.108   6.306  24.735  0.00  0.00    -0.153 OA
ATOM      5  O   UNL     1      21.767   7.753  22.787  0.00  0.00    -0.153 OA
BRANCH   1  18
ATOM     18  C   UNL     1      22.042   5.184  22.573  0.00  0.00    +0.105 A 
ATOM     19  C   UNL     1      23.400   5.050  22.804  0.00  0.00    +0.029 A 
ATOM     20  C   UNL     1      21.349   4.284  21.782  0.00  0.00    +0.029 A 
ATOM     22  C   UNL     1      24.087   3.982  22.227  0.00  0.00    +0.005 A 
ATOM     23  C   UNL     1      22.036   3.215  21.206  0.00  0.00    +0.005 A 
ATOM     25  C   UNL     1      23.405   3.064  21.429  0.00  0.00    -0.050 A 
ATOM     28  C   UNL     1      24.139   1.922  20.811  0.00  0.00    +0.044 C 
ENDBRANCH   1  18
ENDBRANCH   7   1
ENDBRANCH  13   7
TORSDOF 5
ENDMDL
MODEL 2
REMARK VINA RESULT:      -7.7      3.208     10.005
REMARK  Name = 11912978
REMARK  6 active torsions:
REMARK  status: ('A' for Active; 'I' for Inactive)
REMARK    1  A    between atoms: S_1  and  N_7
REMARK    2  A    between atoms: S_1  and  C_18
REMARK    3  A    between atoms: N_7  and  C_13
REMARK    4  A    between atoms: N_8  and  C_14
REMARK    5  A    between atoms: C_21  and  C_27
REMARK    6  A    between atoms: C_25  and  C_28
REMARK                            x       y       z     vdW  Elec       q    Type
REMARK                         _______ _______ _______ _____ _____    ______ ____
ROOT
ATOM      2  O   UNL     1      15.988   8.565  20.464  0.00  0.00    -0.370 OA
ATOM      3  O   UNL     1      16.812   5.635  19.774  0.00  0.00    -0.370 OA
ATOM     11  C   UNL     1      15.927   6.204  20.753  0.00  0.00    +0.170 C 
ATOM     12  C   UNL     1      16.559   7.496  21.236  0.00  0.00    +0.171 C 
ATOM     13  C   UNL     1      14.637   6.647  20.102  0.00  0.00    +0.133 C 
ATOM     14  C   UNL     1      18.024   7.335  20.906  0.00  0.00    +0.130 C 
ATOM     15  C   UNL     1      14.994   8.027  19.578  0.00  0.00    +0.183 C 
ATOM     16  C   UNL     1      17.994   6.444  19.678  0.00  0.00    +0.185 C 
ENDROOT
BRANCH  14   8
ATOM      8  N   UNL     1      18.707   6.668  21.993  0.00  0.00    -0.306 N 
ATOM      9  N   UNL     1      20.815   7.397  21.264  0.00  0.00    -0.211 NA
ATOM     10  N   UNL     1      20.591   6.029  23.235  0.00  0.00    -0.223 NA
ATOM     17  C   UNL     1      20.078   6.699  22.169  0.00  0.00    +0.216 A 
ATOM     21  C   UNL     1      22.148   7.407  21.467  0.00  0.00    +0.111 A 
ATOM     24  C   UNL     1      21.932   6.081  23.378  0.00  0.00    +0.116 A 
ATOM     26  C   UNL     1      22.769   6.761  22.516  0.00  0.00    +0.051 A 
ATOM     33  H   UNL     1      18.163   6.190  22.703  0.00  0.00    +0.149 HD
BRANCH  21  27
ATOM      6  O   UNL     1      24.152   7.690  20.250  0.00  0.00    -0.461 OA
ATOM     27  C   UNL     1      22.900   8.152  20.493  0.00  0.00    +0.153 A 
ATOM     29  C   UNL     1      22.633   9.263  19.729  0.00  0.00    +0.051 A 
ATOM     30  C   UNL     1      23.800   9.499  18.964  0.00  0.00    +0.042 A 
ATOM     31  C   UNL     1      24.695   8.516  19.317  0.00  0.00    +0.196 A 
ENDBRANCH  21  27
ENDBRANCH  14   8
BRANCH  13   7
ATOM      7  N   UNL     1      13.563   6.715  21.064  0.00  0.00    -0.182 NA
ATOM     32  H   UNL     1      13.701   6.221  21.955  0.00  0.00    +0.148 HD
BRANCH   7   1
ATOM      1  S   UNL     1      11.978   7.025  20.540  0.00  0.00    +0.059 S 
ATOM      4  O   UNL     1      11.066   6.103  21.188  0.00  0.00    -0.153 OA
ATOM      5  O   UNL     1      11.980   7.155  19.095  0.00  0.00    -0.153 OA
BRANCH   1  18
ATOM     18  C   UNL     1      11.684   8.638  21.201  0.00  0.00    +0.105 A 
ATOM     19  C   UNL     1      11.046   8.761  22.423  0.00  0.00    +0.029 A 
ATOM     20  C   UNL     1      12.097   9.747  20.484  0.00  0.00    +0.029 A 
ATOM     22  C   UNL     1      10.815  10.034  22.945  0.00  0.00    +0.005 A 
ATOM     23  C   UNL     1      11.867  11.020  21.007  0.00  0.00    +0.005 A 
ATOM     25  C   UNL     1      11.226  11.163  22.238  0.00  0.00    -0.050 A 
ATOM     28  C   UNL     1      10.979  12.524  22.796  0.00  0.00    +0.044 C 
ENDBRANCH   1  18
ENDBRANCH   7   1
ENDBRANCH  13   7
TORSDOF 5
ENDMDL
MODEL 3
REMARK VINA RESULT:      -7.6     27.516     30.773
REMARK  Name = 11912978
REMARK  6 active torsions:
REMARK  status: ('A' for Active; 'I' for Inactive)
REMARK    1  A    between atoms: S_1  and  N_7
REMARK    2  A    between atoms: S_1  and  C_18
REMARK    3  A    between atoms: N_7  and  C_13
REMARK    4  A    between atoms: N_8  and  C_14
REMARK    5  A    between atoms: C_21  and  C_27
REMARK    6  A    between atoms: C_25  and  C_28
REMARK                            x       y       z     vdW  Elec       q    Type
REMARK                         _______ _______ _______ _____ _____    ______ ____
ROOT
ATOM      2  O   UNL     1      -6.634 -10.454  16.447  0.00  0.00    -0.370 OA
ATOM      3  O   UNL     1      -4.825 -11.000  18.931  0.00  0.00    -0.370 OA
ATOM     11  C   UNL     1      -4.963 -11.643  17.652  0.00  0.00    +0.170 C 
ATOM     12  C   UNL     1      -6.433 -11.605  17.285  0.00  0.00    +0.171 C 
ATOM     13  C   UNL     1      -4.293 -10.821  16.575  0.00  0.00    +0.133 C 
ATOM     14  C   UNL     1      -7.140 -11.420  18.607  0.00  0.00    +0.130 C 
ATOM     15  C   UNL     1      -5.370  -9.813  16.218  0.00  0.00    +0.183 C 
ATOM     16  C   UNL     1      -6.125 -10.640  19.421  0.00  0.00    +0.185 C 
ENDROOT
BRANCH  14   8
ATOM      8  N   UNL     1      -7.390 -12.707  19.219  0.00  0.00    -0.306 N 
ATOM      9  N   UNL     1      -9.559 -12.097  19.876  0.00  0.00    -0.211 NA
ATOM     10  N   UNL     1      -8.684 -14.286  20.375  0.00  0.00    -0.223 NA
ATOM     17  C   UNL     1      -8.580 -13.040  19.842  0.00  0.00    +0.216 A 
ATOM     21  C   UNL     1     -10.704 -12.455  20.492  0.00  0.00    +0.111 A 
ATOM     24  C   UNL     1      -9.857 -14.578  20.975  0.00  0.00    +0.116 A 
ATOM     26  C   UNL     1     -10.913 -13.693  21.065  0.00  0.00    +0.051 A 
ATOM     33  H   UNL     1      -6.688 -13.435  19.151  0.00  0.00    +0.149 HD
BRANCH  21  27
ATOM      6  O   UNL     1     -12.924 -11.830  21.001  0.00  0.00    -0.461 OA
ATOM     27  C   UNL     1     -11.720 -11.437  20.513  0.00  0.00    +0.153 A 
ATOM     29  C   UNL     1     -11.754 -10.115  20.139  0.00  0.00    +0.051 A 
ATOM     30  C   UNL     1     -13.066  -9.664  20.416  0.00  0.00    +0.042 A 
ATOM     31  C   UNL     1     -13.739 -10.744  20.939  0.00  0.00    +0.196 A 
ENDBRANCH  21  27
ENDBRANCH  14   8
BRANCH  13   7
ATOM      7  N   UNL     1      -3.943 -11.638  15.438  0.00  0.00    -0.182 NA
ATOM     32  H   UNL     1      -4.430 -12.537  15.340  0.00  0.00    +0.148 HD
BRANCH   7   1
ATOM      1  S   UNL     1      -2.429 -11.445  14.693  0.00  0.00    +0.059 S 
ATOM      4  O   UNL     1      -1.853 -12.749  14.428  0.00  0.00    -0.153 OA
ATOM      5  O   UNL     1      -1.672 -10.448  15.425  0.00  0.00    -0.153 OA
BRANCH   1  18
ATOM     18  C   UNL     1      -2.874 -10.720  13.144  0.00  0.00    +0.105 A 
ATOM     19  C   UNL     1      -4.213 -10.562  12.831  0.00  0.00    +0.029 A 
ATOM     20  C   UNL     1      -1.875 -10.324  12.272  0.00  0.00    +0.029 A 
ATOM     22  C   UNL     1      -4.564  -9.989  11.609  0.00  0.00    +0.005 A 
ATOM     23  C   UNL     1      -2.226  -9.750  11.051  0.00  0.00    +0.005 A 
ATOM     25  C   UNL     1      -3.571  -9.582  10.719  0.00  0.00    -0.050 A 
ATOM     28  C   UNL     1      -3.945  -8.969   9.412  0.00  0.00    +0.044 C 
ENDBRANCH   1  18
ENDBRANCH   7   1
ENDBRANCH  13   7
TORSDOF 5
ENDMDL
MODEL 4
REMARK VINA RESULT:      -7.4      6.721      9.254
REMARK  Name = 11912978
REMARK  6 active torsions:
REMARK  status: ('A' for Active; 'I' for Inactive)
REMARK    1  A    between atoms: S_1  and  N_7
REMARK    2  A    between atoms: S_1  and  C_18
REMARK    3  A    between atoms: N_7  and  C_13
REMARK    4  A    between atoms: N_8  and  C_14
REMARK    5  A    between atoms: C_21  and  C_27
REMARK    6  A    between atoms: C_25  and  C_28
REMARK                            x       y       z     vdW  Elec       q    Type
REMARK                         _______ _______ _______ _____ _____    ______ ____
ROOT
ATOM      2  O   UNL     1      13.525   8.937  20.746  0.00  0.00    -0.370 OA
ATOM      3  O   UNL     1      10.560   7.973  20.618  0.00  0.00    -0.370 OA
ATOM     11  C   UNL     1      11.283   9.024  19.956  0.00  0.00    +0.170 C 
ATOM     12  C   UNL     1      12.266   9.596  20.959  0.00  0.00    +0.171 C 
ATOM     13  C   UNL     1      12.160   8.453  18.865  0.00  0.00    +0.133 C 
ATOM     14  C   UNL     1      11.692   9.209  22.301  0.00  0.00    +0.130 C 
ATOM     15  C   UNL     1      13.404   8.039  19.632  0.00  0.00    +0.183 C 
ATOM     16  C   UNL     1      10.969   7.911  21.992  0.00  0.00    +0.185 C 
ENDROOT
BRANCH  14   8
ATOM      8  N   UNL     1      10.750  10.213  22.745  0.00  0.00    -0.306 N 
ATOM      9  N   UNL     1      12.325  11.225  24.160  0.00  0.00    -0.211 NA
ATOM     10  N   UNL     1      10.082  12.087  23.988  0.00  0.00    -0.223 NA
ATOM     17  C   UNL     1      11.062  11.204  23.658  0.00  0.00    +0.216 A 
ATOM     21  C   UNL     1      12.594  12.204  25.047  0.00  0.00    +0.111 A 
ATOM     24  C   UNL     1      10.420  13.041  24.881  0.00  0.00    +0.116 A 
ATOM     26  C   UNL     1      11.673  13.149  25.449  0.00  0.00    +0.051 A 
ATOM     33  H   UNL     1       9.822  10.240  22.337  0.00  0.00    +0.149 HD
BRANCH  21  27
ATOM      6  O   UNL     1      14.043  12.092  26.909  0.00  0.00    -0.461 OA
ATOM     27  C   UNL     1      13.938  12.199  25.560  0.00  0.00    +0.153 A 
ATOM     29  C   UNL     1      15.181  12.282  24.980  0.00  0.00    +0.051 A 
ATOM     30  C   UNL     1      16.113  12.222  26.043  0.00  0.00    +0.042 A 
ATOM     31  C   UNL     1      15.372  12.107  27.195  0.00  0.00    +0.196 A 
ENDBRANCH  21  27
ENDBRANCH  14   8
BRANCH  13   7
ATOM      7  N   UNL     1      12.469   9.450  17.869  0.00  0.00    -0.182 NA
ATOM     32  H   UNL     1      11.933  10.326  17.900  0.00  0.00    +0.148 HD
BRANCH   7   1
ATOM      1  S   UNL     1      13.181   8.983  16.399  0.00  0.00    +0.059 S 
ATOM      4  O   UNL     1      12.214   9.127  15.328  0.00  0.00    -0.153 OA
ATOM      5  O   UNL     1      13.871   7.722  16.594  0.00  0.00    -0.153 OA
BRANCH   1  18
ATOM     18  C   UNL     1      14.422  10.222  16.184  0.00  0.00    +0.105 A 
ATOM     19  C   UNL     1      15.081  10.316  14.971  0.00  0.00    +0.029 A 
ATOM     20  C   UNL     1      14.712  11.077  17.233  0.00  0.00    +0.029 A 
ATOM     22  C   UNL     1      16.060  11.294  14.801  0.00  0.00    +0.005 A 
ATOM     23  C   UNL     1      15.690  12.056  17.063  0.00  0.00    +0.005 A 
ATOM     25  C   UNL     1      16.364  12.166  15.846  0.00  0.00    -0.050 A 
ATOM     28  C   UNL     1      17.410  13.212  15.665  0.00  0.00    +0.044 C 
ENDBRANCH   1  18
ENDBRANCH   7   1
ENDBRANCH  13   7
TORSDOF 5
ENDMDL
MODEL 5
REMARK VINA RESULT:      -7.3     27.891     30.179
REMARK  Name = 11912978
REMARK  6 active torsions:
REMARK  status: ('A' for Active; 'I' for Inactive)
REMARK    1  A    between atoms: S_1  and  N_7
REMARK    2  A    between atoms: S_1  and  C_18
REMARK    3  A    between atoms: N_7  and  C_13
REMARK    4  A    between atoms: N_8  and  C_14
REMARK    5  A    between atoms: C_21  and  C_27
REMARK    6  A    between atoms: C_25  and  C_28
REMARK                            x       y       z     vdW  Elec       q    Type
REMARK                         _______ _______ _______ _____ _____    ______ ____
ROOT
ATOM      2  O   UNL     1      -5.707  -9.640  16.633  0.00  0.00    -0.370 OA
ATOM      3  O   UNL     1      -5.255 -11.656  18.972  0.00  0.00    -0.370 OA
ATOM     11  C   UNL     1      -5.443 -11.816  17.555  0.00  0.00    +0.170 C 
ATOM     12  C   UNL     1      -6.449 -10.773  17.113  0.00  0.00    +0.171 C 
ATOM     13  C   UNL     1      -4.179 -11.447  16.812  0.00  0.00    +0.133 C 
ATOM     14  C   UNL     1      -7.192 -10.415  18.379  0.00  0.00    +0.130 C 
ATOM     15  C   UNL     1      -4.303  -9.939  16.689  0.00  0.00    +0.183 C 
ATOM     16  C   UNL     1      -6.143 -10.637  19.453  0.00  0.00    +0.185 C 
ENDROOT
BRANCH  14   8
ATOM      8  N   UNL     1      -8.306 -11.318  18.572  0.00  0.00    -0.306 N 
ATOM      9  N   UNL     1      -9.854  -9.763  17.741  0.00  0.00    -0.211 NA
ATOM     10  N   UNL     1     -10.566 -11.940  18.488  0.00  0.00    -0.223 NA
ATOM     17  C   UNL     1      -9.614 -10.997  18.257  0.00  0.00    +0.216 A 
ATOM     21  C   UNL     1     -11.140  -9.484  17.446  0.00  0.00    +0.111 A 
ATOM     24  C   UNL     1     -11.831 -11.595  18.169  0.00  0.00    +0.116 A 
ATOM     26  C   UNL     1     -12.181 -10.369  17.640  0.00  0.00    +0.051 A 
ATOM     33  H   UNL     1      -8.131 -12.259  18.906  0.00  0.00    +0.149 HD
BRANCH  21  27
ATOM      6  O   UNL     1     -12.626  -7.928  16.472  0.00  0.00    -0.461 OA
ATOM     27  C   UNL     1     -11.362  -8.171  16.902  0.00  0.00    +0.153 A 
ATOM     29  C   UNL     1     -10.562  -7.070  16.710  0.00  0.00    +0.051 A 
ATOM     30  C   UNL     1     -11.390  -6.084  16.122  0.00  0.00    +0.042 A 
ATOM     31  C   UNL     1     -12.635  -6.654  15.998  0.00  0.00    +0.196 A 
ENDBRANCH  21  27
ENDBRANCH  14   8
BRANCH  13   7
ATOM      7  N   UNL     1      -4.135 -12.076  15.515  0.00  0.00    -0.182 NA
ATOM     32  H   UNL     1      -4.865 -12.768  15.304  0.00  0.00    +0.148 HD
BRANCH   7   1
ATOM      1  S   UNL     1      -2.666 -12.157  14.665  0.00  0.00    +0.059 S 
ATOM      4  O   UNL     1      -2.420 -13.526  14.256  0.00  0.00    -0.153 OA
ATOM      5  O   UNL     1      -1.657 -11.424  15.405  0.00  0.00    -0.153 OA
BRANCH   1  18
ATOM     18  C   UNL     1      -3.030 -11.212  13.216  0.00  0.00    +0.105 A 
ATOM     19  C   UNL     1      -4.343 -10.866  12.947  0.00  0.00    +0.029 A 
ATOM     20  C   UNL     1      -1.996 -10.836  12.378  0.00  0.00    +0.029 A 
ATOM     22  C   UNL     1      -4.630 -10.119  11.805  0.00  0.00    +0.005 A 
ATOM     23  C   UNL     1      -2.283 -10.088  11.236  0.00  0.00    +0.005 A 
ATOM     25  C   UNL     1      -3.601  -9.730  10.949  0.00  0.00    -0.050 A 
ATOM     28  C   UNL     1      -3.907  -8.932   9.727  0.00  0.00    +0.044 C 
ENDBRANCH   1  18
ENDBRANCH   7   1
ENDBRANCH  13   7
TORSDOF 5
ENDMDL
MODEL 6
REMARK VINA RESULT:      -7.3     29.558     33.383
REMARK  Name = 11912978
REMARK  6 active torsions:
REMARK  status: ('A' for Active; 'I' for Inactive)
REMARK    1  A    between atoms: S_1  and  N_7
REMARK    2  A    between atoms: S_1  and  C_18
REMARK    3  A    between atoms: N_7  and  C_13
REMARK    4  A    between atoms: N_8  and  C_14
REMARK    5  A    between atoms: C_21  and  C_27
REMARK    6  A    between atoms: C_25  and  C_28
REMARK                            x       y       z     vdW  Elec       q    Type
REMARK                         _______ _______ _______ _____ _____    ______ ____
ROOT
ATOM      2  O   UNL     1     -13.914   4.739  23.712  0.00  0.00    -0.370 OA
ATOM      3  O   UNL     1     -16.643   3.710  22.601  0.00  0.00    -0.370 OA
ATOM     11  C   UNL     1     -16.103   5.024  22.827  0.00  0.00    +0.170 C 
ATOM     12  C   UNL     1     -15.280   4.961  24.098  0.00  0.00    +0.171 C 
ATOM     13  C   UNL     1     -15.097   5.370  21.754  0.00  0.00    +0.133 C 
ATOM     14  C   UNL     1     -15.821   3.755  24.829  0.00  0.00    +0.130 C 
ATOM     15  C   UNL     1     -13.826   4.725  22.279  0.00  0.00    +0.183 C 
ATOM     16  C   UNL     1     -16.279   2.856  23.696  0.00  0.00    +0.185 C 
ENDROOT
BRANCH  14   8
ATOM      8  N   UNL     1     -16.948   4.137  25.652  0.00  0.00    -0.306 N 
ATOM      9  N   UNL     1     -16.152   2.929  27.499  0.00  0.00    -0.211 NA
ATOM     10  N   UNL     1     -18.216   4.166  27.625  0.00  0.00    -0.223 NA
ATOM     17  C   UNL     1     -17.109   3.732  26.964  0.00  0.00    +0.216 A 
ATOM     21  C   UNL     1     -16.342   2.553  28.780  0.00  0.00    +0.111 A 
ATOM     24  C   UNL     1     -18.343   3.753  28.903  0.00  0.00    +0.116 A 
ATOM     26  C   UNL     1     -17.428   2.938  29.539  0.00  0.00    +0.051 A 
ATOM     33  H   UNL     1     -17.639   4.779  25.280  0.00  0.00    +0.149 HD
BRANCH  21  27
ATOM      6  O   UNL     1     -15.401   0.396  28.970  0.00  0.00    -0.461 OA
ATOM     27  C   UNL     1     -15.313   1.704  29.318  0.00  0.00    +0.153 A 
ATOM     29  C   UNL     1     -14.226   1.920  30.131  0.00  0.00    +0.051 A 
ATOM     30  C   UNL     1     -13.604   0.660  30.294  0.00  0.00    +0.042 A 
ATOM     31  C   UNL     1     -14.356  -0.235  29.569  0.00  0.00    +0.196 A 
ENDBRANCH  21  27
ENDBRANCH  14   8
BRANCH  13   7
ATOM      7  N   UNL     1     -14.943   6.799  21.625  0.00  0.00    -0.182 NA
ATOM     32  H   UNL     1     -14.850   7.340  22.493  0.00  0.00    +0.148 HD
BRANCH   7   1
ATOM      1  S   UNL     1     -15.506   7.587  20.229  0.00  0.00    +0.059 S 
ATOM      4  O   UNL     1     -15.986   8.909  20.582  0.00  0.00    -0.153 OA
ATOM      5  O   UNL     1     -16.357   6.676  19.489  0.00  0.00    -0.153 OA
BRANCH   1  18
ATOM     18  C   UNL     1     -14.019   7.779  19.293  0.00  0.00    +0.105 A 
ATOM     19  C   UNL     1     -12.805   7.479  19.885  0.00  0.00    +0.029 A 
ATOM     20  C   UNL     1     -14.097   8.225  17.986  0.00  0.00    +0.029 A 
ATOM     22  C   UNL     1     -11.631   7.629  19.146  0.00  0.00    +0.005 A 
ATOM     23  C   UNL     1     -12.924   8.375  17.246  0.00  0.00    +0.005 A 
ATOM     25  C   UNL     1     -11.691   8.076  17.826  0.00  0.00    -0.050 A 
ATOM     28  C   UNL     1     -10.437   8.237  17.035  0.00  0.00    +0.044 C 
ENDBRANCH   1  18
ENDBRANCH   7   1
ENDBRANCH  13   7
TORSDOF 5
ENDMDL
MODEL 7
REMARK VINA RESULT:      -7.2     29.881     33.605
REMARK  Name = 11912978
REMARK  6 active torsions:
REMARK  status: ('A' for Active; 'I' for Inactive)
REMARK    1  A    between atoms: S_1  and  N_7
REMARK    2  A    between atoms: S_1  and  C_18
REMARK    3  A    between atoms: N_7  and  C_13
REMARK    4  A    between atoms: N_8  and  C_14
REMARK    5  A    between atoms: C_21  and  C_27
REMARK    6  A    between atoms: C_25  and  C_28
REMARK                            x       y       z     vdW  Elec       q    Type
REMARK                         _______ _______ _______ _____ _____    ______ ____
ROOT
ATOM      2  O   UNL     1     -15.752   3.265  24.265  0.00  0.00    -0.370 OA
ATOM      3  O   UNL     1     -18.180   5.224  24.361  0.00  0.00    -0.370 OA
ATOM     11  C   UNL     1     -16.766   5.416  24.187  0.00  0.00    +0.170 C 
ATOM     12  C   UNL     1     -16.061   4.410  25.077  0.00  0.00    +0.171 C 
ATOM     13  C   UNL     1     -16.350   5.023  22.788  0.00  0.00    +0.133 C 
ATOM     14  C   UNL     1     -17.094   4.051  26.119  0.00  0.00    +0.130 C 
ATOM     15  C   UNL     1     -16.162   3.522  22.913  0.00  0.00    +0.183 C 
ATOM     16  C   UNL     1     -18.400   4.222  25.366  0.00  0.00    +0.185 C 
ENDROOT
BRANCH  14   8
ATOM      8  N   UNL     1     -17.028   4.983  27.224  0.00  0.00    -0.306 N 
ATOM      9  N   UNL     1     -16.072   3.388  28.655  0.00  0.00    -0.211 NA
ATOM     10  N   UNL     1     -16.518   5.628  29.421  0.00  0.00    -0.223 NA
ATOM     17  C   UNL     1     -16.524   4.656  28.470  0.00  0.00    +0.216 A 
ATOM     21  C   UNL     1     -15.589   3.104  29.882  0.00  0.00    +0.111 A 
ATOM     24  C   UNL     1     -16.020   5.277  30.625  0.00  0.00    +0.116 A 
ATOM     26  C   UNL     1     -15.537   4.017  30.916  0.00  0.00    +0.051 A 
ATOM     33  H   UNL     1     -17.312   5.945  27.080  0.00  0.00    +0.149 HD
BRANCH  21  27
ATOM      6  O   UNL     1     -13.774   1.595  29.962  0.00  0.00    -0.461 OA
ATOM     27  C   UNL     1     -15.119   1.755  30.047  0.00  0.00    +0.153 A 
ATOM     29  C   UNL     1     -15.739   0.551  30.278  0.00  0.00    +0.051 A 
ATOM     30  C   UNL     1     -14.706  -0.415  30.339  0.00  0.00    +0.042 A 
ATOM     31  C   UNL     1     -13.530   0.270  30.141  0.00  0.00    +0.196 A 
ENDBRANCH  21  27
ENDBRANCH  14   8
BRANCH  13   7
ATOM      7  N   UNL     1     -15.120   5.675  22.407  0.00  0.00    -0.182 NA
ATOM     32  H   UNL     1     -14.243   5.230  22.705  0.00  0.00    +0.148 HD
BRANCH   7   1
ATOM      1  S   UNL     1     -15.116   7.338  22.064  0.00  0.00    +0.059 S 
ATOM      4  O   UNL     1     -14.645   8.068  23.225  0.00  0.00    -0.153 OA
ATOM      5  O   UNL     1     -16.378   7.691  21.444  0.00  0.00    -0.153 OA
BRANCH   1  18
ATOM     18  C   UNL     1     -13.876   7.450  20.810  0.00  0.00    +0.105 A 
ATOM     19  C   UNL     1     -14.248   7.783  19.519  0.00  0.00    +0.029 A 
ATOM     20  C   UNL     1     -12.556   7.202  21.141  0.00  0.00    +0.029 A 
ATOM     22  C   UNL     1     -13.270   7.872  18.529  0.00  0.00    +0.005 A 
ATOM     23  C   UNL     1     -11.577   7.291  20.152  0.00  0.00    +0.005 A 
ATOM     25  C   UNL     1     -11.934   7.627  18.845  0.00  0.00    -0.050 A 
ATOM     28  C   UNL     1     -10.887   7.722  17.788  0.00  0.00    +0.044 C 
ENDBRANCH   1  18
ENDBRANCH   7   1
ENDBRANCH  13   7
TORSDOF 5
ENDMDL
MODEL 8
REMARK VINA RESULT:      -7.1      6.854     11.062
REMARK  Name = 11912978
REMARK  6 active torsions:
REMARK  status: ('A' for Active; 'I' for Inactive)
REMARK    1  A    between atoms: S_1  and  N_7
REMARK    2  A    between atoms: S_1  and  C_18
REMARK    3  A    between atoms: N_7  and  C_13
REMARK    4  A    between atoms: N_8  and  C_14
REMARK    5  A    between atoms: C_21  and  C_27
REMARK    6  A    between atoms: C_25  and  C_28
REMARK                            x       y       z     vdW  Elec       q    Type
REMARK                         _______ _______ _______ _____ _____    ______ ____
ROOT
ATOM      2  O   UNL     1      13.969  11.315  17.519  0.00  0.00    -0.370 OA
ATOM      3  O   UNL     1      14.281   8.350  16.599  0.00  0.00    -0.370 OA
ATOM     11  C   UNL     1      13.308   9.371  16.319  0.00  0.00    +0.170 C 
ATOM     12  C   UNL     1      13.110  10.166  17.595  0.00  0.00    +0.171 C 
ATOM     13  C   UNL     1      13.868  10.378  15.341  0.00  0.00    +0.133 C 
ATOM     14  C   UNL     1      13.576   9.234  18.688  0.00  0.00    +0.130 C 
ATOM     15  C   UNL     1      14.640  11.319  16.249  0.00  0.00    +0.183 C 
ATOM     16  C   UNL     1      14.637   8.405  17.988  0.00  0.00    +0.185 C 
ENDROOT
BRANCH  14   8
ATOM      8  N   UNL     1      12.484   8.389  19.118  0.00  0.00    -0.306 N 
ATOM      9  N   UNL     1      12.269   9.519  21.163  0.00  0.00    -0.211 NA
ATOM     10  N   UNL     1      10.827   7.669  20.614  0.00  0.00    -0.223 NA
ATOM     17  C   UNL     1      11.841   8.530  20.334  0.00  0.00    +0.216 A 
ATOM     21  C   UNL     1      11.620   9.628  22.340  0.00  0.00    +0.111 A 
ATOM     24  C   UNL     1      10.221   7.834  21.809  0.00  0.00    +0.116 A 
ATOM     26  C   UNL     1      10.579   8.806  22.721  0.00  0.00    +0.051 A 
ATOM     33  H   UNL     1      12.122   7.684  18.486  0.00  0.00    +0.149 HD
BRANCH  21  27
ATOM      6  O   UNL     1      11.334  10.929  24.291  0.00  0.00    -0.461 OA
ATOM     27  C   UNL     1      12.096  10.682  23.195  0.00  0.00    +0.153 A 
ATOM     29  C   UNL     1      13.180  11.526  23.156  0.00  0.00    +0.051 A 
ATOM     30  C   UNL     1      13.077  12.347  24.304  0.00  0.00    +0.042 A 
ATOM     31  C   UNL     1      11.938  11.945  24.962  0.00  0.00    +0.196 A 
ENDBRANCH  21  27
ENDBRANCH  14   8
BRANCH  13   7
ATOM      7  N   UNL     1      12.812  11.072  14.644  0.00  0.00    -0.182 NA
ATOM     32  H   UNL     1      11.911  10.586  14.557  0.00  0.00    +0.148 HD
BRANCH   7   1
ATOM      1  S   UNL     1      13.197  12.286  13.520  0.00  0.00    +0.059 S 
ATOM      4  O   UNL     1      14.395  11.909  12.795  0.00  0.00    -0.153 OA
ATOM      5  O   UNL     1      13.118  13.575  14.179  0.00  0.00    -0.153 OA
BRANCH   1  18
ATOM     18  C   UNL     1      11.831  12.194  12.402  0.00  0.00    +0.105 A 
ATOM     19  C   UNL     1      12.074  12.160  11.040  0.00  0.00    +0.029 A 
ATOM     20  C   UNL     1      10.545  12.158  12.910  0.00  0.00    +0.029 A 
ATOM     22  C   UNL     1      10.996  12.087  10.158  0.00  0.00    +0.005 A 
ATOM     23  C   UNL     1       9.467  12.084  12.028  0.00  0.00    +0.005 A 
ATOM     25  C   UNL     1       9.693  12.048  10.651  0.00  0.00    -0.050 A 
ATOM     28  C   UNL     1       8.540  11.969   9.709  0.00  0.00    +0.044 C 
ENDBRANCH   1  18
ENDBRANCH   7   1
ENDBRANCH  13   7
TORSDOF 5
ENDMDL
MODEL 9
REMARK VINA RESULT:      -7.1     27.133     31.266
REMARK  Name = 11912978
REMARK  6 active torsions:
REMARK  status: ('A' for Active; 'I' for Inactive)
REMARK    1  A    between atoms: S_1  and  N_7
REMARK    2  A    between atoms: S_1  and  C_18
REMARK    3  A    between atoms: N_7  and  C_13
REMARK    4  A    between atoms: N_8  and  C_14
REMARK    5  A    between atoms: C_21  and  C_27
REMARK    6  A    between atoms: C_25  and  C_28
REMARK                            x       y       z     vdW  Elec       q    Type
REMARK                         _______ _______ _______ _____ _____    ______ ____
ROOT
ATOM      2  O   UNL     1      -7.887 -11.388  15.885  0.00  0.00    -0.370 OA
ATOM      3  O   UNL     1      -6.699 -13.431  17.923  0.00  0.00    -0.370 OA
ATOM     11  C   UNL     1      -7.103 -12.055  18.030  0.00  0.00    +0.170 C 
ATOM     12  C   UNL     1      -6.725 -11.372  16.730  0.00  0.00    +0.171 C 
ATOM     13  C   UNL     1      -8.611 -11.952  18.074  0.00  0.00    +0.133 C 
ATOM     14  C   UNL     1      -5.644 -12.253  16.151  0.00  0.00    +0.130 C 
ATOM     15  C   UNL     1      -8.982 -11.979  16.602  0.00  0.00    +0.183 C 
ATOM     16  C   UNL     1      -6.017 -13.627  16.676  0.00  0.00    +0.185 C 
ENDROOT
BRANCH  14   8
ATOM      8  N   UNL     1      -4.351 -11.855  16.664  0.00  0.00    -0.306 N 
ATOM      9  N   UNL     1      -3.650 -11.039  14.579  0.00  0.00    -0.211 NA
ATOM     10  N   UNL     1      -2.201 -10.931  16.501  0.00  0.00    -0.223 NA
ATOM     17  C   UNL     1      -3.372 -11.257  15.891  0.00  0.00    +0.216 A 
ATOM     21  C   UNL     1      -2.673 -10.455  13.855  0.00  0.00    +0.111 A 
ATOM     24  C   UNL     1      -1.268 -10.349  15.719  0.00  0.00    +0.116 A 
ATOM     26  C   UNL     1      -1.451 -10.084  14.376  0.00  0.00    +0.051 A 
ATOM     33  H   UNL     1      -4.154 -11.963  17.653  0.00  0.00    +0.149 HD
BRANCH  21  27
ATOM      6  O   UNL     1      -4.318 -10.299  12.167  0.00  0.00    -0.461 OA
ATOM     27  C   UNL     1      -2.997 -10.238  12.470  0.00  0.00    +0.153 A 
ATOM     29  C   UNL     1      -2.251  -9.975  11.347  0.00  0.00    +0.051 A 
ATOM     30  C   UNL     1      -3.175  -9.868  10.281  0.00  0.00    +0.042 A 
ATOM     31  C   UNL     1      -4.419 -10.073  10.831  0.00  0.00    +0.196 A 
ENDBRANCH  21  27
ENDBRANCH  14   8
BRANCH  13   7
ATOM      7  N   UNL     1      -9.031 -10.720  18.697  0.00  0.00    -0.182 NA
ATOM     32  H   UNL     1      -8.327 -10.207  19.242  0.00  0.00    +0.148 HD
BRANCH   7   1
ATOM      1  S   UNL     1     -10.675 -10.466  19.043  0.00  0.00    +0.059 S 
ATOM      4  O   UNL     1     -10.809  -9.941  20.388  0.00  0.00    -0.153 OA
ATOM      5  O   UNL     1     -11.424 -11.641  18.641  0.00  0.00    -0.153 OA
BRANCH   1  18
ATOM     18  C   UNL     1     -11.092  -9.176  17.909  0.00  0.00    +0.105 A 
ATOM     19  C   UNL     1     -10.110  -8.288  17.505  0.00  0.00    +0.029 A 
ATOM     20  C   UNL     1     -12.392  -9.079  17.446  0.00  0.00    +0.029 A 
ATOM     22  C   UNL     1     -10.439  -7.271  16.609  0.00  0.00    +0.005 A 
ATOM     23  C   UNL     1     -12.721  -8.062  16.550  0.00  0.00    +0.005 A 
ATOM     25  C   UNL     1     -11.744  -7.158  16.131  0.00  0.00    -0.050 A 
ATOM     28  C   UNL     1     -12.096  -6.071  15.173  0.00  0.00    +0.044 C 
ENDBRANCH   1  18
ENDBRANCH   7   1
ENDBRANCH  13   7
TORSDOF 5
ENDMDL
MODEL 10
REMARK VINA RESULT:      -7.0     28.088     30.278
REMARK  Name = 11912978
REMARK  6 active torsions:
REMARK  status: ('A' for Active; 'I' for Inactive)
REMARK    1  A    between atoms: S_1  and  N_7
REMARK    2  A    between atoms: S_1  and  C_18
REMARK    3  A    between atoms: N_7  and  C_13
REMARK    4  A    between atoms: N_8  and  C_14
REMARK    5  A    between atoms: C_21  and  C_27
REMARK    6  A    between atoms: C_25  and  C_28
REMARK                            x       y       z     vdW  Elec       q    Type
REMARK                         _______ _______ _______ _____ _____    ______ ____
ROOT
ATOM      2  O   UNL     1      -4.933 -11.615  10.449  0.00  0.00    -0.370 OA
ATOM      3  O   UNL     1      -3.551  -8.823  10.272  0.00  0.00    -0.370 OA
ATOM     11  C   UNL     1      -4.307  -9.485  11.301  0.00  0.00    +0.170 C 
ATOM     12  C   UNL     1      -5.409 -10.270  10.617  0.00  0.00    +0.171 C 
ATOM     13  C   UNL     1      -3.464 -10.544  11.974  0.00  0.00    +0.133 C 
ATOM     14  C   UNL     1      -5.562  -9.597   9.273  0.00  0.00    +0.130 C 
ATOM     15  C   UNL     1      -3.631 -11.732  11.044  0.00  0.00    +0.183 C 
ATOM     16  C   UNL     1      -4.163  -9.077   8.999  0.00  0.00    +0.185 C 
ENDROOT
BRANCH  14   8
ATOM      8  N   UNL     1      -6.495  -8.495   9.375  0.00  0.00    -0.306 N 
ATOM      9  N   UNL     1      -7.209  -8.750   7.154  0.00  0.00    -0.211 NA
ATOM     10  N   UNL     1      -8.139  -7.032   8.564  0.00  0.00    -0.223 NA
ATOM     17  C   UNL     1      -7.305  -8.081   8.333  0.00  0.00    +0.216 A 
ATOM     21  C   UNL     1      -8.013  -8.319   6.161  0.00  0.00    +0.111 A 
ATOM     24  C   UNL     1      -8.915  -6.653   7.527  0.00  0.00    +0.116 A 
ATOM     26  C   UNL     1      -8.895  -7.266   6.290  0.00  0.00    +0.051 A 
ATOM     33  H   UNL     1      -6.613  -8.024  10.265  0.00  0.00    +0.149 HD
BRANCH  21  27
ATOM      6  O   UNL     1      -8.344  -8.400   3.824  0.00  0.00    -0.461 OA
ATOM     27  C   UNL     1      -7.889  -9.047   4.926  0.00  0.00    +0.153 A 
ATOM     29  C   UNL     1      -7.399 -10.288   4.596  0.00  0.00    +0.051 A 
ATOM     30  C   UNL     1      -7.565 -10.413   3.196  0.00  0.00    +0.042 A 
ATOM     31  C   UNL     1      -8.144  -9.239   2.773  0.00  0.00    +0.196 A 
ENDBRANCH  21  27
ENDBRANCH  14   8
BRANCH  13   7
ATOM      7  N   UNL     1      -3.958 -10.841  13.297  0.00  0.00    -0.182 NA
ATOM     32  H   UNL     1      -4.898 -10.499  13.533  0.00  0.00    +0.148 HD
BRANCH   7   1
ATOM      1  S   UNL     1      -2.863 -11.155  14.557  0.00  0.00    +0.059 S 
ATOM      4  O   UNL     1      -1.844 -10.123  14.578  0.00  0.00    -0.153 OA
ATOM      5  O   UNL     1      -2.484 -12.554  14.509  0.00  0.00    -0.153 OA
BRANCH   1  18
ATOM     18  C   UNL     1      -3.882 -10.945  15.986  0.00  0.00    +0.105 A 
ATOM     19  C   UNL     1      -5.067 -10.240  15.874  0.00  0.00    +0.029 A 
ATOM     20  C   UNL     1      -3.475 -11.491  17.191  0.00  0.00    +0.029 A 
ATOM     22  C   UNL     1      -5.872 -10.076  17.001  0.00  0.00    +0.005 A 
ATOM     23  C   UNL     1      -4.280 -11.327  18.318  0.00  0.00    +0.005 A 
ATOM     25  C   UNL     1      -5.479 -10.620  18.223  0.00  0.00    -0.050 A 
ATOM     28  C   UNL     1      -6.338 -10.445  19.429  0.00  0.00    +0.044 C 
ENDBRANCH   1  18
ENDBRANCH   7   1
ENDBRANCH  13   7
TORSDOF 5
ENDMDL
