MODEL 1
REMARK VINA RESULT:      -7.3      0.000      0.000
REMARK  Name = 51137845
REMARK  3 active torsions:
REMARK  status: ('A' for Active; 'I' for Inactive)
REMARK    1  A    between atoms: C_8  and  C_12
REMARK    2  A    between atoms: C_13  and  C_14
REMARK    3  A    between atoms: C_15  and  C_18
REMARK                            x       y       z     vdW  Elec       q    Type
REMARK                         _______ _______ _______ _____ _____    ______ ____
ROOT
ATOM      2  O   UNL     1      13.522  10.999  19.429  0.00  0.00    -0.270 OA
ATOM      3  N   UNL     1      13.704   8.757  20.011  0.00  0.00    -0.297 N 
ATOM      8  C   UNL     1      14.517   6.637  20.721  0.00  0.00    +0.095 C 
ATOM      9  C   UNL     1      14.521   7.615  21.907  0.00  0.00    +0.033 C 
ATOM     10  C   UNL     1      13.555   7.326  19.744  0.00  0.00    +0.121 C 
ATOM     11  C   UNL     1      14.431   8.986  21.250  0.00  0.00    +0.109 C 
ATOM     13  C   UNL     1      13.310   9.810  19.200  0.00  0.00    +0.247 C 
ENDROOT
BRANCH  13  14
ATOM      6  N   UNL     1      11.231   8.850  15.599  0.00  0.00    -0.263 NA
ATOM     14  C   UNL     1      12.593   9.479  17.958  0.00  0.00    +0.040 A 
ATOM     16  C   UNL     1      11.348   8.864  18.014  0.00  0.00    +0.033 A 
ATOM     17  C   UNL     1      13.159   9.780  16.724  0.00  0.00    +0.033 A 
ATOM     19  C   UNL     1      10.713   8.573  16.818  0.00  0.00    +0.111 A 
ATOM     20  C   UNL     1      12.444   9.447  15.585  0.00  0.00    +0.111 A 
ENDBRANCH  13  14
BRANCH   8  12
ATOM      1  O   UNL     1      16.936   6.489  21.115  0.00  0.00    -0.420 OA
ATOM      4  N   UNL     1      16.326   6.024  19.012  0.00  0.00    -0.112 NA
ATOM      5  N   UNL     1      17.701   5.905  19.095  0.00  0.00    -0.107 NA
ATOM     12  C   UNL     1      15.922   6.366  20.214  0.00  0.00    +0.222 A 
ATOM     15  C   UNL     1      18.012   6.185  20.339  0.00  0.00    +0.250 A 
BRANCH  15  18
ATOM      7  N   UNL     1      20.664   7.072  22.791  0.00  0.00    -0.263 NA
ATOM     18  C   UNL     1      19.288   6.220  20.995  0.00  0.00    +0.057 A 
ATOM     21  C   UNL     1      20.361   5.480  20.512  0.00  0.00    +0.016 A 
ATOM     22  C   UNL     1      19.489   6.993  22.126  0.00  0.00    +0.124 A 
ATOM     23  C   UNL     1      21.586   5.534  21.169  0.00  0.00    +0.020 A 
ATOM     24  C   UNL     1      21.685   6.338  22.292  0.00  0.00    +0.111 A 
ENDBRANCH  15  18
ENDBRANCH   8  12
TORSDOF 3
ENDMDL
MODEL 2
REMARK VINA RESULT:      -6.8      2.905      4.506
REMARK  Name = 51137845
REMARK  3 active torsions:
REMARK  status: ('A' for Active; 'I' for Inactive)
REMARK    1  A    between atoms: C_8  and  C_12
REMARK    2  A    between atoms: C_13  and  C_14
REMARK    3  A    between atoms: C_15  and  C_18
REMARK                            x       y       z     vdW  Elec       q    Type
REMARK                         _______ _______ _______ _____ _____    ______ ____
ROOT
ATOM      2  O   UNL     1      10.296   9.558  22.380  0.00  0.00    -0.270 OA
ATOM      3  N   UNL     1      11.701   9.690  20.535  0.00  0.00    -0.297 N 
ATOM      8  C   UNL     1      13.189   9.175  18.751  0.00  0.00    +0.095 C 
ATOM      9  C   UNL     1      11.813   8.550  18.472  0.00  0.00    +0.033 C 
ATOM     10  C   UNL     1      12.849  10.234  19.809  0.00  0.00    +0.121 C 
ATOM     11  C   UNL     1      11.128   8.553  19.832  0.00  0.00    +0.109 C 
ATOM     13  C   UNL     1      11.219  10.094  21.771  0.00  0.00    +0.247 C 
ENDROOT
BRANCH  13  14
ATOM      6  N   UNL     1      13.117  13.433  23.628  0.00  0.00    -0.263 NA
ATOM     14  C   UNL     1      11.874  11.246  22.411  0.00  0.00    +0.040 A 
ATOM     16  C   UNL     1      11.386  12.530  22.203  0.00  0.00    +0.033 A 
ATOM     17  C   UNL     1      12.983  11.053  23.227  0.00  0.00    +0.033 A 
ATOM     19  C   UNL     1      12.037  13.581  22.828  0.00  0.00    +0.111 A 
ATOM     20  C   UNL     1      13.563  12.170  23.807  0.00  0.00    +0.111 A 
ENDBRANCH  13  14
BRANCH   8  12
ATOM      1  O   UNL     1      15.370   8.573  19.706  0.00  0.00    -0.420 OA
ATOM      4  N   UNL     1      14.155   6.817  19.034  0.00  0.00    -0.112 NA
ATOM      5  N   UNL     1      15.348   6.342  19.546  0.00  0.00    -0.107 NA
ATOM     12  C   UNL     1      14.212   8.124  19.147  0.00  0.00    +0.222 A 
ATOM     15  C   UNL     1      16.024   7.400  19.926  0.00  0.00    +0.250 A 
BRANCH  15  18
ATOM      7  N   UNL     1      18.848   8.742  21.939  0.00  0.00    -0.263 NA
ATOM     18  C   UNL     1      17.323   7.509  20.525  0.00  0.00    +0.057 A 
ATOM     21  C   UNL     1      18.299   6.544  20.300  0.00  0.00    +0.016 A 
ATOM     22  C   UNL     1      17.645   8.579  21.344  0.00  0.00    +0.124 A 
ATOM     23  C   UNL     1      19.549   6.677  20.895  0.00  0.00    +0.020 A 
ATOM     24  C   UNL     1      19.772   7.785  21.696  0.00  0.00    +0.111 A 
ENDBRANCH  15  18
ENDBRANCH   8  12
TORSDOF 3
ENDMDL
MODEL 3
REMARK VINA RESULT:      -6.5     32.143     33.923
REMARK  Name = 51137845
REMARK  3 active torsions:
REMARK  status: ('A' for Active; 'I' for Inactive)
REMARK    1  A    between atoms: C_8  and  C_12
REMARK    2  A    between atoms: C_13  and  C_14
REMARK    3  A    between atoms: C_15  and  C_18
REMARK                            x       y       z     vdW  Elec       q    Type
REMARK                         _______ _______ _______ _____ _____    ______ ____
ROOT
ATOM      2  O   UNL     1     -12.407   3.464  31.686  0.00  0.00    -0.270 OA
ATOM      3  N   UNL     1     -14.359   2.441  30.951  0.00  0.00    -0.297 N 
ATOM      8  C   UNL     1     -16.055   1.442  29.614  0.00  0.00    +0.095 C 
ATOM      9  C   UNL     1     -14.819   0.528  29.649  0.00  0.00    +0.033 C 
ATOM     10  C   UNL     1     -15.814   2.348  30.830  0.00  0.00    +0.121 C 
ATOM     11  C   UNL     1     -13.699   1.446  30.120  0.00  0.00    +0.109 C 
ATOM     13  C   UNL     1     -13.633   3.377  31.672  0.00  0.00    +0.247 C 
ENDROOT
BRANCH  13  14
ATOM      6  N   UNL     1     -15.827   6.207  33.992  0.00  0.00    -0.263 NA
ATOM     14  C   UNL     1     -14.390   4.353  32.472  0.00  0.00    +0.040 A 
ATOM     16  C   UNL     1     -14.640   4.108  33.817  0.00  0.00    +0.033 A 
ATOM     17  C   UNL     1     -14.856   5.524  31.886  0.00  0.00    +0.033 A 
ATOM     19  C   UNL     1     -15.357   5.058  34.527  0.00  0.00    +0.111 A 
ATOM     20  C   UNL     1     -15.563   6.411  32.682  0.00  0.00    +0.111 A 
ENDBRANCH  13  14
BRANCH   8  12
ATOM      1  O   UNL     1     -16.680   1.382  27.240  0.00  0.00    -0.420 OA
ATOM      4  N   UNL     1     -15.936   3.376  27.935  0.00  0.00    -0.112 NA
ATOM      5  N   UNL     1     -16.249   3.480  26.593  0.00  0.00    -0.107 NA
ATOM     12  C   UNL     1     -16.202   2.134  28.271  0.00  0.00    +0.222 A 
ATOM     15  C   UNL     1     -16.679   2.294  26.231  0.00  0.00    +0.250 A 
BRANCH  15  18
ATOM      7  N   UNL     1     -17.250   2.118  22.560  0.00  0.00    -0.263 NA
ATOM     18  C   UNL     1     -17.139   1.820  24.957  0.00  0.00    +0.057 A 
ATOM     21  C   UNL     1     -17.892   0.656  24.855  0.00  0.00    +0.016 A 
ATOM     22  C   UNL     1     -16.848   2.509  23.791  0.00  0.00    +0.124 A 
ATOM     23  C   UNL     1     -18.324   0.221  23.607  0.00  0.00    +0.020 A 
ATOM     24  C   UNL     1     -17.981   0.982  22.501  0.00  0.00    +0.111 A 
ENDBRANCH  15  18
ENDBRANCH   8  12
TORSDOF 3
ENDMDL
MODEL 4
REMARK VINA RESULT:      -6.4     27.085     29.675
REMARK  Name = 51137845
REMARK  3 active torsions:
REMARK  status: ('A' for Active; 'I' for Inactive)
REMARK    1  A    between atoms: C_8  and  C_12
REMARK    2  A    between atoms: C_13  and  C_14
REMARK    3  A    between atoms: C_15  and  C_18
REMARK                            x       y       z     vdW  Elec       q    Type
REMARK                         _______ _______ _______ _____ _____    ______ ____
ROOT
ATOM      2  O   UNL     1      -4.222 -13.953  15.473  0.00  0.00    -0.270 OA
ATOM      3  N   UNL     1      -4.477 -12.131  16.891  0.00  0.00    -0.297 N 
ATOM      8  C   UNL     1      -5.294 -10.583  18.503  0.00  0.00    +0.095 C 
ATOM      9  C   UNL     1      -4.901 -11.895  19.200  0.00  0.00    +0.033 C 
ATOM     10  C   UNL     1      -4.545 -10.695  17.168  0.00  0.00    +0.121 C 
ATOM     11  C   UNL     1      -4.842 -12.909  18.065  0.00  0.00    +0.109 C 
ATOM     13  C   UNL     1      -4.195 -12.741  15.679  0.00  0.00    +0.247 C 
ENDROOT
BRANCH  13  14
ATOM      6  N   UNL     1      -3.196 -10.215  12.388  0.00  0.00    -0.263 NA
ATOM     14  C   UNL     1      -3.850 -11.870  14.544  0.00  0.00    +0.040 A 
ATOM     16  C   UNL     1      -2.532 -11.481  14.338  0.00  0.00    +0.033 A 
ATOM     17  C   UNL     1      -4.843 -11.432  13.673  0.00  0.00    +0.033 A 
ATOM     19  C   UNL     1      -2.259 -10.660  13.255  0.00  0.00    +0.111 A 
ATOM     20  C   UNL     1      -4.467 -10.614  12.621  0.00  0.00    +0.111 A 
ENDBRANCH  13  14
BRANCH   8  12
ATOM      1  O   UNL     1      -7.280  -9.564  17.478  0.00  0.00    -0.420 OA
ATOM      4  N   UNL     1      -7.744 -10.989  19.140  0.00  0.00    -0.112 NA
ATOM      5  N   UNL     1      -8.939 -10.492  18.656  0.00  0.00    -0.107 NA
ATOM     12  C   UNL     1      -6.802 -10.420  18.423  0.00  0.00    +0.222 A 
ATOM     15  C   UNL     1      -8.620  -9.665  17.688  0.00  0.00    +0.250 A 
BRANCH  15  18
ATOM      7  N   UNL     1     -10.420  -8.501  14.649  0.00  0.00    -0.263 NA
ATOM     18  C   UNL     1      -9.451  -8.866  16.834  0.00  0.00    +0.057 A 
ATOM     21  C   UNL     1     -10.079  -7.721  17.313  0.00  0.00    +0.016 A 
ATOM     22  C   UNL     1      -9.651  -9.209  15.507  0.00  0.00    +0.124 A 
ATOM     23  C   UNL     1     -10.879  -6.967  16.461  0.00  0.00    +0.020 A 
ATOM     24  C   UNL     1     -11.014  -7.395  15.151  0.00  0.00    +0.111 A 
ENDBRANCH  15  18
ENDBRANCH   8  12
TORSDOF 3
ENDMDL
MODEL 5
REMARK VINA RESULT:      -6.3      3.675      5.039
REMARK  Name = 51137845
REMARK  3 active torsions:
REMARK  status: ('A' for Active; 'I' for Inactive)
REMARK    1  A    between atoms: C_8  and  C_12
REMARK    2  A    between atoms: C_13  and  C_14
REMARK    3  A    between atoms: C_15  and  C_18
REMARK                            x       y       z     vdW  Elec       q    Type
REMARK                         _______ _______ _______ _____ _____    ______ ____
ROOT
ATOM      2  O   UNL     1      10.992  10.700  24.438  0.00  0.00    -0.270 OA
ATOM      3  N   UNL     1      11.186   9.916  22.260  0.00  0.00    -0.297 N 
ATOM      8  C   UNL     1      11.686   8.611  20.335  0.00  0.00    +0.095 C 
ATOM      9  C   UNL     1      10.637   7.885  21.192  0.00  0.00    +0.033 C 
ATOM     10  C   UNL     1      11.585  10.050  20.859  0.00  0.00    +0.121 C 
ATOM     11  C   UNL     1      10.746   8.561  22.552  0.00  0.00    +0.109 C 
ATOM     13  C   UNL     1      11.269  10.879  23.254  0.00  0.00    +0.247 C 
ENDROOT
BRANCH  13  14
ATOM      6  N   UNL     1      12.636  14.760  22.124  0.00  0.00    -0.263 NA
ATOM     14  C   UNL     1      11.740  12.217  22.865  0.00  0.00    +0.040 A 
ATOM     16  C   UNL     1      13.084  12.550  22.994  0.00  0.00    +0.033 A 
ATOM     17  C   UNL     1      10.844  13.155  22.364  0.00  0.00    +0.033 A 
ATOM     19  C   UNL     1      13.478  13.822  22.614  0.00  0.00    +0.111 A 
ATOM     20  C   UNL     1      11.337  14.401  22.012  0.00  0.00    +0.111 A 
ENDBRANCH  13  14
BRANCH   8  12
ATOM      1  O   UNL     1      14.086   8.727  20.846  0.00  0.00    -0.420 OA
ATOM      4  N   UNL     1      13.394   6.705  20.183  0.00  0.00    -0.112 NA
ATOM      5  N   UNL     1      14.751   6.631  20.435  0.00  0.00    -0.107 NA
ATOM     12  C   UNL     1      13.048   7.946  20.435  0.00  0.00    +0.222 A 
ATOM     15  C   UNL     1      15.111   7.833  20.819  0.00  0.00    +0.250 A 
BRANCH  15  18
ATOM      7  N   UNL     1      17.750  10.218  21.903  0.00  0.00    -0.263 NA
ATOM     18  C   UNL     1      16.396   8.341  21.207  0.00  0.00    +0.057 A 
ATOM     21  C   UNL     1      17.507   7.506  21.268  0.00  0.00    +0.016 A 
ATOM     22  C   UNL     1      16.569   9.676  21.531  0.00  0.00    +0.124 A 
ATOM     23  C   UNL     1      18.739   8.027  21.647  0.00  0.00    +0.020 A 
ATOM     24  C   UNL     1      18.807   9.377  21.951  0.00  0.00    +0.111 A 
ENDBRANCH  15  18
ENDBRANCH   8  12
TORSDOF 3
ENDMDL
MODEL 6
REMARK VINA RESULT:      -6.3     26.686     28.259
REMARK  Name = 51137845
REMARK  3 active torsions:
REMARK  status: ('A' for Active; 'I' for Inactive)
REMARK    1  A    between atoms: C_8  and  C_12
REMARK    2  A    between atoms: C_13  and  C_14
REMARK    3  A    between atoms: C_15  and  C_18
REMARK                            x       y       z     vdW  Elec       q    Type
REMARK                         _______ _______ _______ _____ _____    ______ ____
ROOT
ATOM      2  O   UNL     1      -5.629 -12.880  11.214  0.00  0.00    -0.270 OA
ATOM      3  N   UNL     1      -3.494 -12.348  11.959  0.00  0.00    -0.297 N 
ATOM      8  C   UNL     1      -1.557 -12.007  13.298  0.00  0.00    +0.095 C 
ATOM      9  C   UNL     1      -1.845 -13.513  13.180  0.00  0.00    +0.033 C 
ATOM     10  C   UNL     1      -2.361 -11.437  12.122  0.00  0.00    +0.121 C 
ATOM     11  C   UNL     1      -3.295 -13.573  12.719  0.00  0.00    +0.109 C 
ATOM     13  C   UNL     1      -4.670 -12.113  11.263  0.00  0.00    +0.247 C 
ENDROOT
BRANCH  13  14
ATOM      6  N   UNL     1      -5.002  -8.418   9.156  0.00  0.00    -0.263 NA
ATOM     14  C   UNL     1      -4.785 -10.839  10.536  0.00  0.00    +0.040 A 
ATOM     16  C   UNL     1      -5.107  -9.672  11.220  0.00  0.00    +0.033 A 
ATOM     17  C   UNL     1      -4.571 -10.796   9.163  0.00  0.00    +0.033 A 
ATOM     19  C   UNL     1      -5.203  -8.498  10.491  0.00  0.00    +0.111 A 
ATOM     20  C   UNL     1      -4.691  -9.572   8.525  0.00  0.00    +0.111 A 
ENDBRANCH  13  14
BRANCH   8  12
ATOM      1  O   UNL     1      -3.229 -11.340  14.969  0.00  0.00    -0.420 OA
ATOM      4  N   UNL     1      -1.112 -11.122  15.663  0.00  0.00    -0.112 NA
ATOM      5  N   UNL     1      -1.943 -10.715  16.690  0.00  0.00    -0.107 NA
ATOM     12  C   UNL     1      -1.905 -11.478  14.679  0.00  0.00    +0.222 A 
ATOM     15  C   UNL     1      -3.168 -10.859  16.240  0.00  0.00    +0.250 A 
BRANCH  15  18
ATOM      7  N   UNL     1      -6.628  -9.598  16.752  0.00  0.00    -0.263 NA
ATOM     18  C   UNL     1      -4.428 -10.593  16.872  0.00  0.00    +0.057 A 
ATOM     21  C   UNL     1      -4.691 -11.038  18.163  0.00  0.00    +0.016 A 
ATOM     22  C   UNL     1      -5.421  -9.884  16.216  0.00  0.00    +0.124 A 
ATOM     23  C   UNL     1      -5.922 -10.764  18.749  0.00  0.00    +0.020 A 
ATOM     24  C   UNL     1      -6.847 -10.046  18.009  0.00  0.00    +0.111 A 
ENDBRANCH  15  18
ENDBRANCH   8  12
TORSDOF 3
ENDMDL
MODEL 7
REMARK VINA RESULT:      -6.2     27.800     29.967
REMARK  Name = 51137845
REMARK  3 active torsions:
REMARK  status: ('A' for Active; 'I' for Inactive)
REMARK    1  A    between atoms: C_8  and  C_12
REMARK    2  A    between atoms: C_13  and  C_14
REMARK    3  A    between atoms: C_15  and  C_18
REMARK                            x       y       z     vdW  Elec       q    Type
REMARK                         _______ _______ _______ _____ _____    ______ ____
ROOT
ATOM      2  O   UNL     1      -4.557 -13.833  15.228  0.00  0.00    -0.270 OA
ATOM      3  N   UNL     1      -4.645 -12.087  16.758  0.00  0.00    -0.297 N 
ATOM      8  C   UNL     1      -5.214 -10.672  18.583  0.00  0.00    +0.095 C 
ATOM      9  C   UNL     1      -4.573 -11.964  19.113  0.00  0.00    +0.033 C 
ATOM     10  C   UNL     1      -4.768 -10.674  17.115  0.00  0.00    +0.121 C 
ATOM     11  C   UNL     1      -4.680 -12.932  17.942  0.00  0.00    +0.109 C 
ATOM     13  C   UNL     1      -4.585 -12.631  15.483  0.00  0.00    +0.247 C 
ENDROOT
BRANCH  13  14
ATOM      6  N   UNL     1      -4.540  -9.922  12.188  0.00  0.00    -0.263 NA
ATOM     14  C   UNL     1      -4.569 -11.697  14.347  0.00  0.00    +0.040 A 
ATOM     16  C   UNL     1      -3.360 -11.287  13.797  0.00  0.00    +0.033 A 
ATOM     17  C   UNL     1      -5.764 -11.220  13.818  0.00  0.00    +0.033 A 
ATOM     19  C   UNL     1      -3.399 -10.407  12.728  0.00  0.00    +0.111 A 
ATOM     20  C   UNL     1      -5.695 -10.343  12.749  0.00  0.00    +0.111 A 
ENDBRANCH  13  14
BRANCH   8  12
ATOM      1  O   UNL     1      -7.459  -9.843  18.029  0.00  0.00    -0.420 OA
ATOM      4  N   UNL     1      -7.419 -11.289  19.737  0.00  0.00    -0.112 NA
ATOM      5  N   UNL     1      -8.731 -10.904  19.532  0.00  0.00    -0.107 NA
ATOM     12  C   UNL     1      -6.711 -10.645  18.837  0.00  0.00    +0.222 A 
ATOM     15  C   UNL     1      -8.706 -10.061  18.527  0.00  0.00    +0.250 A 
BRANCH  15  18
ATOM      7  N   UNL     1     -12.139  -9.121  17.450  0.00  0.00    -0.263 NA
ATOM     18  C   UNL     1      -9.771  -9.346  17.884  0.00  0.00    +0.057 A 
ATOM     21  C   UNL     1      -9.512  -8.230  17.096  0.00  0.00    +0.016 A 
ATOM     22  C   UNL     1     -11.089  -9.747  18.027  0.00  0.00    +0.124 A 
ATOM     23  C   UNL     1     -10.566  -7.558  16.485  0.00  0.00    +0.020 A 
ATOM     24  C   UNL     1     -11.848  -8.040  16.691  0.00  0.00    +0.111 A 
ENDBRANCH  15  18
ENDBRANCH   8  12
TORSDOF 3
ENDMDL
MODEL 8
REMARK VINA RESULT:      -6.2     27.444     29.184
REMARK  Name = 51137845
REMARK  3 active torsions:
REMARK  status: ('A' for Active; 'I' for Inactive)
REMARK    1  A    between atoms: C_8  and  C_12
REMARK    2  A    between atoms: C_13  and  C_14
REMARK    3  A    between atoms: C_15  and  C_18
REMARK                            x       y       z     vdW  Elec       q    Type
REMARK                         _______ _______ _______ _____ _____    ______ ____
ROOT
ATOM      2  O   UNL     1      -6.478 -10.557  19.951  0.00  0.00    -0.270 OA
ATOM      3  N   UNL     1      -6.369 -11.859  18.031  0.00  0.00    -0.297 N 
ATOM      8  C   UNL     1      -5.623 -13.007  16.084  0.00  0.00    +0.095 C 
ATOM      9  C   UNL     1      -4.986 -13.639  17.332  0.00  0.00    +0.033 C 
ATOM     10  C   UNL     1      -6.807 -12.237  16.687  0.00  0.00    +0.121 C 
ATOM     11  C   UNL     1      -5.162 -12.578  18.410  0.00  0.00    +0.109 C 
ATOM     13  C   UNL     1      -6.925 -10.895  18.857  0.00  0.00    +0.247 C 
ENDROOT
BRANCH  13  14
ATOM      6  N   UNL     1     -10.441  -8.911  17.476  0.00  0.00    -0.263 NA
ATOM     14  C   UNL     1      -8.137 -10.211  18.381  0.00  0.00    +0.040 A 
ATOM     16  C   UNL     1      -9.386 -10.593  18.855  0.00  0.00    +0.033 A 
ATOM     17  C   UNL     1      -8.038  -9.178  17.454  0.00  0.00    +0.033 A 
ATOM     19  C   UNL     1     -10.498  -9.918  18.376  0.00  0.00    +0.111 A 
ATOM     20  C   UNL     1      -9.209  -8.566  17.038  0.00  0.00    +0.111 A 
ENDBRANCH  13  14
BRANCH   8  12
ATOM      1  O   UNL     1      -5.053 -11.632  14.130  0.00  0.00    -0.420 OA
ATOM      4  N   UNL     1      -3.356 -11.932  15.558  0.00  0.00    -0.112 NA
ATOM      5  N   UNL     1      -2.903 -11.148  14.514  0.00  0.00    -0.107 NA
ATOM     12  C   UNL     1      -4.616 -12.191  15.293  0.00  0.00    +0.222 A 
ATOM     15  C   UNL     1      -3.926 -10.999  13.706  0.00  0.00    +0.250 A 
BRANCH  15  18
ATOM      7  N   UNL     1      -5.403  -9.009  10.933  0.00  0.00    -0.263 NA
ATOM     18  C   UNL     1      -4.037 -10.285  12.466  0.00  0.00    +0.057 A 
ATOM     21  C   UNL     1      -2.949 -10.167  11.608  0.00  0.00    +0.016 A 
ATOM     22  C   UNL     1      -5.231  -9.695  12.086  0.00  0.00    +0.124 A 
ATOM     23  C   UNL     1      -3.087  -9.468  10.413  0.00  0.00    +0.020 A 
ATOM     24  C   UNL     1      -4.324  -8.915  10.124  0.00  0.00    +0.111 A 
ENDBRANCH  15  18
ENDBRANCH   8  12
TORSDOF 3
ENDMDL
MODEL 9
REMARK VINA RESULT:      -6.1      3.985      6.900
REMARK  Name = 51137845
REMARK  3 active torsions:
REMARK  status: ('A' for Active; 'I' for Inactive)
REMARK    1  A    between atoms: C_8  and  C_12
REMARK    2  A    between atoms: C_13  and  C_14
REMARK    3  A    between atoms: C_15  and  C_18
REMARK                            x       y       z     vdW  Elec       q    Type
REMARK                         _______ _______ _______ _____ _____    ______ ____
ROOT
ATOM      2  O   UNL     1      11.617   7.277  19.674  0.00  0.00    -0.270 OA
ATOM      3  N   UNL     1      13.623   8.302  20.242  0.00  0.00    -0.297 N 
ATOM      8  C   UNL     1      15.305   9.604  21.308  0.00  0.00    +0.095 C 
ATOM      9  C   UNL     1      14.885   8.448  22.230  0.00  0.00    +0.033 C 
ATOM     10  C   UNL     1      14.797   9.122  19.942  0.00  0.00    +0.121 C 
ATOM     11  C   UNL     1      13.547   7.995  21.662  0.00  0.00    +0.109 C 
ATOM     13  C   UNL     1      12.627   7.905  19.362  0.00  0.00    +0.247 C 
ENDROOT
BRANCH  13  14
ATOM      6  N   UNL     1      13.084   8.978  15.258  0.00  0.00    -0.263 NA
ATOM     14  C   UNL     1      12.785   8.275  17.947  0.00  0.00    +0.040 A 
ATOM     16  C   UNL     1      13.977   8.009  17.285  0.00  0.00    +0.033 A 
ATOM     17  C   UNL     1      11.741   8.892  17.266  0.00  0.00    +0.033 A 
ATOM     19  C   UNL     1      14.076   8.377  15.953  0.00  0.00    +0.111 A 
ATOM     20  C   UNL     1      11.939   9.221  15.936  0.00  0.00    +0.111 A 
ENDBRANCH  13  14
BRANCH   8  12
ATOM      1  O   UNL     1      13.744  10.893  22.697  0.00  0.00    -0.420 OA
ATOM      4  N   UNL     1      15.143  12.156  21.490  0.00  0.00    -0.112 NA
ATOM      5  N   UNL     1      14.326  13.000  22.219  0.00  0.00    -0.107 NA
ATOM     12  C   UNL     1      14.768  10.936  21.800  0.00  0.00    +0.222 A 
ATOM     15  C   UNL     1      13.527  12.220  22.908  0.00  0.00    +0.250 A 
BRANCH  15  18
ATOM      7  N   UNL     1      10.920  11.811  25.529  0.00  0.00    -0.263 NA
ATOM     18  C   UNL     1      12.478  12.545  23.831  0.00  0.00    +0.057 A 
ATOM     21  C   UNL     1      11.997  13.845  23.941  0.00  0.00    +0.016 A 
ATOM     22  C   UNL     1      11.910  11.573  24.639  0.00  0.00    +0.124 A 
ATOM     23  C   UNL     1      10.979  14.130  24.845  0.00  0.00    +0.020 A 
ATOM     24  C   UNL     1      10.479  13.087  25.607  0.00  0.00    +0.111 A 
ENDBRANCH  15  18
ENDBRANCH   8  12
TORSDOF 3
ENDMDL
MODEL 10
REMARK VINA RESULT:      -6.1     26.408     28.281
REMARK  Name = 51137845
REMARK  3 active torsions:
REMARK  status: ('A' for Active; 'I' for Inactive)
REMARK    1  A    between atoms: C_8  and  C_12
REMARK    2  A    between atoms: C_13  and  C_14
REMARK    3  A    between atoms: C_15  and  C_18
REMARK                            x       y       z     vdW  Elec       q    Type
REMARK                         _______ _______ _______ _____ _____    ______ ____
ROOT
ATOM      2  O   UNL     1      -3.600 -12.793  11.401  0.00  0.00    -0.270 OA
ATOM      3  N   UNL     1      -2.638 -11.490  13.066  0.00  0.00    -0.297 N 
ATOM      8  C   UNL     1      -1.898 -10.631  15.158  0.00  0.00    +0.095 C 
ATOM      9  C   UNL     1      -1.144 -11.933  14.839  0.00  0.00    +0.033 C 
ATOM     10  C   UNL     1      -2.435 -10.228  13.778  0.00  0.00    +0.121 C 
ATOM     11  C   UNL     1      -1.997 -12.594  13.764  0.00  0.00    +0.109 C 
ATOM     13  C   UNL     1      -3.396 -11.700  11.925  0.00  0.00    +0.247 C 
ENDROOT
BRANCH  13  14
ATOM      6  N   UNL     1      -5.199  -8.287  10.106  0.00  0.00    -0.263 NA
ATOM     14  C   UNL     1      -4.017 -10.523  11.297  0.00  0.00    +0.040 A 
ATOM     16  C   UNL     1      -3.403  -9.902  10.216  0.00  0.00    +0.033 A 
ATOM     17  C   UNL     1      -5.223 -10.027  11.783  0.00  0.00    +0.033 A 
ATOM     19  C   UNL     1      -4.028  -8.797   9.661  0.00  0.00    +0.111 A 
ATOM     20  C   UNL     1      -5.767  -8.917  11.158  0.00  0.00    +0.111 A 
ENDBRANCH  13  14
BRANCH   8  12
ATOM      1  O   UNL     1      -4.179 -10.350  16.022  0.00  0.00    -0.420 OA
ATOM      4  N   UNL     1      -2.802 -11.422  17.423  0.00  0.00    -0.112 NA
ATOM      5  N   UNL     1      -4.042 -11.332  18.027  0.00  0.00    -0.107 NA
ATOM     12  C   UNL     1      -2.928 -10.836  16.255  0.00  0.00    +0.222 A 
ATOM     15  C   UNL     1      -4.813 -10.699  17.174  0.00  0.00    +0.250 A 
BRANCH  15  18
ATOM      7  N   UNL     1      -8.092  -9.171  16.311  0.00  0.00    -0.263 NA
ATOM     18  C   UNL     1      -6.195 -10.326  17.267  0.00  0.00    +0.057 A 
ATOM     21  C   UNL     1      -6.973 -10.723  18.349  0.00  0.00    +0.016 A 
ATOM     22  C   UNL     1      -6.796  -9.557  16.284  0.00  0.00    +0.124 A 
ATOM     23  C   UNL     1      -8.310 -10.346  18.412  0.00  0.00    +0.020 A 
ATOM     24  C   UNL     1      -8.816  -9.576  17.378  0.00  0.00    +0.111 A 
ENDBRANCH  15  18
ENDBRANCH   8  12
TORSDOF 3
ENDMDL
