MODEL 1
REMARK VINA RESULT:      -7.2      0.000      0.000
REMARK  Name = 40777891
REMARK  10 active torsions:
REMARK  status: ('A' for Active; 'I' for Inactive)
REMARK    1  A    between atoms: O_3  and  C_11
REMARK    2  A    between atoms: O_4  and  C_12
REMARK    3  A    between atoms: O_5  and  C_21
REMARK    4  A    between atoms: O_5  and  C_23
REMARK    5  A    between atoms: N_9  and  C_20
REMARK    6  A    between atoms: C_10  and  C_15
REMARK    7  A    between atoms: C_13  and  C_20
REMARK    8  A    between atoms: C_14  and  C_21
REMARK    9  A    between atoms: C_15  and  C_19
REMARK   10  A    between atoms: C_22  and  C_24
REMARK                            x       y       z     vdW  Elec       q    Type
REMARK                         _______ _______ _______ _____ _____    ______ ____
ROOT
ATOM      2  O   UNL     1      12.036   6.347  19.503  0.00  0.00    -0.366 OA
ATOM     10  C   UNL     1      13.074   6.960  18.705  0.00  0.00    +0.159 C 
ATOM     11  C   UNL     1      14.226   7.263  19.657  0.00  0.00    +0.175 C 
ATOM     12  C   UNL     1      13.503   7.465  20.972  0.00  0.00    +0.176 C 
ATOM     13  C   UNL     1      12.417   6.405  20.889  0.00  0.00    +0.167 C 
ENDROOT
BRANCH  11   3
ATOM      3  O   UNL     1      15.061   6.107  19.724  0.00  0.00    -0.387 OA
ATOM     30  H   UNL     1      15.881   6.311  19.243  0.00  0.00    +0.210 HD
ENDBRANCH  11   3
BRANCH  12   4
ATOM      4  O   UNL     1      14.333   7.286  22.100  0.00  0.00    -0.387 OA
ATOM     31  H   UNL     1      15.214   7.624  21.871  0.00  0.00    +0.210 HD
ENDBRANCH  12   4
BRANCH  10  15
ATOM     15  C   UNL     1      12.491   8.209  18.060  0.00  0.00    +0.130 C 
BRANCH  15  19
ATOM      6  O   UNL     1      13.884   8.088  16.133  0.00  0.00    -0.276 OA
ATOM      8  N   UNL     1      13.844  10.097  17.283  0.00  0.00    -0.296 N 
ATOM     14  C   UNL     1      14.857  10.774  16.470  0.00  0.00    +0.102 C 
ATOM     16  C   UNL     1      15.248  11.988  17.316  0.00  0.00    +0.026 C 
ATOM     17  C   UNL     1      13.380  10.952  18.372  0.00  0.00    +0.108 C 
ATOM     18  C   UNL     1      13.965  12.322  18.068  0.00  0.00    +0.021 C 
ATOM     19  C   UNL     1      13.470   8.780  17.066  0.00  0.00    +0.218 C 
BRANCH  14  21
ATOM     21  C   UNL     1      14.303  11.175  15.106  0.00  0.00    +0.181 C 
BRANCH  21   5
ATOM      5  O   UNL     1      15.163  10.665  14.104  0.00  0.00    -0.381 OA
ATOM     23  C   UNL     1      15.532  11.669  13.165  0.00  0.00    +0.194 C 
ENDBRANCH  21   5
ENDBRANCH  14  21
ENDBRANCH  15  19
ENDBRANCH  10  15
BRANCH  13  20
ATOM     20  C   UNL     1      11.200   6.723  21.740  0.00  0.00    +0.138 C 
BRANCH  20   9
ATOM      7  O   UNL     1      10.485   9.192  20.461  0.00  0.00    -0.270 OA
ATOM      9  N   UNL     1      11.291   8.036  22.305  0.00  0.00    -0.309 N 
ATOM     22  C   UNL     1      10.920   9.185  21.610  0.00  0.00    +0.244 C 
ATOM     32  H   UNL     1      11.592   8.098  23.272  0.00  0.00    +0.149 HD
BRANCH  22  24
ATOM      1  F   UNL     1      10.750  11.841  25.680  0.00  0.00    -0.205 F 
ATOM     24  C   UNL     1      11.100  10.474  22.327  0.00  0.00    +0.039 A 
ATOM     25  C   UNL     1      10.834  10.554  23.694  0.00  0.00    +0.051 A 
ATOM     26  C   UNL     1      11.534  11.603  21.633  0.00  0.00    +0.013 A 
ATOM     27  C   UNL     1      11.005  11.764  24.367  0.00  0.00    +0.124 A 
ATOM     28  C   UNL     1      11.704  12.813  22.305  0.00  0.00    +0.004 A 
ATOM     29  C   UNL     1      11.439  12.894  23.673  0.00  0.00    +0.038 A 
ENDBRANCH  22  24
ENDBRANCH  20   9
ENDBRANCH  13  20
TORSDOF 9
ENDMDL
MODEL 2
REMARK VINA RESULT:      -6.9      4.010      7.359
REMARK  Name = 40777891
REMARK  10 active torsions:
REMARK  status: ('A' for Active; 'I' for Inactive)
REMARK    1  A    between atoms: O_3  and  C_11
REMARK    2  A    between atoms: O_4  and  C_12
REMARK    3  A    between atoms: O_5  and  C_21
REMARK    4  A    between atoms: O_5  and  C_23
REMARK    5  A    between atoms: N_9  and  C_20
REMARK    6  A    between atoms: C_10  and  C_15
REMARK    7  A    between atoms: C_13  and  C_20
REMARK    8  A    between atoms: C_14  and  C_21
REMARK    9  A    between atoms: C_15  and  C_19
REMARK   10  A    between atoms: C_22  and  C_24
REMARK                            x       y       z     vdW  Elec       q    Type
REMARK                         _______ _______ _______ _____ _____    ______ ____
ROOT
ATOM      2  O   UNL     1      12.839   8.339  22.047  0.00  0.00    -0.366 OA
ATOM     10  C   UNL     1      11.436   8.080  22.281  0.00  0.00    +0.159 C 
ATOM     11  C   UNL     1      11.038   6.967  21.316  0.00  0.00    +0.175 C 
ATOM     12  C   UNL     1      12.002   7.186  20.168  0.00  0.00    +0.176 C 
ATOM     13  C   UNL     1      13.271   7.577  20.906  0.00  0.00    +0.167 C 
ENDROOT
BRANCH  11   3
ATOM      3  O   UNL     1      11.301   5.716  21.951  0.00  0.00    -0.387 OA
ATOM     30  H   UNL     1      11.478   5.897  22.890  0.00  0.00    +0.210 HD
ENDBRANCH  11   3
BRANCH  12   4
ATOM      4  O   UNL     1      12.186   6.039  19.367  0.00  0.00    -0.387 OA
ATOM     31  H   UNL     1      12.137   5.263  19.950  0.00  0.00    +0.210 HD
ENDBRANCH  12   4
BRANCH  10  15
ATOM     15  C   UNL     1      10.675   9.376  22.040  0.00  0.00    +0.130 C 
BRANCH  15  19
ATOM      6  O   UNL     1      11.012  10.392  24.167  0.00  0.00    -0.276 OA
ATOM      8  N   UNL     1      11.889  11.484  22.324  0.00  0.00    -0.296 N 
ATOM     14  C   UNL     1      12.382  12.659  23.045  0.00  0.00    +0.102 C 
ATOM     16  C   UNL     1      12.656  13.677  21.936  0.00  0.00    +0.026 C 
ATOM     17  C   UNL     1      12.136  11.600  20.889  0.00  0.00    +0.108 C 
ATOM     18  C   UNL     1      13.050  12.808  20.748  0.00  0.00    +0.021 C 
ATOM     19  C   UNL     1      11.201  10.457  22.950  0.00  0.00    +0.218 C 
BRANCH  14  21
ATOM     21  C   UNL     1      13.637  12.334  23.852  0.00  0.00    +0.181 C 
BRANCH  21   5
ATOM      5  O   UNL     1      13.748  13.271  24.906  0.00  0.00    -0.381 OA
ATOM     23  C   UNL     1      12.628  13.217  25.782  0.00  0.00    +0.194 C 
ENDBRANCH  21   5
ENDBRANCH  14  21
ENDBRANCH  15  19
ENDBRANCH  10  15
BRANCH  13  20
ATOM     20  C   UNL     1      14.223   8.410  20.066  0.00  0.00    +0.138 C 
BRANCH  20   9
ATOM      7  O   UNL     1      15.822   6.200  19.169  0.00  0.00    -0.270 OA
ATOM      9  N   UNL     1      15.588   8.146  20.412  0.00  0.00    -0.309 N 
ATOM     22  C   UNL     1      16.290   7.044  19.929  0.00  0.00    +0.244 C 
ATOM     32  H   UNL     1      16.053   8.833  20.995  0.00  0.00    +0.149 HD
BRANCH  22  24
ATOM      1  F   UNL     1      20.491   4.598  20.080  0.00  0.00    -0.205 F 
ATOM     24  C   UNL     1      17.690   6.897  20.404  0.00  0.00    +0.039 A 
ATOM     25  C   UNL     1      18.448   5.794  20.011  0.00  0.00    +0.051 A 
ATOM     26  C   UNL     1      18.246   7.863  21.243  0.00  0.00    +0.013 A 
ATOM     27  C   UNL     1      19.763   5.658  20.457  0.00  0.00    +0.124 A 
ATOM     28  C   UNL     1      19.560   7.727  21.689  0.00  0.00    +0.004 A 
ATOM     29  C   UNL     1      20.319   6.624  21.296  0.00  0.00    +0.038 A 
ENDBRANCH  22  24
ENDBRANCH  20   9
ENDBRANCH  13  20
TORSDOF 9
ENDMDL
MODEL 3
REMARK VINA RESULT:      -6.9      3.433      7.079
REMARK  Name = 40777891
REMARK  10 active torsions:
REMARK  status: ('A' for Active; 'I' for Inactive)
REMARK    1  A    between atoms: O_3  and  C_11
REMARK    2  A    between atoms: O_4  and  C_12
REMARK    3  A    between atoms: O_5  and  C_21
REMARK    4  A    between atoms: O_5  and  C_23
REMARK    5  A    between atoms: N_9  and  C_20
REMARK    6  A    between atoms: C_10  and  C_15
REMARK    7  A    between atoms: C_13  and  C_20
REMARK    8  A    between atoms: C_14  and  C_21
REMARK    9  A    between atoms: C_15  and  C_19
REMARK   10  A    between atoms: C_22  and  C_24
REMARK                            x       y       z     vdW  Elec       q    Type
REMARK                         _______ _______ _______ _____ _____    ______ ____
ROOT
ATOM      2  O   UNL     1      13.212   7.460  20.933  0.00  0.00    -0.366 OA
ATOM     10  C   UNL     1      12.259   8.284  21.643  0.00  0.00    +0.159 C 
ATOM     11  C   UNL     1      11.094   8.515  20.685  0.00  0.00    +0.175 C 
ATOM     12  C   UNL     1      11.776   8.431  19.335  0.00  0.00    +0.176 C 
ATOM     13  C   UNL     1      12.780   7.315  19.569  0.00  0.00    +0.167 C 
ENDROOT
BRANCH  11   3
ATOM      3  O   UNL     1      10.172   7.437  20.842  0.00  0.00    -0.387 OA
ATOM     30  H   UNL     1       9.931   7.394  21.783  0.00  0.00    +0.210 HD
ENDBRANCH  11   3
BRANCH  12   4
ATOM      4  O   UNL     1      10.889   8.133  18.279  0.00  0.00    -0.387 OA
ATOM     31  H   UNL     1      11.409   8.106  17.458  0.00  0.00    +0.210 HD
ENDBRANCH  12   4
BRANCH  10  15
ATOM     15  C   UNL     1      12.962   9.572  22.047  0.00  0.00    +0.130 C 
BRANCH  15  19
ATOM      6  O   UNL     1      11.284  10.208  23.611  0.00  0.00    -0.276 OA
ATOM      8  N   UNL     1      11.896  11.776  22.023  0.00  0.00    -0.296 N 
ATOM     14  C   UNL     1      10.919  12.795  22.410  0.00  0.00    +0.102 C 
ATOM     16  C   UNL     1      10.911  13.761  21.222  0.00  0.00    +0.026 C 
ATOM     17  C   UNL     1      12.685  12.208  20.872  0.00  0.00    +0.108 C 
ATOM     18  C   UNL     1      12.337  13.678  20.691  0.00  0.00    +0.021 C 
ATOM     19  C   UNL     1      11.967  10.537  22.639  0.00  0.00    +0.218 C 
BRANCH  14  21
ATOM     21  C   UNL     1      11.316  13.486  23.712  0.00  0.00    +0.181 C 
BRANCH  21   5
ATOM      5  O   UNL     1      10.142  13.946  24.353  0.00  0.00    -0.381 OA
ATOM     23  C   UNL     1      10.104  15.367  24.428  0.00  0.00    +0.194 C 
ENDBRANCH  21   5
ENDBRANCH  14  21
ENDBRANCH  15  19
ENDBRANCH  10  15
BRANCH  13  20
ATOM     20  C   UNL     1      13.981   7.382  18.643  0.00  0.00    +0.138 C 
BRANCH  20   9
ATOM      7  O   UNL     1      16.275   5.665  18.473  0.00  0.00    -0.270 OA
ATOM      9  N   UNL     1      15.201   7.509  19.383  0.00  0.00    -0.309 N 
ATOM     22  C   UNL     1      16.268   6.626  19.237  0.00  0.00    +0.244 C 
ATOM     32  H   UNL     1      15.283   8.314  19.994  0.00  0.00    +0.149 HD
BRANCH  22  24
ATOM      1  F   UNL     1      18.682   9.377  22.439  0.00  0.00    -0.205 F 
ATOM     24  C   UNL     1      17.453   6.879  20.098  0.00  0.00    +0.039 A 
ATOM     25  C   UNL     1      17.513   8.032  20.879  0.00  0.00    +0.051 A 
ATOM     26  C   UNL     1      18.505   5.963  20.123  0.00  0.00    +0.013 A 
ATOM     27  C   UNL     1      18.625   8.269  21.688  0.00  0.00    +0.124 A 
ATOM     28  C   UNL     1      19.616   6.200  20.931  0.00  0.00    +0.004 A 
ATOM     29  C   UNL     1      19.677   7.353  21.714  0.00  0.00    +0.038 A 
ENDBRANCH  22  24
ENDBRANCH  20   9
ENDBRANCH  13  20
TORSDOF 9
ENDMDL
MODEL 4
REMARK VINA RESULT:      -6.5     13.594     17.029
REMARK  Name = 40777891
REMARK  10 active torsions:
REMARK  status: ('A' for Active; 'I' for Inactive)
REMARK    1  A    between atoms: O_3  and  C_11
REMARK    2  A    between atoms: O_4  and  C_12
REMARK    3  A    between atoms: O_5  and  C_21
REMARK    4  A    between atoms: O_5  and  C_23
REMARK    5  A    between atoms: N_9  and  C_20
REMARK    6  A    between atoms: C_10  and  C_15
REMARK    7  A    between atoms: C_13  and  C_20
REMARK    8  A    between atoms: C_14  and  C_21
REMARK    9  A    between atoms: C_15  and  C_19
REMARK   10  A    between atoms: C_22  and  C_24
REMARK                            x       y       z     vdW  Elec       q    Type
REMARK                         _______ _______ _______ _____ _____    ______ ____
ROOT
ATOM      2  O   UNL     1      11.044   6.926   7.266  0.00  0.00    -0.366 OA
ATOM     10  C   UNL     1      10.048   6.383   8.161  0.00  0.00    +0.159 C 
ATOM     11  C   UNL     1       9.705   4.994   7.631  0.00  0.00    +0.175 C 
ATOM     12  C   UNL     1       9.970   5.150   6.148  0.00  0.00    +0.176 C 
ATOM     13  C   UNL     1      11.206   6.033   6.150  0.00  0.00    +0.167 C 
ENDROOT
BRANCH  11   3
ATOM      3  O   UNL     1      10.623   4.063   8.203  0.00  0.00    -0.387 OA
ATOM     30  H   UNL     1      11.110   3.647   7.472  0.00  0.00    +0.210 HD
ENDBRANCH  11   3
BRANCH  12   4
ATOM      4  O   UNL     1      10.196   3.922   5.489  0.00  0.00    -0.387 OA
ATOM     31  H   UNL     1      10.970   4.038   4.912  0.00  0.00    +0.210 HD
ENDBRANCH  12   4
BRANCH  10  15
ATOM     15  C   UNL     1       8.856   7.330   8.165  0.00  0.00    +0.130 C 
BRANCH  15  19
ATOM      6  O   UNL     1       9.978   9.417   8.399  0.00  0.00    -0.276 OA
ATOM      8  N   UNL     1       8.842   9.045   6.417  0.00  0.00    -0.296 N 
ATOM     14  C   UNL     1       9.084  10.368   5.836  0.00  0.00    +0.102 C 
ATOM     16  C   UNL     1       8.080  10.446   4.683  0.00  0.00    +0.026 C 
ATOM     17  C   UNL     1       8.017   8.222   5.536  0.00  0.00    +0.108 C 
ATOM     18  C   UNL     1       7.949   8.998   4.230  0.00  0.00    +0.021 C 
ATOM     19  C   UNL     1       9.281   8.694   7.683  0.00  0.00    +0.218 C 
BRANCH  14  21
ATOM     21  C   UNL     1      10.525  10.513   5.357  0.00  0.00    +0.181 C 
BRANCH  21   5
ATOM      5  O   UNL     1      10.878  11.882   5.401  0.00  0.00    -0.381 OA
ATOM     23  C   UNL     1      10.604  12.458   6.674  0.00  0.00    +0.194 C 
ENDBRANCH  21   5
ENDBRANCH  14  21
ENDBRANCH  15  19
ENDBRANCH  10  15
BRANCH  13  20
ATOM     20  C   UNL     1      11.373   6.837   4.872  0.00  0.00    +0.138 C 
BRANCH  20   9
ATOM      7  O   UNL     1       9.933   6.271   2.454  0.00  0.00    -0.270 OA
ATOM      9  N   UNL     1      11.811   6.006   3.791  0.00  0.00    -0.309 N 
ATOM     22  C   UNL     1      11.044   5.786   2.649  0.00  0.00    +0.244 C 
ATOM     32  H   UNL     1      12.745   5.616   3.862  0.00  0.00    +0.149 HD
BRANCH  22  24
ATOM      1  F   UNL     1      10.946   3.706  -1.746  0.00  0.00    -0.205 F 
ATOM     24  C   UNL     1      11.629   4.877   1.630  0.00  0.00    +0.039 A 
ATOM     25  C   UNL     1      10.999   4.715   0.396  0.00  0.00    +0.051 A 
ATOM     26  C   UNL     1      12.808   4.185   1.908  0.00  0.00    +0.013 A 
ATOM     27  C   UNL     1      11.550   3.862  -0.561  0.00  0.00    +0.124 A 
ATOM     28  C   UNL     1      13.358   3.332   0.952  0.00  0.00    +0.004 A 
ATOM     29  C   UNL     1      12.730   3.170  -0.283  0.00  0.00    +0.038 A 
ENDBRANCH  22  24
ENDBRANCH  20   9
ENDBRANCH  13  20
TORSDOF 9
ENDMDL
MODEL 5
REMARK VINA RESULT:      -6.5      2.993      6.788
REMARK  Name = 40777891
REMARK  10 active torsions:
REMARK  status: ('A' for Active; 'I' for Inactive)
REMARK    1  A    between atoms: O_3  and  C_11
REMARK    2  A    between atoms: O_4  and  C_12
REMARK    3  A    between atoms: O_5  and  C_21
REMARK    4  A    between atoms: O_5  and  C_23
REMARK    5  A    between atoms: N_9  and  C_20
REMARK    6  A    between atoms: C_10  and  C_15
REMARK    7  A    between atoms: C_13  and  C_20
REMARK    8  A    between atoms: C_14  and  C_21
REMARK    9  A    between atoms: C_15  and  C_19
REMARK   10  A    between atoms: C_22  and  C_24
REMARK                            x       y       z     vdW  Elec       q    Type
REMARK                         _______ _______ _______ _____ _____    ______ ____
ROOT
ATOM      2  O   UNL     1      13.219   8.182  21.936  0.00  0.00    -0.366 OA
ATOM     10  C   UNL     1      11.820   8.547  21.954  0.00  0.00    +0.159 C 
ATOM     11  C   UNL     1      11.095   7.511  21.101  0.00  0.00    +0.175 C 
ATOM     12  C   UNL     1      12.174   7.100  20.121  0.00  0.00    +0.176 C 
ATOM     13  C   UNL     1      13.408   7.100  21.008  0.00  0.00    +0.167 C 
ENDROOT
BRANCH  11   3
ATOM      3  O   UNL     1      10.745   6.413  21.942  0.00  0.00    -0.387 OA
ATOM     30  H   UNL     1      11.486   6.266  22.554  0.00  0.00    +0.210 HD
ENDBRANCH  11   3
BRANCH  12   4
ATOM      4  O   UNL     1      11.943   5.838  19.534  0.00  0.00    -0.387 OA
ATOM     31  H   UNL     1      11.123   5.483  19.915  0.00  0.00    +0.210 HD
ENDBRANCH  12   4
BRANCH  10  15
ATOM     15  C   UNL     1      11.699   9.962  21.405  0.00  0.00    +0.130 C 
BRANCH  15  19
ATOM      6  O   UNL     1      11.176  10.516  23.660  0.00  0.00    -0.276 OA
ATOM      8  N   UNL     1      11.538  12.273  22.198  0.00  0.00    -0.296 N 
ATOM     14  C   UNL     1      11.227  13.345  23.145  0.00  0.00    +0.102 C 
ATOM     16  C   UNL     1      11.038  14.575  22.254  0.00  0.00    +0.026 C 
ATOM     17  C   UNL     1      11.853  12.809  20.876  0.00  0.00    +0.108 C 
ATOM     18  C   UNL     1      11.979  14.310  21.084  0.00  0.00    +0.021 C 
ATOM     19  C   UNL     1      11.444  10.931  22.531  0.00  0.00    +0.218 C 
BRANCH  14  21
ATOM     21  C   UNL     1      12.351  13.536  24.161  0.00  0.00    +0.181 C 
BRANCH  21   5
ATOM      5  O   UNL     1      11.886  13.118  25.430  0.00  0.00    -0.381 OA
ATOM     23  C   UNL     1      10.531  13.496  25.647  0.00  0.00    +0.194 C 
ENDBRANCH  21   5
ENDBRANCH  14  21
ENDBRANCH  15  19
ENDBRANCH  10  15
BRANCH  13  20
ATOM     20  C   UNL     1      14.701   7.306  20.239  0.00  0.00    +0.138 C 
BRANCH  20   9
ATOM      7  O   UNL     1      14.966  10.141  19.866  0.00  0.00    -0.270 OA
ATOM      9  N   UNL     1      14.473   8.034  19.026  0.00  0.00    -0.309 N 
ATOM     22  C   UNL     1      14.626   9.416  18.935  0.00  0.00    +0.244 C 
ATOM     32  H   UNL     1      14.241   7.490  18.202  0.00  0.00    +0.149 HD
BRANCH  22  24
ATOM      1  F   UNL     1      11.905   9.712  14.915  0.00  0.00    -0.205 F 
ATOM     24  C   UNL     1      14.325  10.024  17.613  0.00  0.00    +0.039 A 
ATOM     25  C   UNL     1      13.235   9.573  16.869  0.00  0.00    +0.051 A 
ATOM     26  C   UNL     1      15.134  11.046  17.115  0.00  0.00    +0.013 A 
ATOM     27  C   UNL     1      12.953  10.145  15.629  0.00  0.00    +0.124 A 
ATOM     28  C   UNL     1      14.853  11.617  15.875  0.00  0.00    +0.004 A 
ATOM     29  C   UNL     1      13.762  11.167  15.131  0.00  0.00    +0.038 A 
ENDBRANCH  22  24
ENDBRANCH  20   9
ENDBRANCH  13  20
TORSDOF 9
ENDMDL
MODEL 6
REMARK VINA RESULT:      -6.4     12.567     16.965
REMARK  Name = 40777891
REMARK  10 active torsions:
REMARK  status: ('A' for Active; 'I' for Inactive)
REMARK    1  A    between atoms: O_3  and  C_11
REMARK    2  A    between atoms: O_4  and  C_12
REMARK    3  A    between atoms: O_5  and  C_21
REMARK    4  A    between atoms: O_5  and  C_23
REMARK    5  A    between atoms: N_9  and  C_20
REMARK    6  A    between atoms: C_10  and  C_15
REMARK    7  A    between atoms: C_13  and  C_20
REMARK    8  A    between atoms: C_14  and  C_21
REMARK    9  A    between atoms: C_15  and  C_19
REMARK   10  A    between atoms: C_22  and  C_24
REMARK                            x       y       z     vdW  Elec       q    Type
REMARK                         _______ _______ _______ _____ _____    ______ ____
ROOT
ATOM      2  O   UNL     1      12.070   4.103   2.589  0.00  0.00    -0.366 OA
ATOM     10  C   UNL     1      10.782   4.730   2.782  0.00  0.00    +0.159 C 
ATOM     11  C   UNL     1      10.379   5.309   1.429  0.00  0.00    +0.175 C 
ATOM     12  C   UNL     1      11.725   5.594   0.795  0.00  0.00    +0.176 C 
ATOM     13  C   UNL     1      12.541   4.402   1.263  0.00  0.00    +0.167 C 
ENDROOT
BRANCH  11   3
ATOM      3  O   UNL     1       9.694   4.291   0.699  0.00  0.00    -0.387 OA
ATOM     30  H   UNL     1       9.122   4.733   0.048  0.00  0.00    +0.210 HD
ENDBRANCH  11   3
BRANCH  12   4
ATOM      4  O   UNL     1      11.672   5.682  -0.612  0.00  0.00    -0.387 OA
ATOM     31  H   UNL     1      11.759   4.781  -0.965  0.00  0.00    +0.210 HD
ENDBRANCH  12   4
BRANCH  10  15
ATOM     15  C   UNL     1      10.935   5.793   3.861  0.00  0.00    +0.130 C 
BRANCH  15  19
ATOM      6  O   UNL     1       9.939   4.152   5.270  0.00  0.00    -0.276 OA
ATOM      8  N   UNL     1      10.083   6.309   6.099  0.00  0.00    -0.296 N 
ATOM     14  C   UNL     1       9.371   6.054   7.352  0.00  0.00    +0.102 C 
ATOM     16  C   UNL     1       9.028   7.455   7.866  0.00  0.00    +0.026 C 
ATOM     17  C   UNL     1      10.462   7.715   5.980  0.00  0.00    +0.108 C 
ATOM     18  C   UNL     1      10.178   8.311   7.351  0.00  0.00    +0.021 C 
ATOM     19  C   UNL     1      10.272   5.332   5.135  0.00  0.00    +0.218 C 
BRANCH  14  21
ATOM     21  C   UNL     1      10.235   5.274   8.338  0.00  0.00    +0.181 C 
BRANCH  21   5
ATOM      5  O   UNL     1       9.454   4.234   8.896  0.00  0.00    -0.381 OA
ATOM     23  C   UNL     1       8.994   4.562  10.202  0.00  0.00    +0.194 C 
ENDBRANCH  21   5
ENDBRANCH  14  21
ENDBRANCH  15  19
ENDBRANCH  10  15
BRANCH  13  20
ATOM     20  C   UNL     1      14.035   4.673   1.300  0.00  0.00    +0.138 C 
BRANCH  20   9
ATOM      7  O   UNL     1      14.979   7.381   1.417  0.00  0.00    -0.270 OA
ATOM      9  N   UNL     1      14.401   5.400   2.478  0.00  0.00    -0.309 N 
ATOM     22  C   UNL     1      14.852   6.718   2.443  0.00  0.00    +0.244 C 
ATOM     32  H   UNL     1      14.268   4.929   3.367  0.00  0.00    +0.149 HD
BRANCH  22  24
ATOM      1  F   UNL     1      13.766   7.874   7.040  0.00  0.00    -0.205 F 
ATOM     24  C   UNL     1      15.217   7.323   3.750  0.00  0.00    +0.039 A 
ATOM     25  C   UNL     1      14.301   7.315   4.802  0.00  0.00    +0.051 A 
ATOM     26  C   UNL     1      16.475   7.898   3.924  0.00  0.00    +0.013 A 
ATOM     27  C   UNL     1      14.646   7.882   6.029  0.00  0.00    +0.124 A 
ATOM     28  C   UNL     1      16.819   8.465   5.151  0.00  0.00    +0.004 A 
ATOM     29  C   UNL     1      15.904   8.457   6.204  0.00  0.00    +0.038 A 
ENDBRANCH  22  24
ENDBRANCH  20   9
ENDBRANCH  13  20
TORSDOF 9
ENDMDL
MODEL 7
REMARK VINA RESULT:      -6.4     26.121     28.551
REMARK  Name = 40777891
REMARK  10 active torsions:
REMARK  status: ('A' for Active; 'I' for Inactive)
REMARK    1  A    between atoms: O_3  and  C_11
REMARK    2  A    between atoms: O_4  and  C_12
REMARK    3  A    between atoms: O_5  and  C_21
REMARK    4  A    between atoms: O_5  and  C_23
REMARK    5  A    between atoms: N_9  and  C_20
REMARK    6  A    between atoms: C_10  and  C_15
REMARK    7  A    between atoms: C_13  and  C_20
REMARK    8  A    between atoms: C_14  and  C_21
REMARK    9  A    between atoms: C_15  and  C_19
REMARK   10  A    between atoms: C_22  and  C_24
REMARK                            x       y       z     vdW  Elec       q    Type
REMARK                         _______ _______ _______ _____ _____    ______ ____
ROOT
ATOM      2  O   UNL     1      -3.272 -10.174  16.558  0.00  0.00    -0.366 OA
ATOM     10  C   UNL     1      -4.614 -10.530  16.961  0.00  0.00    +0.159 C 
ATOM     11  C   UNL     1      -4.781 -12.012  16.639  0.00  0.00    +0.175 C 
ATOM     12  C   UNL     1      -3.836 -12.187  15.468  0.00  0.00    +0.176 C 
ATOM     13  C   UNL     1      -2.679 -11.291  15.873  0.00  0.00    +0.167 C 
ENDROOT
BRANCH  11   3
ATOM      3  O   UNL     1      -4.322 -12.763  17.762  0.00  0.00    -0.387 OA
ATOM     30  H   UNL     1      -4.119 -13.661  17.450  0.00  0.00    +0.210 HD
ENDBRANCH  11   3
BRANCH  12   4
ATOM      4  O   UNL     1      -3.430 -13.525  15.274  0.00  0.00    -0.387 OA
ATOM     31  H   UNL     1      -4.221 -14.041  15.045  0.00  0.00    +0.210 HD
ENDBRANCH  12   4
BRANCH  10  15
ATOM     15  C   UNL     1      -5.584  -9.641  16.194  0.00  0.00    +0.130 C 
BRANCH  15  19
ATOM      6  O   UNL     1      -7.130  -9.752  18.001  0.00  0.00    -0.276 OA
ATOM      8  N   UNL     1      -7.997  -9.887  15.859  0.00  0.00    -0.296 N 
ATOM     14  C   UNL     1      -9.388 -10.112  16.256  0.00  0.00    +0.102 C 
ATOM     16  C   UNL     1     -10.056 -10.610  14.972  0.00  0.00    +0.026 C 
ATOM     17  C   UNL     1      -7.851  -9.907  14.406  0.00  0.00    +0.108 C 
ATOM     18  C   UNL     1      -9.275  -9.904  13.871  0.00  0.00    +0.021 C 
ATOM     19  C   UNL     1      -6.968  -9.765  16.779  0.00  0.00    +0.218 C 
BRANCH  14  21
ATOM     21  C   UNL     1     -10.033  -8.833  16.783  0.00  0.00    +0.181 C 
BRANCH  21   5
ATOM      5  O   UNL     1     -10.492  -9.071  18.100  0.00  0.00    -0.381 OA
ATOM     23  C   UNL     1     -11.898  -9.290  18.139  0.00  0.00    +0.194 C 
ENDBRANCH  21   5
ENDBRANCH  14  21
ENDBRANCH  15  19
ENDBRANCH  10  15
BRANCH  13  20
ATOM     20  C   UNL     1      -1.863 -10.792  14.693  0.00  0.00    +0.138 C 
BRANCH  20   9
ATOM      7  O   UNL     1      -2.176 -11.682  11.982  0.00  0.00    -0.270 OA
ATOM      9  N   UNL     1      -2.704 -10.206  13.692  0.00  0.00    -0.309 N 
ATOM     22  C   UNL     1      -2.795 -10.705  12.395  0.00  0.00    +0.244 C 
ATOM     32  H   UNL     1      -3.285  -9.427  13.982  0.00  0.00    +0.149 HD
BRANCH  22  24
ATOM      1  F   UNL     1      -7.110  -8.731  11.333  0.00  0.00    -0.205 F 
ATOM     24  C   UNL     1      -3.692  -9.968  11.468  0.00  0.00    +0.039 A 
ATOM     25  C   UNL     1      -5.006  -9.691  11.843  0.00  0.00    +0.051 A 
ATOM     26  C   UNL     1      -3.218  -9.552  10.224  0.00  0.00    +0.013 A 
ATOM     27  C   UNL     1      -5.847  -8.997  10.973  0.00  0.00    +0.124 A 
ATOM     28  C   UNL     1      -4.059  -8.859   9.354  0.00  0.00    +0.004 A 
ATOM     29  C   UNL     1      -5.374  -8.581   9.728  0.00  0.00    +0.038 A 
ENDBRANCH  22  24
ENDBRANCH  20   9
ENDBRANCH  13  20
TORSDOF 9
ENDMDL
MODEL 8
REMARK VINA RESULT:      -6.3      4.056      7.643
REMARK  Name = 40777891
REMARK  10 active torsions:
REMARK  status: ('A' for Active; 'I' for Inactive)
REMARK    1  A    between atoms: O_3  and  C_11
REMARK    2  A    between atoms: O_4  and  C_12
REMARK    3  A    between atoms: O_5  and  C_21
REMARK    4  A    between atoms: O_5  and  C_23
REMARK    5  A    between atoms: N_9  and  C_20
REMARK    6  A    between atoms: C_10  and  C_15
REMARK    7  A    between atoms: C_13  and  C_20
REMARK    8  A    between atoms: C_14  and  C_21
REMARK    9  A    between atoms: C_15  and  C_19
REMARK   10  A    between atoms: C_22  and  C_24
REMARK                            x       y       z     vdW  Elec       q    Type
REMARK                         _______ _______ _______ _____ _____    ______ ____
ROOT
ATOM      2  O   UNL     1      13.305   8.096  21.389  0.00  0.00    -0.366 OA
ATOM     10  C   UNL     1      12.469   9.155  21.909  0.00  0.00    +0.159 C 
ATOM     11  C   UNL     1      11.239   9.214  21.009  0.00  0.00    +0.175 C 
ATOM     12  C   UNL     1      11.790   8.712  19.691  0.00  0.00    +0.176 C 
ATOM     13  C   UNL     1      12.743   7.624  20.152  0.00  0.00    +0.167 C 
ENDROOT
BRANCH  11   3
ATOM      3  O   UNL     1      10.272   8.297  21.522  0.00  0.00    -0.387 OA
ATOM     30  H   UNL     1      10.628   7.400  21.403  0.00  0.00    +0.210 HD
ENDBRANCH  11   3
BRANCH  12   4
ATOM      4  O   UNL     1      10.795   8.214  18.823  0.00  0.00    -0.387 OA
ATOM     31  H   UNL     1      11.021   7.291  18.617  0.00  0.00    +0.210 HD
ENDBRANCH  12   4
BRANCH  10  15
ATOM     15  C   UNL     1      13.281  10.443  21.891  0.00  0.00    +0.130 C 
BRANCH  15  19
ATOM      6  O   UNL     1      11.544  12.016  21.469  0.00  0.00    -0.276 OA
ATOM      8  N   UNL     1      12.629  12.163  23.508  0.00  0.00    -0.296 N 
ATOM     14  C   UNL     1      11.931  13.359  23.983  0.00  0.00    +0.102 C 
ATOM     16  C   UNL     1      12.787  13.837  25.158  0.00  0.00    +0.026 C 
ATOM     17  C   UNL     1      13.631  11.716  24.473  0.00  0.00    +0.108 C 
ATOM     18  C   UNL     1      13.366  12.545  25.721  0.00  0.00    +0.021 C 
ATOM     19  C   UNL     1      12.401  11.611  22.258  0.00  0.00    +0.218 C 
BRANCH  14  21
ATOM     21  C   UNL     1      10.499  13.040  24.404  0.00  0.00    +0.181 C 
BRANCH  21   5
ATOM      5  O   UNL     1       9.723  14.218  24.286  0.00  0.00    -0.381 OA
ATOM     23  C   UNL     1       9.511  14.577  22.925  0.00  0.00    +0.194 C 
ENDBRANCH  21   5
ENDBRANCH  14  21
ENDBRANCH  15  19
ENDBRANCH  10  15
BRANCH  13  20
ATOM     20  C   UNL     1      13.858   7.340  19.161  0.00  0.00    +0.138 C 
BRANCH  20   9
ATOM      7  O   UNL     1      16.186   5.858  18.370  0.00  0.00    -0.270 OA
ATOM      9  N   UNL     1      15.138   7.354  19.802  0.00  0.00    -0.309 N 
ATOM     22  C   UNL     1      16.219   6.599  19.348  0.00  0.00    +0.244 C 
ATOM     32  H   UNL     1      15.251   7.987  20.586  0.00  0.00    +0.149 HD
BRANCH  22  24
ATOM      1  F   UNL     1      20.670   5.006  20.487  0.00  0.00    -0.205 F 
ATOM     24  C   UNL     1      17.471   6.704  20.140  0.00  0.00    +0.039 A 
ATOM     25  C   UNL     1      18.502   5.787  19.938  0.00  0.00    +0.051 A 
ATOM     26  C   UNL     1      17.615   7.719  21.086  0.00  0.00    +0.013 A 
ATOM     27  C   UNL     1      19.679   5.887  20.682  0.00  0.00    +0.124 A 
ATOM     28  C   UNL     1      18.791   7.818  21.829  0.00  0.00    +0.004 A 
ATOM     29  C   UNL     1      19.823   6.902  21.627  0.00  0.00    +0.038 A 
ENDBRANCH  22  24
ENDBRANCH  20   9
ENDBRANCH  13  20
TORSDOF 9
ENDMDL
MODEL 9
REMARK VINA RESULT:      -6.3     26.958     29.001
REMARK  Name = 40777891
REMARK  10 active torsions:
REMARK  status: ('A' for Active; 'I' for Inactive)
REMARK    1  A    between atoms: O_3  and  C_11
REMARK    2  A    between atoms: O_4  and  C_12
REMARK    3  A    between atoms: O_5  and  C_21
REMARK    4  A    between atoms: O_5  and  C_23
REMARK    5  A    between atoms: N_9  and  C_20
REMARK    6  A    between atoms: C_10  and  C_15
REMARK    7  A    between atoms: C_13  and  C_20
REMARK    8  A    between atoms: C_14  and  C_21
REMARK    9  A    between atoms: C_15  and  C_19
REMARK   10  A    between atoms: C_22  and  C_24
REMARK                            x       y       z     vdW  Elec       q    Type
REMARK                         _______ _______ _______ _____ _____    ______ ____
ROOT
ATOM      2  O   UNL     1      -5.880 -10.510  18.684  0.00  0.00    -0.366 OA
ATOM     10  C   UNL     1      -5.704 -11.767  19.376  0.00  0.00    +0.159 C 
ATOM     11  C   UNL     1      -4.614 -12.523  18.623  0.00  0.00    +0.175 C 
ATOM     12  C   UNL     1      -4.772 -11.984  17.216  0.00  0.00    +0.176 C 
ATOM     13  C   UNL     1      -5.090 -10.523  17.482  0.00  0.00    +0.167 C 
ENDROOT
BRANCH  11   3
ATOM      3  O   UNL     1      -3.352 -12.132  19.163  0.00  0.00    -0.387 OA
ATOM     30  H   UNL     1      -3.416 -12.195  20.131  0.00  0.00    +0.210 HD
ENDBRANCH  11   3
BRANCH  12   4
ATOM      4  O   UNL     1      -3.614 -12.139  16.425  0.00  0.00    -0.387 OA
ATOM     31  H   UNL     1      -3.521 -11.339  15.881  0.00  0.00    +0.210 HD
ENDBRANCH  12   4
BRANCH  10  15
ATOM     15  C   UNL     1      -7.042 -12.494  19.372  0.00  0.00    +0.130 C 
BRANCH  15  19
ATOM      6  O   UNL     1      -8.500 -10.740  20.057  0.00  0.00    -0.276 OA
ATOM      8  N   UNL     1      -8.749 -11.538  17.899  0.00  0.00    -0.296 N 
ATOM     14  C   UNL     1      -9.910 -10.717  17.550  0.00  0.00    +0.102 C 
ATOM     16  C   UNL     1     -10.459 -11.382  16.286  0.00  0.00    +0.026 C 
ATOM     17  C   UNL     1      -8.381 -12.429  16.801  0.00  0.00    +0.108 C 
ATOM     18  C   UNL     1      -9.215 -11.956  15.620  0.00  0.00    +0.021 C 
ATOM     19  C   UNL     1      -8.162 -11.508  19.153  0.00  0.00    +0.218 C 
BRANCH  14  21
ATOM     21  C   UNL     1      -9.514  -9.262  17.310  0.00  0.00    +0.181 C 
BRANCH  21   5
ATOM      5  O   UNL     1     -10.549  -8.429  17.795  0.00  0.00    -0.381 OA
ATOM     23  C   UNL     1     -10.885  -7.407  16.862  0.00  0.00    +0.194 C 
ENDBRANCH  21   5
ENDBRANCH  14  21
ENDBRANCH  15  19
ENDBRANCH  10  15
BRANCH  13  20
ATOM     20  C   UNL     1      -5.864  -9.861  16.356  0.00  0.00    +0.138 C 
BRANCH  20   9
ATOM      7  O   UNL     1      -6.908 -10.051  13.688  0.00  0.00    -0.270 OA
ATOM      9  N   UNL     1      -5.107  -9.858  15.139  0.00  0.00    -0.309 N 
ATOM     22  C   UNL     1      -5.699  -9.955  13.881  0.00  0.00    +0.244 C 
ATOM     32  H   UNL     1      -4.105  -9.726  15.224  0.00  0.00    +0.149 HD
BRANCH  22  24
ATOM      1  F   UNL     1      -1.389 -11.012  11.891  0.00  0.00    -0.205 F 
ATOM     24  C   UNL     1      -4.773  -9.964  12.719  0.00  0.00    +0.039 A 
ATOM     25  C   UNL     1      -3.490 -10.494  12.854  0.00  0.00    +0.051 A 
ATOM     26  C   UNL     1      -5.188  -9.443  11.494  0.00  0.00    +0.013 A 
ATOM     27  C   UNL     1      -2.622 -10.503  11.762  0.00  0.00    +0.124 A 
ATOM     28  C   UNL     1      -4.320  -9.452  10.403  0.00  0.00    +0.004 A 
ATOM     29  C   UNL     1      -3.037  -9.982  10.536  0.00  0.00    +0.038 A 
ENDBRANCH  22  24
ENDBRANCH  20   9
ENDBRANCH  13  20
TORSDOF 9
ENDMDL
MODEL 10
REMARK VINA RESULT:      -6.2     28.623     30.970
REMARK  Name = 40777891
REMARK  10 active torsions:
REMARK  status: ('A' for Active; 'I' for Inactive)
REMARK    1  A    between atoms: O_3  and  C_11
REMARK    2  A    between atoms: O_4  and  C_12
REMARK    3  A    between atoms: O_5  and  C_21
REMARK    4  A    between atoms: O_5  and  C_23
REMARK    5  A    between atoms: N_9  and  C_20
REMARK    6  A    between atoms: C_10  and  C_15
REMARK    7  A    between atoms: C_13  and  C_20
REMARK    8  A    between atoms: C_14  and  C_21
REMARK    9  A    between atoms: C_15  and  C_19
REMARK   10  A    between atoms: C_22  and  C_24
REMARK                            x       y       z     vdW  Elec       q    Type
REMARK                         _______ _______ _______ _____ _____    ______ ____
ROOT
ATOM      2  O   UNL     1     -16.180   2.672  31.945  0.00  0.00    -0.366 OA
ATOM     10  C   UNL     1     -15.067   1.753  32.032  0.00  0.00    +0.159 C 
ATOM     11  C   UNL     1     -14.178   2.261  33.164  0.00  0.00    +0.175 C 
ATOM     12  C   UNL     1     -14.454   3.750  33.136  0.00  0.00    +0.176 C 
ATOM     13  C   UNL     1     -15.942   3.779  32.832  0.00  0.00    +0.167 C 
ENDROOT
BRANCH  11   3
ATOM      3  O   UNL     1     -14.650   1.692  34.385  0.00  0.00    -0.387 OA
ATOM     30  H   UNL     1     -14.869   0.762  34.208  0.00  0.00    +0.210 HD
ENDBRANCH  11   3
BRANCH  12   4
ATOM      4  O   UNL     1     -14.148   4.397  34.353  0.00  0.00    -0.387 OA
ATOM     31  H   UNL     1     -13.310   4.872  34.229  0.00  0.00    +0.210 HD
ENDBRANCH  12   4
BRANCH  10  15
ATOM     15  C   UNL     1     -14.363   1.742  30.682  0.00  0.00    +0.130 C 
BRANCH  15  19
ATOM      6  O   UNL     1     -15.409  -0.171  29.724  0.00  0.00    -0.276 OA
ATOM      8  N   UNL     1     -15.772   1.864  28.683  0.00  0.00    -0.296 N 
ATOM     14  C   UNL     1     -16.553   1.341  27.561  0.00  0.00    +0.102 C 
ATOM     16  C   UNL     1     -16.559   2.493  26.553  0.00  0.00    +0.026 C 
ATOM     17  C   UNL     1     -15.581   3.308  28.568  0.00  0.00    +0.108 C 
ATOM     18  C   UNL     1     -16.503   3.734  27.436  0.00  0.00    +0.021 C 
ATOM     19  C   UNL     1     -15.225   1.047  29.659  0.00  0.00    +0.218 C 
BRANCH  14  21
ATOM     21  C   UNL     1     -17.962   0.948  27.996  0.00  0.00    +0.181 C 
BRANCH  21   5
ATOM      5  O   UNL     1     -18.346  -0.212  27.282  0.00  0.00    -0.381 OA
ATOM     23  C   UNL     1     -19.300   0.084  26.268  0.00  0.00    +0.194 C 
ENDBRANCH  21   5
ENDBRANCH  14  21
ENDBRANCH  15  19
ENDBRANCH  10  15
BRANCH  13  20
ATOM     20  C   UNL     1     -16.395   5.069  32.171  0.00  0.00    +0.138 C 
BRANCH  20   9
ATOM      7  O   UNL     1     -16.111   7.757  33.138  0.00  0.00    -0.270 OA
ATOM      9  N   UNL     1     -15.290   5.949  31.938  0.00  0.00    -0.309 N 
ATOM     22  C   UNL     1     -15.234   7.245  32.448  0.00  0.00    +0.244 C 
ATOM     32  H   UNL     1     -14.504   5.570  31.420  0.00  0.00    +0.149 HD
BRANCH  22  24
ATOM      1  F   UNL     1     -13.138  10.989  30.160  0.00  0.00    -0.205 F 
ATOM     24  C   UNL     1     -14.030   8.039  32.093  0.00  0.00    +0.039 A 
ATOM     25  C   UNL     1     -14.152   9.163  31.276  0.00  0.00    +0.051 A 
ATOM     26  C   UNL     1     -12.778   7.661  32.577  0.00  0.00    +0.013 A 
ATOM     27  C   UNL     1     -13.021   9.909  30.945  0.00  0.00    +0.124 A 
ATOM     28  C   UNL     1     -11.647   8.406  32.245  0.00  0.00    +0.004 A 
ATOM     29  C   UNL     1     -11.768   9.531  31.429  0.00  0.00    +0.038 A 
ENDBRANCH  22  24
ENDBRANCH  20   9
ENDBRANCH  13  20
TORSDOF 9
ENDMDL
