REMARK  Name = 56775017
REMARK  6 active torsions:
REMARK  status: ('A' for Active; 'I' for Inactive)
REMARK    1  A    between atoms: O_3  and  C_27
REMARK    2  A    between atoms: N_5  and  C_12
REMARK    3  A    between atoms: N_6  and  C_15
REMARK    4  A    between atoms: C_12  and  C_16
REMARK    5  A    between atoms: C_15  and  C_17
REMARK    6  A    between atoms: C_24  and  C_27
REMARK                            x       y       z     vdW  Elec       q    Type
REMARK                         _______ _______ _______ _____ _____    ______ ____
ROOT
ATOM      1  O   UNL     1      -1.244  -2.743   0.844  0.00  0.00    -0.364 OA
ATOM      2  O   UNL     1      -4.560  -2.437  -0.309  0.00  0.00    -0.273 OA
ATOM      5  N   UNL     1       0.787  -0.534  -0.516  0.00  0.00    -0.294 NA
ATOM      6  N   UNL     1      -2.847  -0.863  -0.374  0.00  0.00    -0.288 N 
ATOM      8  C   UNL     1      -1.473  -0.506  -0.031  0.00  0.00    +0.120 C 
ATOM      9  C   UNL     1      -0.820  -1.394   1.023  0.00  0.00    +0.154 C 
ATOM     10  C   UNL     1      -0.501  -0.632  -1.202  0.00  0.00    +0.110 C 
ATOM     11  C   UNL     1       0.679  -1.330   0.713  0.00  0.00    +0.118 C 
ATOM     13  C   UNL     1      -3.439  -2.055   0.032  0.00  0.00    +0.242 C 
ATOM     14  C   UNL     1      -2.636  -2.863   1.028  0.00  0.00    +0.256 C 
ENDROOT
BRANCH   5  12
ATOM     12  C   UNL     1       1.904  -0.936  -1.355  0.00  0.00    +0.119 C 
BRANCH  12  16
ATOM     16  C   UNL     1       3.212  -0.393  -0.846  0.00  0.00    -0.033 A 
ATOM     18  C   UNL     1       3.536   0.949  -1.050  0.00  0.00    +0.006 A 
ATOM     19  C   UNL     1       4.101  -1.230  -0.172  0.00  0.00    +0.006 A 
ATOM     22  C   UNL     1       4.748   1.453  -0.579  0.00  0.00    +0.015 A 
ATOM     23  C   UNL     1       5.313  -0.726   0.299  0.00  0.00    +0.015 A 
ATOM     24  C   UNL     1       5.637   0.616   0.096  0.00  0.00    +0.059 A 
BRANCH  24  27
ATOM      4  O   UNL     1       7.287   2.308   0.466  0.00  0.00    -0.245 OA
ATOM     27  C   UNL     1       6.900   1.141   0.589  0.00  0.00    +0.337 C 
BRANCH  27   3
ATOM      3  O   UNL     1       7.646   0.194   1.222  0.00  0.00    -0.477 OA
ATOM     28  H   UNL     1       8.496   0.558   1.550  0.00  0.00    +0.295 HD
ENDBRANCH  27   3
ENDBRANCH  24  27
ENDBRANCH  12  16
ENDBRANCH   5  12
BRANCH   6  15
ATOM     15  C   UNL     1      -3.566   0.046  -1.258  0.00  0.00    +0.145 C 
BRANCH  15  17
ATOM      7  N   UNL     1      -6.314   1.597   0.833  0.00  0.00    -0.263 NA
ATOM     17  C   UNL     1      -4.359   1.067  -0.486  0.00  0.00    -0.012 A 
ATOM     20  C   UNL     1      -3.915   2.379  -0.369  0.00  0.00    +0.008 A 
ATOM     21  C   UNL     1      -5.554   0.729   0.128  0.00  0.00    +0.115 A 
ATOM     25  C   UNL     1      -4.670   3.301   0.349  0.00  0.00    +0.020 A 
ATOM     26  C   UNL     1      -5.851   2.863   0.926  0.00  0.00    +0.111 A 
ENDBRANCH  15  17
ENDBRANCH   6  15
TORSDOF 6
