MODEL 1
REMARK VINA RESULT:      -6.3      0.000      0.000
REMARK  Name = 7051997
REMARK  10 active torsions:
REMARK  status: ('A' for Active; 'I' for Inactive)
REMARK    1  A    between atoms: N_5  and  C_17
REMARK    2  A    between atoms: N_9  and  C_32
REMARK    3  A    between atoms: N_9  and  C_33
REMARK    4  A    between atoms: N_9  and  C_34
REMARK    5  A    between atoms: C_10  and  C_13
REMARK    6  A    between atoms: C_13  and  C_17
REMARK    7  A    between atoms: C_17  and  C_23
REMARK    8  A    between atoms: C_18  and  C_20
REMARK    9  A    between atoms: C_24  and  C_26
REMARK   10  A    between atoms: C_25  and  C_27
REMARK                            x       y       z     vdW  Elec       q    Type
REMARK                         _______ _______ _______ _____ _____    ______ ____
ROOT
ATOM      3  O   UNL     1     -11.230 -15.092  17.101  0.00  0.00    -0.276 OA
ATOM      4  O   UNL     1      -6.325 -10.716  20.359  0.00  0.00    -0.270 OA
ATOM      6  N   UNL     1      -9.717 -14.040  18.521  0.00  0.00    -0.287 N 
ATOM      7  N   UNL     1      -7.443 -12.277  19.028  0.00  0.00    -0.294 N 
ATOM     18  C   UNL     1      -9.025 -13.367  17.419  0.00  0.00    +0.179 C 
ATOM     19  C   UNL     1      -7.582 -12.992  17.751  0.00  0.00    +0.140 C 
ATOM     21  C   UNL     1      -9.171 -13.845  19.870  0.00  0.00    +0.127 C 
ATOM     22  C   UNL     1      -8.481 -12.499  20.032  0.00  0.00    +0.127 C 
ATOM     24  C   UNL     1     -10.763 -14.921  18.230  0.00  0.00    +0.213 C 
ATOM     25  C   UNL     1      -6.423 -11.361  19.315  0.00  0.00    +0.247 C 
ATOM     26  C   UNL     1     -11.339 -15.687  19.395  0.00  0.00    +0.109 C 
ENDROOT
BRANCH  25  27
ATOM     27  C   UNL     1      -5.376 -11.143  18.303  0.00  0.00    +0.037 A 
ATOM     28  C   UNL     1      -5.636 -10.329  17.203  0.00  0.00    +0.015 A 
ATOM     29  C   UNL     1      -4.133 -11.752  18.450  0.00  0.00    +0.015 A 
ATOM     30  C   UNL     1      -4.645 -10.123  16.244  0.00  0.00    +0.024 A 
ATOM     31  C   UNL     1      -3.142 -11.546  17.490  0.00  0.00    +0.024 A 
ATOM     32  C   UNL     1      -3.398 -10.731  16.387  0.00  0.00    +0.029 A 
BRANCH  32   9
ATOM      9  N   UNL     1      -2.397 -10.524  15.416  0.00  0.00    -0.336 N 
ATOM     33  C   UNL     1      -2.723 -10.562  14.004  0.00  0.00    +0.129 C 
ATOM     34  C   UNL     1      -1.029 -10.257  15.817  0.00  0.00    +0.129 C 
ENDBRANCH  32   9
ENDBRANCH  25  27
BRANCH  18  20
ATOM      1  O   UNL     1     -10.984 -12.001  17.483  0.00  0.00    -0.274 OA
ATOM      5  N   UNL     1      -9.165 -11.300  16.212  0.00  0.00    -0.302 N 
ATOM     20  C   UNL     1      -9.842 -12.158  17.062  0.00  0.00    +0.236 C 
ATOM     35  H   UNL     1      -8.230 -11.543  15.899  0.00  0.00    +0.150 HD
BRANCH   5  17
ATOM     17  C   UNL     1      -9.739 -10.075  15.704  0.00  0.00    +0.159 C 
BRANCH  17  23
ATOM      2  O   UNL     1      -9.779  -9.874  13.282  0.00  0.00    -0.274 OA
ATOM      8  N   UNL     1      -7.807  -9.459  14.383  0.00  0.00    -0.328 N 
ATOM     23  C   UNL     1      -9.144  -9.790  14.331  0.00  0.00    +0.231 C 
ATOM     36  H   UNL     1      -7.291  -9.256  13.533  0.00  0.00    +0.145 HD
ATOM     37  H   UNL     1      -7.288  -9.396  15.252  0.00  0.00    +0.145 HD
ENDBRANCH  17  23
BRANCH  17  13
ATOM     13  C   UNL     1      -9.569  -8.907  16.679  0.00  0.00    +0.035 C 
BRANCH  13  10
ATOM     10  C   UNL     1     -10.739  -7.924  16.689  0.00  0.00    -0.009 C 
ATOM     11  C   UNL     1     -12.042  -8.629  16.291  0.00  0.00    +0.003 C 
ATOM     12  C   UNL     1     -10.454  -6.735  15.761  0.00  0.00    +0.003 C 
ATOM     14  C   UNL     1     -13.218  -7.655  16.240  0.00  0.00    +0.000 C 
ATOM     15  C   UNL     1     -11.632  -5.764  15.712  0.00  0.00    +0.000 C 
ATOM     16  C   UNL     1     -12.928  -6.470  15.324  0.00  0.00    +0.000 C 
ENDBRANCH  13  10
ENDBRANCH  17  13
ENDBRANCH   5  17
ENDBRANCH  18  20
TORSDOF 7
ENDMDL
MODEL 2
REMARK VINA RESULT:      -6.3     26.403     29.951
REMARK  Name = 7051997
REMARK  10 active torsions:
REMARK  status: ('A' for Active; 'I' for Inactive)
REMARK    1  A    between atoms: N_5  and  C_17
REMARK    2  A    between atoms: N_9  and  C_32
REMARK    3  A    between atoms: N_9  and  C_33
REMARK    4  A    between atoms: N_9  and  C_34
REMARK    5  A    between atoms: C_10  and  C_13
REMARK    6  A    between atoms: C_13  and  C_17
REMARK    7  A    between atoms: C_17  and  C_23
REMARK    8  A    between atoms: C_18  and  C_20
REMARK    9  A    between atoms: C_24  and  C_26
REMARK   10  A    between atoms: C_25  and  C_27
REMARK                            x       y       z     vdW  Elec       q    Type
REMARK                         _______ _______ _______ _____ _____    ______ ____
ROOT
ATOM      3  O   UNL     1      15.331   8.196   4.200  0.00  0.00    -0.276 OA
ATOM      4  O   UNL     1       9.414  10.483   7.886  0.00  0.00    -0.270 OA
ATOM      6  N   UNL     1      13.787   9.245   5.589  0.00  0.00    -0.287 N 
ATOM      7  N   UNL     1      11.066  10.042   6.294  0.00  0.00    -0.294 N 
ATOM     18  C   UNL     1      12.652   8.888   4.734  0.00  0.00    +0.179 C 
ATOM     19  C   UNL     1      11.457   9.826   4.894  0.00  0.00    +0.140 C 
ATOM     21  C   UNL     1      13.501  10.078   6.765  0.00  0.00    +0.127 C 
ATOM     22  C   UNL     1      12.098   9.855   7.310  0.00  0.00    +0.127 C 
ATOM     24  C   UNL     1      15.079   8.895   5.185  0.00  0.00    +0.213 C 
ATOM     25  C   UNL     1       9.766  10.352   6.714  0.00  0.00    +0.247 C 
ATOM     26  C   UNL     1      16.212   9.414   6.036  0.00  0.00    +0.109 C 
ENDROOT
BRANCH  25  27
ATOM     27  C   UNL     1       8.729  10.544   5.686  0.00  0.00    +0.037 A 
ATOM     28  C   UNL     1       8.434  11.827   5.232  0.00  0.00    +0.015 A 
ATOM     29  C   UNL     1       8.047   9.443   5.176  0.00  0.00    +0.015 A 
ATOM     30  C   UNL     1       7.450  12.009   4.260  0.00  0.00    +0.024 A 
ATOM     31  C   UNL     1       7.063   9.625   4.204  0.00  0.00    +0.024 A 
ATOM     32  C   UNL     1       6.765  10.909   3.746  0.00  0.00    +0.029 A 
BRANCH  32   9
ATOM      9  N   UNL     1       5.769  11.094   2.764  0.00  0.00    -0.336 N 
ATOM     33  C   UNL     1       5.478  12.418   2.254  0.00  0.00    +0.129 C 
ATOM     34  C   UNL     1       5.034   9.958   2.243  0.00  0.00    +0.129 C 
ENDBRANCH  32   9
ENDBRANCH  25  27
BRANCH  18  20
ATOM      1  O   UNL     1      12.842   6.849   5.966  0.00  0.00    -0.274 OA
ATOM      5  N   UNL     1      11.302   6.974   4.225  0.00  0.00    -0.302 N 
ATOM     20  C   UNL     1      12.287   7.468   5.062  0.00  0.00    +0.236 C 
ATOM     35  H   UNL     1      10.932   7.564   3.486  0.00  0.00    +0.150 HD
BRANCH   5  17
ATOM     17  C   UNL     1      10.790   5.626   4.318  0.00  0.00    +0.159 C 
BRANCH  17  23
ATOM      2  O   UNL     1      10.191   4.494   2.252  0.00  0.00    -0.274 OA
ATOM      8  N   UNL     1      12.417   4.734   2.764  0.00  0.00    -0.328 N 
ATOM     23  C   UNL     1      11.070   4.905   3.005  0.00  0.00    +0.231 C 
ATOM     36  H   UNL     1      12.736   4.258   1.926  0.00  0.00    +0.145 HD
ATOM     37  H   UNL     1      13.138   5.073   3.391  0.00  0.00    +0.145 HD
ENDBRANCH  17  23
BRANCH  17  13
ATOM     13  C   UNL     1       9.309   5.594   4.707  0.00  0.00    +0.035 C 
BRANCH  13  10
ATOM     10  C   UNL     1       9.058   5.397   6.201  0.00  0.00    -0.009 C 
ATOM     11  C   UNL     1       9.235   6.719   6.960  0.00  0.00    +0.003 C 
ATOM     12  C   UNL     1       9.986   4.313   6.767  0.00  0.00    +0.003 C 
ATOM     14  C   UNL     1       9.043   6.537   8.464  0.00  0.00    +0.000 C 
ATOM     15  C   UNL     1       9.793   4.136   8.272  0.00  0.00    +0.000 C 
ATOM     16  C   UNL     1       9.960   5.453   9.022  0.00  0.00    +0.000 C 
ENDBRANCH  13  10
ENDBRANCH  17  13
ENDBRANCH   5  17
ENDBRANCH  18  20
TORSDOF 7
ENDMDL
MODEL 3
REMARK VINA RESULT:      -6.3      4.243      7.618
REMARK  Name = 7051997
REMARK  10 active torsions:
REMARK  status: ('A' for Active; 'I' for Inactive)
REMARK    1  A    between atoms: N_5  and  C_17
REMARK    2  A    between atoms: N_9  and  C_32
REMARK    3  A    between atoms: N_9  and  C_33
REMARK    4  A    between atoms: N_9  and  C_34
REMARK    5  A    between atoms: C_10  and  C_13
REMARK    6  A    between atoms: C_13  and  C_17
REMARK    7  A    between atoms: C_17  and  C_23
REMARK    8  A    between atoms: C_18  and  C_20
REMARK    9  A    between atoms: C_24  and  C_26
REMARK   10  A    between atoms: C_25  and  C_27
REMARK                            x       y       z     vdW  Elec       q    Type
REMARK                         _______ _______ _______ _____ _____    ______ ____
ROOT
ATOM      3  O   UNL     1      -3.990 -16.587  14.411  0.00  0.00    -0.276 OA
ATOM      4  O   UNL     1      -1.703  -9.936  12.323  0.00  0.00    -0.270 OA
ATOM      6  N   UNL     1      -2.818 -14.718  13.671  0.00  0.00    -0.287 N 
ATOM      7  N   UNL     1      -2.686 -12.048  12.492  0.00  0.00    -0.294 N 
ATOM     18  C   UNL     1      -4.036 -14.016  13.258  0.00  0.00    +0.179 C 
ATOM     19  C   UNL     1      -3.790 -12.966  12.176  0.00  0.00    +0.140 C 
ATOM     21  C   UNL     1      -1.538 -14.052  13.396  0.00  0.00    +0.127 C 
ATOM     22  C   UNL     1      -1.655 -12.536  13.404  0.00  0.00    +0.127 C 
ATOM     24  C   UNL     1      -2.920 -16.018  14.176  0.00  0.00    +0.213 C 
ATOM     25  C   UNL     1      -2.594 -10.732  12.024  0.00  0.00    +0.247 C 
ATOM     26  C   UNL     1      -1.622 -16.737  14.449  0.00  0.00    +0.109 C 
ENDROOT
BRANCH  25  27
ATOM     27  C   UNL     1      -3.632 -10.245  11.101  0.00  0.00    +0.037 A 
ATOM     28  C   UNL     1      -4.767  -9.614  11.605  0.00  0.00    +0.015 A 
ATOM     29  C   UNL     1      -3.475 -10.418   9.728  0.00  0.00    +0.015 A 
ATOM     30  C   UNL     1      -5.751  -9.154  10.730  0.00  0.00    +0.024 A 
ATOM     31  C   UNL     1      -4.459  -9.958   8.853  0.00  0.00    +0.024 A 
ATOM     32  C   UNL     1      -5.597  -9.325   9.355  0.00  0.00    +0.029 A 
BRANCH  32   9
ATOM      9  N   UNL     1      -6.593  -8.862   8.471  0.00  0.00    -0.336 N 
ATOM     33  C   UNL     1      -7.488  -7.793   8.868  0.00  0.00    +0.129 C 
ATOM     34  C   UNL     1      -6.726  -9.439   7.147  0.00  0.00    +0.129 C 
ENDBRANCH  32   9
ENDBRANCH  25  27
BRANCH  18  20
ATOM      1  O   UNL     1      -4.497 -13.924  15.601  0.00  0.00    -0.274 OA
ATOM      5  N   UNL     1      -5.330 -12.244  14.223  0.00  0.00    -0.302 N 
ATOM     20  C   UNL     1      -4.629 -13.405  14.496  0.00  0.00    +0.236 C 
ATOM     35  H   UNL     1      -5.402 -11.918  13.263  0.00  0.00    +0.150 HD
BRANCH   5  17
ATOM     17  C   UNL     1      -6.014 -11.477  15.238  0.00  0.00    +0.159 C 
BRANCH  17  23
ATOM      2  O   UNL     1      -8.312 -11.613  14.458  0.00  0.00    -0.274 OA
ATOM      8  N   UNL     1      -7.227  -9.594  14.321  0.00  0.00    -0.328 N 
ATOM     23  C   UNL     1      -7.308 -10.930  14.649  0.00  0.00    +0.231 C 
ATOM     36  H   UNL     1      -8.021  -9.113  13.909  0.00  0.00    +0.145 HD
ATOM     37  H   UNL     1      -6.394  -9.037  14.477  0.00  0.00    +0.145 HD
ENDBRANCH  17  23
BRANCH  17  13
ATOM     13  C   UNL     1      -5.125 -10.381  15.834  0.00  0.00    +0.035 C 
BRANCH  13  10
ATOM     10  C   UNL     1      -5.025 -10.415  17.359  0.00  0.00    -0.009 C 
ATOM     11  C   UNL     1      -4.289 -11.678  17.825  0.00  0.00    +0.003 C 
ATOM     12  C   UNL     1      -6.419 -10.329  17.994  0.00  0.00    +0.003 C 
ATOM     14  C   UNL     1      -4.223 -11.763  19.348  0.00  0.00    +0.000 C 
ATOM     15  C   UNL     1      -6.350 -10.416  19.517  0.00  0.00    +0.000 C 
ATOM     16  C   UNL     1      -5.610 -11.667  19.978  0.00  0.00    +0.000 C 
ENDBRANCH  13  10
ENDBRANCH  17  13
ENDBRANCH   5  17
ENDBRANCH  18  20
TORSDOF 7
ENDMDL
MODEL 4
REMARK VINA RESULT:      -6.2      3.831      7.957
REMARK  Name = 7051997
REMARK  10 active torsions:
REMARK  status: ('A' for Active; 'I' for Inactive)
REMARK    1  A    between atoms: N_5  and  C_17
REMARK    2  A    between atoms: N_9  and  C_32
REMARK    3  A    between atoms: N_9  and  C_33
REMARK    4  A    between atoms: N_9  and  C_34
REMARK    5  A    between atoms: C_10  and  C_13
REMARK    6  A    between atoms: C_13  and  C_17
REMARK    7  A    between atoms: C_17  and  C_23
REMARK    8  A    between atoms: C_18  and  C_20
REMARK    9  A    between atoms: C_24  and  C_26
REMARK   10  A    between atoms: C_25  and  C_27
REMARK                            x       y       z     vdW  Elec       q    Type
REMARK                         _______ _______ _______ _____ _____    ______ ____
ROOT
ATOM      3  O   UNL     1      -4.915 -10.297  17.929  0.00  0.00    -0.276 OA
ATOM      4  O   UNL     1      -9.098 -12.997  12.541  0.00  0.00    -0.270 OA
ATOM      6  N   UNL     1      -6.552 -11.290  16.607  0.00  0.00    -0.287 N 
ATOM      7  N   UNL     1      -7.963 -11.648  14.074  0.00  0.00    -0.294 N 
ATOM     18  C   UNL     1      -6.173 -10.521  15.418  0.00  0.00    +0.179 C 
ATOM     19  C   UNL     1      -7.309 -10.375  14.407  0.00  0.00    +0.140 C 
ATOM     21  C   UNL     1      -7.710 -12.184  16.482  0.00  0.00    +0.127 C 
ATOM     22  C   UNL     1      -7.888 -12.715  15.068  0.00  0.00    +0.127 C 
ATOM     24  C   UNL     1      -5.889 -11.045  17.814  0.00  0.00    +0.213 C 
ATOM     25  C   UNL     1      -8.594 -11.919  12.853  0.00  0.00    +0.247 C 
ATOM     26  C   UNL     1      -6.420 -11.766  19.029  0.00  0.00    +0.109 C 
ENDROOT
BRANCH  25  27
ATOM     27  C   UNL     1      -8.672 -10.839  11.854  0.00  0.00    +0.037 A 
ATOM     28  C   UNL     1      -7.544 -10.505  11.108  0.00  0.00    +0.015 A 
ATOM     29  C   UNL     1      -9.870 -10.158  11.663  0.00  0.00    +0.015 A 
ATOM     30  C   UNL     1      -7.618  -9.482  10.162  0.00  0.00    +0.024 A 
ATOM     31  C   UNL     1      -9.943  -9.135  10.717  0.00  0.00    +0.024 A 
ATOM     32  C   UNL     1      -8.817  -8.797   9.967  0.00  0.00    +0.029 A 
BRANCH  32   9
ATOM      9  N   UNL     1      -8.890  -7.761   9.012  0.00  0.00    -0.336 N 
ATOM     33  C   UNL     1     -10.081  -6.941   8.909  0.00  0.00    +0.129 C 
ATOM     34  C   UNL     1      -7.770  -7.494   8.132  0.00  0.00    +0.129 C 
ENDBRANCH  32   9
ENDBRANCH  25  27
BRANCH  18  20
ATOM      1  O   UNL     1      -4.796 -12.414  14.942  0.00  0.00    -0.274 OA
ATOM      5  N   UNL     1      -4.151 -10.324  14.147  0.00  0.00    -0.302 N 
ATOM     20  C   UNL     1      -4.982 -11.207  14.814  0.00  0.00    +0.236 C 
ATOM     35  H   UNL     1      -4.384  -9.336  14.128  0.00  0.00    +0.150 HD
BRANCH   5  17
ATOM     17  C   UNL     1      -2.925 -10.730  13.497  0.00  0.00    +0.159 C 
BRANCH  17  23
ATOM      2  O   UNL     1      -1.086  -9.631  14.645  0.00  0.00    -0.274 OA
ATOM      8  N   UNL     1      -1.596 -11.797  15.215  0.00  0.00    -0.328 N 
ATOM     23  C   UNL     1      -1.785 -10.632  14.502  0.00  0.00    +0.231 C 
ATOM     36  H   UNL     1      -0.859 -11.864  15.910  0.00  0.00    +0.145 HD
ATOM     37  H   UNL     1      -2.174 -12.621  15.090  0.00  0.00    +0.145 HD
ENDBRANCH  17  23
BRANCH  17  13
ATOM     13  C   UNL     1      -2.657  -9.933  12.217  0.00  0.00    +0.035 C 
BRANCH  13  10
ATOM     10  C   UNL     1      -3.702 -10.141  11.120  0.00  0.00    -0.009 C 
ATOM     11  C   UNL     1      -3.693 -11.596  10.633  0.00  0.00    +0.003 C 
ATOM     12  C   UNL     1      -3.463  -9.172   9.955  0.00  0.00    +0.003 C 
ATOM     14  C   UNL     1      -4.691 -11.817   9.498  0.00  0.00    +0.000 C 
ATOM     15  C   UNL     1      -4.462  -9.397   8.821  0.00  0.00    +0.000 C 
ATOM     16  C   UNL     1      -4.457 -10.846   8.345  0.00  0.00    +0.000 C 
ENDBRANCH  13  10
ENDBRANCH  17  13
ENDBRANCH   5  17
ENDBRANCH  18  20
TORSDOF 7
ENDMDL
MODEL 5
REMARK VINA RESULT:      -6.2      3.987      7.320
REMARK  Name = 7051997
REMARK  10 active torsions:
REMARK  status: ('A' for Active; 'I' for Inactive)
REMARK    1  A    between atoms: N_5  and  C_17
REMARK    2  A    between atoms: N_9  and  C_32
REMARK    3  A    between atoms: N_9  and  C_33
REMARK    4  A    between atoms: N_9  and  C_34
REMARK    5  A    between atoms: C_10  and  C_13
REMARK    6  A    between atoms: C_13  and  C_17
REMARK    7  A    between atoms: C_17  and  C_23
REMARK    8  A    between atoms: C_18  and  C_20
REMARK    9  A    between atoms: C_24  and  C_26
REMARK   10  A    between atoms: C_25  and  C_27
REMARK                            x       y       z     vdW  Elec       q    Type
REMARK                         _______ _______ _______ _____ _____    ______ ____
ROOT
ATOM      3  O   UNL     1      -4.164 -15.295  15.518  0.00  0.00    -0.276 OA
ATOM      4  O   UNL     1      -1.936  -9.772  11.233  0.00  0.00    -0.270 OA
ATOM      6  N   UNL     1      -3.120 -13.890  13.986  0.00  0.00    -0.287 N 
ATOM      7  N   UNL     1      -3.073 -11.548  12.240  0.00  0.00    -0.294 N 
ATOM     18  C   UNL     1      -4.282 -13.004  13.883  0.00  0.00    +0.179 C 
ATOM     19  C   UNL     1      -4.334 -12.227  12.568  0.00  0.00    +0.140 C 
ATOM     21  C   UNL     1      -1.971 -13.588  13.122  0.00  0.00    +0.127 C 
ATOM     22  C   UNL     1      -1.849 -12.104  12.811  0.00  0.00    +0.127 C 
ATOM     24  C   UNL     1      -3.205 -15.032  14.788  0.00  0.00    +0.213 C 
ATOM     25  C   UNL     1      -2.979 -10.381  11.472  0.00  0.00    +0.247 C 
ATOM     26  C   UNL     1      -2.028 -15.975  14.741  0.00  0.00    +0.109 C 
ENDROOT
BRANCH  25  27
ATOM     27  C   UNL     1      -4.214  -9.826  10.893  0.00  0.00    +0.037 A 
ATOM     28  C   UNL     1      -4.378  -9.798   9.510  0.00  0.00    +0.015 A 
ATOM     29  C   UNL     1      -5.209  -9.330  11.731  0.00  0.00    +0.015 A 
ATOM     30  C   UNL     1      -5.548  -9.271   8.962  0.00  0.00    +0.024 A 
ATOM     31  C   UNL     1      -6.379  -8.803  11.182  0.00  0.00    +0.024 A 
ATOM     32  C   UNL     1      -6.548  -8.774   9.797  0.00  0.00    +0.029 A 
BRANCH  32   9
ATOM      9  N   UNL     1      -7.729  -8.239   9.243  0.00  0.00    -0.336 N 
ATOM     33  C   UNL     1      -9.025  -8.753   9.640  0.00  0.00    +0.129 C 
ATOM     34  C   UNL     1      -7.663  -7.159   8.278  0.00  0.00    +0.129 C 
ENDBRANCH  32   9
ENDBRANCH  25  27
BRANCH  18  20
ATOM      1  O   UNL     1      -3.437 -11.151  15.133  0.00  0.00    -0.274 OA
ATOM      5  N   UNL     1      -5.160 -12.428  16.038  0.00  0.00    -0.302 N 
ATOM     20  C   UNL     1      -4.235 -12.081  15.067  0.00  0.00    +0.236 C 
ATOM     35  H   UNL     1      -5.754 -13.239  15.894  0.00  0.00    +0.150 HD
BRANCH   5  17
ATOM     17  C   UNL     1      -5.301 -11.712  17.285  0.00  0.00    +0.159 C 
BRANCH  17  23
ATOM      2  O   UNL     1      -4.064 -11.966  19.361  0.00  0.00    -0.274 OA
ATOM      8  N   UNL     1      -4.550 -13.848  18.139  0.00  0.00    -0.328 N 
ATOM     23  C   UNL     1      -4.584 -12.491  18.380  0.00  0.00    +0.231 C 
ATOM     36  H   UNL     1      -4.091 -14.478  18.789  0.00  0.00    +0.145 HD
ATOM     37  H   UNL     1      -4.978 -14.275  17.324  0.00  0.00    +0.145 HD
ENDBRANCH  17  23
BRANCH  17  13
ATOM     13  C   UNL     1      -6.767 -11.424  17.625  0.00  0.00    +0.035 C 
BRANCH  13  10
ATOM     10  C   UNL     1      -7.371 -10.253  16.851  0.00  0.00    -0.009 C 
ATOM     11  C   UNL     1      -8.430  -9.534  17.697  0.00  0.00    +0.003 C 
ATOM     12  C   UNL     1      -7.966 -10.732  15.520  0.00  0.00    +0.003 C 
ATOM     14  C   UNL     1      -9.087  -8.391  16.926  0.00  0.00    +0.000 C 
ATOM     15  C   UNL     1      -8.624  -9.587  14.753  0.00  0.00    +0.000 C 
ATOM     16  C   UNL     1      -9.670  -8.869  15.600  0.00  0.00    +0.000 C 
ENDBRANCH  13  10
ENDBRANCH  17  13
ENDBRANCH   5  17
ENDBRANCH  18  20
TORSDOF 7
ENDMDL
MODEL 6
REMARK VINA RESULT:      -6.1     26.554     31.336
REMARK  Name = 7051997
REMARK  10 active torsions:
REMARK  status: ('A' for Active; 'I' for Inactive)
REMARK    1  A    between atoms: N_5  and  C_17
REMARK    2  A    between atoms: N_9  and  C_32
REMARK    3  A    between atoms: N_9  and  C_33
REMARK    4  A    between atoms: N_9  and  C_34
REMARK    5  A    between atoms: C_10  and  C_13
REMARK    6  A    between atoms: C_13  and  C_17
REMARK    7  A    between atoms: C_17  and  C_23
REMARK    8  A    between atoms: C_18  and  C_20
REMARK    9  A    between atoms: C_24  and  C_26
REMARK   10  A    between atoms: C_25  and  C_27
REMARK                            x       y       z     vdW  Elec       q    Type
REMARK                         _______ _______ _______ _____ _____    ______ ____
ROOT
ATOM      3  O   UNL     1       9.878   4.839   6.862  0.00  0.00    -0.276 OA
ATOM      4  O   UNL     1      13.568  10.995   5.339  0.00  0.00    -0.270 OA
ATOM      6  N   UNL     1      10.884   6.937   6.844  0.00  0.00    -0.287 N 
ATOM      7  N   UNL     1      12.904   8.827   5.905  0.00  0.00    -0.294 N 
ATOM     18  C   UNL     1      11.891   6.535   5.858  0.00  0.00    +0.179 C 
ATOM     19  C   UNL     1      13.163   7.381   5.916  0.00  0.00    +0.140 C 
ATOM     21  C   UNL     1      10.986   8.298   7.385  0.00  0.00    +0.127 C 
ATOM     22  C   UNL     1      11.604   9.275   6.396  0.00  0.00    +0.127 C 
ATOM     24  C   UNL     1       9.972   5.985   7.310  0.00  0.00    +0.213 C 
ATOM     25  C   UNL     1      13.793   9.786   5.403  0.00  0.00    +0.247 C 
ATOM     26  C   UNL     1       9.055   6.424   8.425  0.00  0.00    +0.109 C 
ENDROOT
BRANCH  25  27
ATOM     27  C   UNL     1      15.105   9.332   4.912  0.00  0.00    +0.037 A 
ATOM     28  C   UNL     1      15.244   8.919   3.589  0.00  0.00    +0.015 A 
ATOM     29  C   UNL     1      16.199   9.317   5.773  0.00  0.00    +0.015 A 
ATOM     30  C   UNL     1      16.487   8.488   3.125  0.00  0.00    +0.024 A 
ATOM     31  C   UNL     1      17.442   8.885   5.308  0.00  0.00    +0.024 A 
ATOM     32  C   UNL     1      17.585   8.471   3.983  0.00  0.00    +0.029 A 
BRANCH  32   9
ATOM      9  N   UNL     1      18.841   8.033   3.514  0.00  0.00    -0.336 N 
ATOM     33  C   UNL     1      19.838   7.535   4.440  0.00  0.00    +0.129 C 
ATOM     34  C   UNL     1      19.145   8.063   2.097  0.00  0.00    +0.129 C 
ENDBRANCH  32   9
ENDBRANCH  25  27
BRANCH  18  20
ATOM      1  O   UNL     1      10.245   7.307   4.308  0.00  0.00    -0.274 OA
ATOM      5  N   UNL     1      11.869   5.810   3.573  0.00  0.00    -0.302 N 
ATOM     20  C   UNL     1      11.238   6.613   4.508  0.00  0.00    +0.236 C 
ATOM     35  H   UNL     1      12.668   5.250   3.854  0.00  0.00    +0.150 HD
BRANCH   5  17
ATOM     17  C   UNL     1      11.421   5.690   2.205  0.00  0.00    +0.159 C 
BRANCH  17  23
ATOM      2  O   UNL     1      11.374   3.296   2.624  0.00  0.00    -0.274 OA
ATOM      8  N   UNL     1      10.116   4.130   0.893  0.00  0.00    -0.328 N 
ATOM     23  C   UNL     1      10.980   4.252   1.960  0.00  0.00    +0.231 C 
ATOM     36  H   UNL     1       9.757   3.221   0.619  0.00  0.00    +0.145 HD
ATOM     37  H   UNL     1       9.798   4.923   0.346  0.00  0.00    +0.145 HD
ENDBRANCH  17  23
BRANCH  17  13
ATOM     13  C   UNL     1      12.480   6.164   1.205  0.00  0.00    +0.035 C 
BRANCH  13  10
ATOM     10  C   UNL     1      13.376   5.049   0.666  0.00  0.00    -0.009 C 
ATOM     11  C   UNL     1      14.561   4.802   1.608  0.00  0.00    +0.003 C 
ATOM     12  C   UNL     1      13.862   5.383  -0.751  0.00  0.00    +0.003 C 
ATOM     14  C   UNL     1      15.501   3.729   1.063  0.00  0.00    +0.000 C 
ATOM     15  C   UNL     1      14.804   4.308  -1.291  0.00  0.00    +0.000 C 
ATOM     16  C   UNL     1      15.976   4.059  -0.348  0.00  0.00    +0.000 C 
ENDBRANCH  13  10
ENDBRANCH  17  13
ENDBRANCH   5  17
ENDBRANCH  18  20
TORSDOF 7
ENDMDL
MODEL 7
REMARK VINA RESULT:      -6.0      3.631      7.724
REMARK  Name = 7051997
REMARK  10 active torsions:
REMARK  status: ('A' for Active; 'I' for Inactive)
REMARK    1  A    between atoms: N_5  and  C_17
REMARK    2  A    between atoms: N_9  and  C_32
REMARK    3  A    between atoms: N_9  and  C_33
REMARK    4  A    between atoms: N_9  and  C_34
REMARK    5  A    between atoms: C_10  and  C_13
REMARK    6  A    between atoms: C_13  and  C_17
REMARK    7  A    between atoms: C_17  and  C_23
REMARK    8  A    between atoms: C_18  and  C_20
REMARK    9  A    between atoms: C_24  and  C_26
REMARK   10  A    between atoms: C_25  and  C_27
REMARK                            x       y       z     vdW  Elec       q    Type
REMARK                         _______ _______ _______ _____ _____    ______ ____
ROOT
ATOM      3  O   UNL     1      -2.052 -10.294  13.901  0.00  0.00    -0.276 OA
ATOM      4  O   UNL     1      -7.640 -11.688  18.445  0.00  0.00    -0.270 OA
ATOM      6  N   UNL     1      -3.474 -10.648  15.708  0.00  0.00    -0.287 N 
ATOM      7  N   UNL     1      -6.127 -10.759  16.927  0.00  0.00    -0.294 N 
ATOM     18  C   UNL     1      -4.676 -10.354  14.924  0.00  0.00    +0.179 C 
ATOM     19  C   UNL     1      -5.854  -9.886  15.777  0.00  0.00    +0.140 C 
ATOM     21  C   UNL     1      -3.661 -10.925  17.138  0.00  0.00    +0.127 C 
ATOM     22  C   UNL     1      -5.013 -11.553  17.439  0.00  0.00    +0.127 C 
ATOM     24  C   UNL     1      -2.220 -10.526  15.101  0.00  0.00    +0.213 C 
ATOM     25  C   UNL     1      -7.387 -10.921  17.517  0.00  0.00    +0.247 C 
ATOM     26  C   UNL     1      -1.020 -10.704  15.999  0.00  0.00    +0.109 C 
ENDROOT
BRANCH  25  27
ATOM     27  C   UNL     1      -8.507 -10.116  17.001  0.00  0.00    +0.037 A 
ATOM     28  C   UNL     1      -9.368 -10.657  16.049  0.00  0.00    +0.015 A 
ATOM     29  C   UNL     1      -8.698  -8.817  17.465  0.00  0.00    +0.015 A 
ATOM     30  C   UNL     1     -10.428  -9.894  15.560  0.00  0.00    +0.024 A 
ATOM     31  C   UNL     1      -9.758  -8.054  16.976  0.00  0.00    +0.024 A 
ATOM     32  C   UNL     1     -10.624  -8.593  16.023  0.00  0.00    +0.029 A 
BRANCH  32   9
ATOM      9  N   UNL     1     -11.694  -7.821  15.527  0.00  0.00    -0.336 N 
ATOM     33  C   UNL     1     -11.618  -6.374  15.526  0.00  0.00    +0.129 C 
ATOM     34  C   UNL     1     -12.880  -8.466  14.998  0.00  0.00    +0.129 C 
ENDBRANCH  32   9
ENDBRANCH  25  27
BRANCH  18  20
ATOM      1  O   UNL     1      -5.779 -12.449  14.601  0.00  0.00    -0.274 OA
ATOM      5  N   UNL     1      -4.348 -11.663  12.942  0.00  0.00    -0.302 N 
ATOM     20  C   UNL     1      -5.012 -11.600  14.155  0.00  0.00    +0.236 C 
ATOM     35  H   UNL     1      -3.710 -10.917  12.683  0.00  0.00    +0.150 HD
BRANCH   5  17
ATOM     17  C   UNL     1      -4.482 -12.771  12.025  0.00  0.00    +0.159 C 
BRANCH  17  23
ATOM      2  O   UNL     1      -3.107 -14.765  11.823  0.00  0.00    -0.274 OA
ATOM      8  N   UNL     1      -2.073 -12.759  12.250  0.00  0.00    -0.328 N 
ATOM     23  C   UNL     1      -3.174 -13.552  12.007  0.00  0.00    +0.231 C 
ATOM     36  H   UNL     1      -1.141 -13.162  12.275  0.00  0.00    +0.145 HD
ATOM     37  H   UNL     1      -2.135 -11.759  12.404  0.00  0.00    +0.145 HD
ENDBRANCH  17  23
BRANCH  17  13
ATOM     13  C   UNL     1      -4.922 -12.318  10.629  0.00  0.00    +0.035 C 
BRANCH  13  10
ATOM     10  C   UNL     1      -5.028 -10.802  10.468  0.00  0.00    -0.009 C 
ATOM     11  C   UNL     1      -6.479 -10.388  10.186  0.00  0.00    +0.003 C 
ATOM     12  C   UNL     1      -4.092 -10.308   9.358  0.00  0.00    +0.003 C 
ATOM     14  C   UNL     1      -6.602  -8.881   9.967  0.00  0.00    +0.000 C 
ATOM     15  C   UNL     1      -4.220  -8.802   9.141  0.00  0.00    +0.000 C 
ATOM     16  C   UNL     1      -5.664  -8.392   8.869  0.00  0.00    +0.000 C 
ENDBRANCH  13  10
ENDBRANCH  17  13
ENDBRANCH   5  17
ENDBRANCH  18  20
TORSDOF 7
ENDMDL
MODEL 8
REMARK VINA RESULT:      -5.9     26.811     30.265
REMARK  Name = 7051997
REMARK  10 active torsions:
REMARK  status: ('A' for Active; 'I' for Inactive)
REMARK    1  A    between atoms: N_5  and  C_17
REMARK    2  A    between atoms: N_9  and  C_32
REMARK    3  A    between atoms: N_9  and  C_33
REMARK    4  A    between atoms: N_9  and  C_34
REMARK    5  A    between atoms: C_10  and  C_13
REMARK    6  A    between atoms: C_13  and  C_17
REMARK    7  A    between atoms: C_17  and  C_23
REMARK    8  A    between atoms: C_18  and  C_20
REMARK    9  A    between atoms: C_24  and  C_26
REMARK   10  A    between atoms: C_25  and  C_27
REMARK                            x       y       z     vdW  Elec       q    Type
REMARK                         _______ _______ _______ _____ _____    ______ ____
ROOT
ATOM      3  O   UNL     1      14.801   7.473   3.800  0.00  0.00    -0.276 OA
ATOM      4  O   UNL     1       9.263  10.099   7.831  0.00  0.00    -0.270 OA
ATOM      6  N   UNL     1      13.417   8.573   5.311  0.00  0.00    -0.287 N 
ATOM      7  N   UNL     1      10.818   9.604   6.159  0.00  0.00    -0.294 N 
ATOM     18  C   UNL     1      12.230   8.409   4.468  0.00  0.00    +0.179 C 
ATOM     19  C   UNL     1      11.150   9.457   4.735  0.00  0.00    +0.140 C 
ATOM     21  C   UNL     1      13.252   9.338   6.554  0.00  0.00    +0.127 C 
ATOM     22  C   UNL     1      11.847   9.229   7.126  0.00  0.00    +0.127 C 
ATOM     24  C   UNL     1      14.652   8.116   4.842  0.00  0.00    +0.213 C 
ATOM     25  C   UNL     1       9.571  10.021   6.642  0.00  0.00    +0.247 C 
ATOM     26  C   UNL     1      15.856   8.441   5.692  0.00  0.00    +0.109 C 
ENDROOT
BRANCH  25  27
ATOM     27  C   UNL     1       8.538  10.404   5.665  0.00  0.00    +0.037 A 
ATOM     28  C   UNL     1       7.775   9.419   5.043  0.00  0.00    +0.015 A 
ATOM     29  C   UNL     1       8.329  11.748   5.368  0.00  0.00    +0.015 A 
ATOM     30  C   UNL     1       6.797   9.782   4.117  0.00  0.00    +0.024 A 
ATOM     31  C   UNL     1       7.351  12.110   4.442  0.00  0.00    +0.024 A 
ATOM     32  C   UNL     1       6.584  11.126   3.817  0.00  0.00    +0.029 A 
BRANCH  32   9
ATOM      9  N   UNL     1       5.597  11.492   2.879  0.00  0.00    -0.336 N 
ATOM     33  C   UNL     1       4.742  10.486   2.282  0.00  0.00    +0.129 C 
ATOM     34  C   UNL     1       5.414  12.883   2.511  0.00  0.00    +0.129 C 
ENDBRANCH  32   9
ENDBRANCH  25  27
BRANCH  18  20
ATOM      1  O   UNL     1      12.169   6.300   5.590  0.00  0.00    -0.274 OA
ATOM      5  N   UNL     1      10.727   6.665   3.799  0.00  0.00    -0.302 N 
ATOM     20  C   UNL     1      11.717   7.016   4.701  0.00  0.00    +0.236 C 
ATOM     35  H   UNL     1      10.448   7.326   3.081  0.00  0.00    +0.150 HD
BRANCH   5  17
ATOM     17  C   UNL     1      10.085   5.370   3.796  0.00  0.00    +0.159 C 
BRANCH  17  23
ATOM      2  O   UNL     1       8.551   5.830   5.624  0.00  0.00    -0.274 OA
ATOM      8  N   UNL     1      10.021   4.079   5.842  0.00  0.00    -0.328 N 
ATOM     23  C   UNL     1       9.453   5.135   5.162  0.00  0.00    +0.231 C 
ATOM     36  H   UNL     1       9.695   3.826   6.770  0.00  0.00    +0.145 HD
ATOM     37  H   UNL     1      10.768   3.511   5.457  0.00  0.00    +0.145 HD
ENDBRANCH  17  23
BRANCH  17  13
ATOM     13  C   UNL     1      11.045   4.249   3.385  0.00  0.00    +0.035 C 
BRANCH  13  10
ATOM     10  C   UNL     1      11.646   4.419   1.991  0.00  0.00    -0.009 C 
ATOM     11  C   UNL     1      10.556   4.316   0.915  0.00  0.00    +0.003 C 
ATOM     12  C   UNL     1      12.753   3.384   1.749  0.00  0.00    +0.003 C 
ATOM     14  C   UNL     1      11.140   4.428  -0.492  0.00  0.00    +0.000 C 
ATOM     15  C   UNL     1      13.333   3.499   0.340  0.00  0.00    +0.000 C 
ATOM     16  C   UNL     1      12.246   3.405  -0.726  0.00  0.00    +0.000 C 
ENDBRANCH  13  10
ENDBRANCH  17  13
ENDBRANCH   5  17
ENDBRANCH  18  20
TORSDOF 7
ENDMDL
MODEL 9
REMARK VINA RESULT:      -5.9     25.246     29.564
REMARK  Name = 7051997
REMARK  10 active torsions:
REMARK  status: ('A' for Active; 'I' for Inactive)
REMARK    1  A    between atoms: N_5  and  C_17
REMARK    2  A    between atoms: N_9  and  C_32
REMARK    3  A    between atoms: N_9  and  C_33
REMARK    4  A    between atoms: N_9  and  C_34
REMARK    5  A    between atoms: C_10  and  C_13
REMARK    6  A    between atoms: C_13  and  C_17
REMARK    7  A    between atoms: C_17  and  C_23
REMARK    8  A    between atoms: C_18  and  C_20
REMARK    9  A    between atoms: C_24  and  C_26
REMARK   10  A    between atoms: C_25  and  C_27
REMARK                            x       y       z     vdW  Elec       q    Type
REMARK                         _______ _______ _______ _____ _____    ______ ____
ROOT
ATOM      3  O   UNL     1       9.841   3.595   8.037  0.00  0.00    -0.276 OA
ATOM      4  O   UNL     1      10.997  10.564   6.055  0.00  0.00    -0.270 OA
ATOM      6  N   UNL     1      10.112   5.902   7.904  0.00  0.00    -0.287 N 
ATOM      7  N   UNL     1      11.184   8.311   6.645  0.00  0.00    -0.294 N 
ATOM     18  C   UNL     1      10.952   5.816   6.707  0.00  0.00    +0.179 C 
ATOM     19  C   UNL     1      11.877   7.020   6.530  0.00  0.00    +0.140 C 
ATOM     21  C   UNL     1       9.901   7.238   8.476  0.00  0.00    +0.127 C 
ATOM     22  C   UNL     1       9.950   8.337   7.426  0.00  0.00    +0.127 C 
ATOM     24  C   UNL     1       9.669   4.722   8.509  0.00  0.00    +0.213 C 
ATOM     25  C   UNL     1      11.596   9.489   6.010  0.00  0.00    +0.247 C 
ATOM     26  C   UNL     1       8.929   4.875   9.816  0.00  0.00    +0.109 C 
ENDROOT
BRANCH  25  27
ATOM     27  C   UNL     1      12.842   9.460   5.227  0.00  0.00    +0.037 A 
ATOM     28  C   UNL     1      14.041   9.853   5.819  0.00  0.00    +0.015 A 
ATOM     29  C   UNL     1      12.817   9.043   3.899  0.00  0.00    +0.015 A 
ATOM     30  C   UNL     1      15.221   9.826   5.076  0.00  0.00    +0.024 A 
ATOM     31  C   UNL     1      13.998   9.017   3.157  0.00  0.00    +0.024 A 
ATOM     32  C   UNL     1      15.201   9.409   3.747  0.00  0.00    +0.029 A 
BRANCH  32   9
ATOM      9  N   UNL     1      16.394   9.384   2.996  0.00  0.00    -0.336 N 
ATOM     33  C   UNL     1      16.746   8.216   2.214  0.00  0.00    +0.129 C 
ATOM     34  C   UNL     1      17.278  10.533   2.986  0.00  0.00    +0.129 C 
ENDBRANCH  32   9
ENDBRANCH  25  27
BRANCH  18  20
ATOM      1  O   UNL     1       8.820   5.485   5.681  0.00  0.00    -0.274 OA
ATOM      5  N   UNL     1      10.700   5.694   4.326  0.00  0.00    -0.302 N 
ATOM     20  C   UNL     1      10.027   5.654   5.534  0.00  0.00    +0.236 C 
ATOM     35  H   UNL     1      11.710   5.808   4.320  0.00  0.00    +0.150 HD
BRANCH   5  17
ATOM     17  C   UNL     1      10.042   5.540   3.049  0.00  0.00    +0.159 C 
BRANCH  17  23
ATOM      2  O   UNL     1      11.614   3.710   2.755  0.00  0.00    -0.274 OA
ATOM      8  N   UNL     1      10.102   4.134   1.079  0.00  0.00    -0.328 N 
ATOM     23  C   UNL     1      10.674   4.366   2.312  0.00  0.00    +0.231 C 
ATOM     36  H   UNL     1      10.441   3.385   0.484  0.00  0.00    +0.145 HD
ATOM     37  H   UNL     1       9.329   4.682   0.718  0.00  0.00    +0.145 HD
ENDBRANCH  17  23
BRANCH  17  13
ATOM     13  C   UNL     1      10.058   6.833   2.229  0.00  0.00    +0.035 C 
BRANCH  13  10
ATOM     10  C   UNL     1       8.811   7.699   2.401  0.00  0.00    -0.009 C 
ATOM     11  C   UNL     1       8.616   8.616   1.186  0.00  0.00    +0.003 C 
ATOM     12  C   UNL     1       8.895   8.517   3.697  0.00  0.00    +0.003 C 
ATOM     14  C   UNL     1       7.406   9.532   1.359  0.00  0.00    +0.000 C 
ATOM     15  C   UNL     1       7.684   9.433   3.865  0.00  0.00    +0.000 C 
ATOM     16  C   UNL     1       7.488  10.337   2.652  0.00  0.00    +0.000 C 
ENDBRANCH  13  10
ENDBRANCH  17  13
ENDBRANCH   5  17
ENDBRANCH  18  20
TORSDOF 7
ENDMDL
MODEL 10
REMARK VINA RESULT:      -5.9     16.309     20.633
REMARK  Name = 7051997
REMARK  10 active torsions:
REMARK  status: ('A' for Active; 'I' for Inactive)
REMARK    1  A    between atoms: N_5  and  C_17
REMARK    2  A    between atoms: N_9  and  C_32
REMARK    3  A    between atoms: N_9  and  C_33
REMARK    4  A    between atoms: N_9  and  C_34
REMARK    5  A    between atoms: C_10  and  C_13
REMARK    6  A    between atoms: C_13  and  C_17
REMARK    7  A    between atoms: C_17  and  C_23
REMARK    8  A    between atoms: C_18  and  C_20
REMARK    9  A    between atoms: C_24  and  C_26
REMARK   10  A    between atoms: C_25  and  C_27
REMARK                            x       y       z     vdW  Elec       q    Type
REMARK                         _______ _______ _______ _____ _____    ______ ____
ROOT
ATOM      3  O   UNL     1      -3.764 -12.869   3.086  0.00  0.00    -0.276 OA
ATOM      4  O   UNL     1      -2.787 -15.670  -3.625  0.00  0.00    -0.270 OA
ATOM      6  N   UNL     1      -3.966 -13.726   0.932  0.00  0.00    -0.287 N 
ATOM      7  N   UNL     1      -2.908 -14.312  -1.727  0.00  0.00    -0.294 N 
ATOM     18  C   UNL     1      -2.595 -13.359   0.570  0.00  0.00    +0.179 C 
ATOM     19  C   UNL     1      -2.394 -13.186  -0.935  0.00  0.00    +0.140 C 
ATOM     21  C   UNL     1      -4.796 -14.327  -0.119  0.00  0.00    +0.127 C 
ATOM     22  C   UNL     1      -3.977 -15.111  -1.134  0.00  0.00    +0.127 C 
ATOM     24  C   UNL     1      -4.452 -13.375   2.195  0.00  0.00    +0.213 C 
ATOM     25  C   UNL     1      -2.402 -14.698  -2.975  0.00  0.00    +0.247 C 
ATOM     26  C   UNL     1      -5.913 -13.654   2.454  0.00  0.00    +0.109 C 
ENDROOT
BRANCH  25  27
ATOM     27  C   UNL     1      -1.327 -13.888  -3.572  0.00  0.00    +0.037 A 
ATOM     28  C   UNL     1      -1.625 -12.989  -4.594  0.00  0.00    +0.015 A 
ATOM     29  C   UNL     1      -0.020 -14.025  -3.115  0.00  0.00    +0.015 A 
ATOM     30  C   UNL     1      -0.607 -12.222  -5.161  0.00  0.00    +0.024 A 
ATOM     31  C   UNL     1       0.999 -13.258  -3.683  0.00  0.00    +0.024 A 
ATOM     32  C   UNL     1       0.704 -12.356  -4.706  0.00  0.00    +0.029 A 
BRANCH  32   9
ATOM      9  N   UNL     1       1.733 -11.582  -5.281  0.00  0.00    -0.336 N 
ATOM     33  C   UNL     1       1.948 -10.213  -4.856  0.00  0.00    +0.129 C 
ATOM     34  C   UNL     1       2.599 -12.150  -6.296  0.00  0.00    +0.129 C 
ENDBRANCH  32   9
ENDBRANCH  25  27
BRANCH  18  20
ATOM      1  O   UNL     1      -2.114 -15.544   1.408  0.00  0.00    -0.274 OA
ATOM      5  N   UNL     1      -0.395 -13.979   1.294  0.00  0.00    -0.302 N 
ATOM     20  C   UNL     1      -1.695 -14.425   1.127  0.00  0.00    +0.236 C 
ATOM     35  H   UNL     1      -0.162 -13.020   1.057  0.00  0.00    +0.150 HD
BRANCH   5  17
ATOM     17  C   UNL     1       0.660 -14.805   1.835  0.00  0.00    +0.159 C 
BRANCH  17  23
ATOM      2  O   UNL     1       0.195 -14.375   4.181  0.00  0.00    -0.274 OA
ATOM      8  N   UNL     1       0.125 -16.544   3.431  0.00  0.00    -0.328 N 
ATOM     23  C   UNL     1       0.297 -15.187   3.264  0.00  0.00    +0.231 C 
ATOM     36  H   UNL     1      -0.109 -16.929   4.341  0.00  0.00    +0.145 HD
ATOM     37  H   UNL     1       0.214 -17.210   2.671  0.00  0.00    +0.145 HD
ENDBRANCH  17  23
BRANCH  17  13
ATOM     13  C   UNL     1       2.032 -14.134   1.731  0.00  0.00    +0.035 C 
BRANCH  13  10
ATOM     10  C   UNL     1       2.967 -14.775   0.705  0.00  0.00    -0.009 C 
ATOM     11  C   UNL     1       3.702 -13.699  -0.104  0.00  0.00    +0.003 C 
ATOM     12  C   UNL     1       2.188 -15.719  -0.221  0.00  0.00    +0.003 C 
ATOM     14  C   UNL     1       4.603 -14.314  -1.173  0.00  0.00    +0.000 C 
ATOM     15  C   UNL     1       3.091 -16.331  -1.290  0.00  0.00    +0.000 C 
ATOM     16  C   UNL     1       3.828 -15.259  -2.087  0.00  0.00    +0.000 C 
ENDBRANCH  13  10
ENDBRANCH  17  13
ENDBRANCH   5  17
ENDBRANCH  18  20
TORSDOF 7
ENDMDL
