REMARK  Name = 7664036
REMARK  9 active torsions:
REMARK  status: ('A' for Active; 'I' for Inactive)
REMARK    1  A    between atoms: S_1  and  N_9
REMARK    2  A    between atoms: S_1  and  C_23
REMARK    3  A    between atoms: O_6  and  C_28
REMARK    4  A    between atoms: O_6  and  C_32
REMARK    5  A    between atoms: N_11  and  C_24
REMARK    6  A    between atoms: C_12  and  C_22
REMARK    7  A    between atoms: C_13  and  C_17
REMARK    8  A    between atoms: C_24  and  C_27
REMARK    9  A    between atoms: C_24  and  C_28
REMARK                            x       y       z     vdW  Elec       q    Type
REMARK                         _______ _______ _______ _____ _____    ______ ____
ROOT
ATOM      2  O   UNL     1      -1.790   1.786   1.031  0.00  0.00    -0.275 OA
ATOM      8  N   UNL     1      -0.245   0.750  -0.368  0.00  0.00    -0.287 N 
ATOM      9  N   UNL     1       1.835  -1.174  -0.749  0.00  0.00    -0.173 NA
ATOM     12  C   UNL     1      -0.248  -0.491   0.414  0.00  0.00    +0.177 C 
ATOM     14  C   UNL     1       1.137  -1.112   0.569  0.00  0.00    +0.141 C 
ATOM     15  C   UNL     1       0.561   0.744  -1.599  0.00  0.00    +0.125 C 
ATOM     16  C   UNL     1       1.954   0.179  -1.361  0.00  0.00    +0.128 C 
ATOM     17  C   UNL     1      -1.115   1.784  -0.002  0.00  0.00    +0.219 C 
ENDROOT
BRANCH  17  13
ATOM     10  N   UNL     1      -1.819   5.411   0.534  0.00  0.00    -0.316 NA
ATOM     13  C   UNL     1      -1.209   2.951  -0.943  0.00  0.00    +0.078 C 
ATOM     18  C   UNL     1      -2.610   3.565  -0.911  0.00  0.00    +0.028 C 
ATOM     19  C   UNL     1      -0.144   4.001  -0.618  0.00  0.00    +0.028 C 
ATOM     20  C   UNL     1      -2.852   4.391   0.353  0.00  0.00    +0.081 C 
ATOM     21  C   UNL     1      -0.490   4.809   0.634  0.00  0.00    +0.081 C 
ATOM     33  H   UNL     1      -2.014   5.942   1.382  0.00  0.00    +0.122 HD
ENDBRANCH  17  13
BRANCH  12  22
ATOM      5  O   UNL     1      -0.835  -2.239  -1.107  0.00  0.00    -0.274 OA
ATOM     11  N   UNL     1      -2.513  -1.232   0.154  0.00  0.00    -0.301 N 
ATOM     22  C   UNL     1      -1.208  -1.426  -0.265  0.00  0.00    +0.236 C 
ATOM     34  H   UNL     1      -2.713  -0.510   0.840  0.00  0.00    +0.150 HD
BRANCH  11  24
ATOM     24  C   UNL     1      -3.630  -1.989  -0.363  0.00  0.00    +0.179 C 
ATOM     27  C   UNL     1      -4.222  -1.293  -1.579  0.00  0.00    +0.040 C 
BRANCH  24  28
ATOM      7  O   UNL     1      -4.631  -1.728   1.819  0.00  0.00    -0.249 OA
ATOM     28  C   UNL     1      -4.702  -2.211   0.693  0.00  0.00    +0.327 C 
BRANCH  28   6
ATOM      6  O   UNL     1      -5.725  -2.986   0.236  0.00  0.00    -0.467 OA
ATOM     32  C   UNL     1      -6.782  -3.236   1.168  0.00  0.00    +0.280 C 
ENDBRANCH  28   6
ENDBRANCH  24  28
ENDBRANCH  11  24
ENDBRANCH  12  22
BRANCH   9   1
ATOM      1  S   UNL     1       3.257  -2.127  -0.784  0.00  0.00    +0.061 S 
ATOM      3  O   UNL     1       3.751  -2.190  -2.143  0.00  0.00    -0.153 OA
ATOM      4  O   UNL     1       3.034  -3.333  -0.015  0.00  0.00    -0.153 OA
BRANCH   1  23
ATOM     23  C   UNL     1       4.347  -1.088   0.138  0.00  0.00    +0.105 A 
ATOM     25  C   UNL     1       4.435  -1.226   1.524  0.00  0.00    +0.028 A 
ATOM     26  C   UNL     1       5.119  -0.130  -0.518  0.00  0.00    +0.028 A 
ATOM     29  C   UNL     1       5.296  -0.405   2.252  0.00  0.00    +0.002 A 
ATOM     30  C   UNL     1       5.980   0.691   0.211  0.00  0.00    +0.002 A 
ATOM     31  C   UNL     1       6.068   0.553   1.596  0.00  0.00    +0.000 A 
ENDBRANCH   1  23
ENDBRANCH   9   1
TORSDOF 7
