MODEL 1
REMARK VINA RESULT:      -7.4      0.000      0.000
REMARK  Name = 75536971
REMARK  2 active torsions:
REMARK  status: ('A' for Active; 'I' for Inactive)
REMARK    1  A    between atoms: N_5  and  C_13
REMARK    2  A    between atoms: C_14  and  C_17
REMARK                            x       y       z     vdW  Elec       q    Type
REMARK                         _______ _______ _______ _____ _____    ______ ____
ROOT
ATOM      1  O   UNL     1      16.703   5.648  18.672  0.00  0.00    -0.252 OA
ATOM      2  O   UNL     1      10.507   8.702  19.516  0.00  0.00    -0.270 OA
ATOM      3  N   UNL     1      15.030   6.942  19.655  0.00  0.00    -0.278 N 
ATOM      4  N   UNL     1      12.829   8.635  19.783  0.00  0.00    -0.294 N 
ATOM      5  N   UNL     1      17.098   7.044  20.575  0.00  0.00    -0.254 N 
ATOM      7  C   UNL     1      14.858   7.753  20.840  0.00  0.00    +0.113 C 
ATOM      8  C   UNL     1      14.053   9.008  20.516  0.00  0.00    +0.132 C 
ATOM      9  C   UNL     1      16.285   8.011  21.306  0.00  0.00    +0.139 C 
ATOM     10  C   UNL     1      13.878   6.618  18.828  0.00  0.00    +0.128 C 
ATOM     11  C   UNL     1      13.063   7.880  18.545  0.00  0.00    +0.127 C 
ATOM     12  C   UNL     1      16.336   6.438  19.532  0.00  0.00    +0.309 C 
ATOM     14  C   UNL     1      11.526   8.977  20.148  0.00  0.00    +0.248 C 
ENDROOT
BRANCH  14  17
ATOM      6  N   UNL     1      10.842   9.694  23.766  0.00  0.00    -0.263 NA
ATOM     17  C   UNL     1      11.332   9.723  21.399  0.00  0.00    +0.055 A 
ATOM     20  C   UNL     1      11.447  11.108  21.432  0.00  0.00    +0.016 A 
ATOM     21  C   UNL     1      11.031   9.068  22.583  0.00  0.00    +0.123 A 
ATOM     23  C   UNL     1      11.260  11.787  22.631  0.00  0.00    +0.020 A 
ATOM     24  C   UNL     1      10.962  11.041  23.760  0.00  0.00    +0.111 A 
ENDBRANCH  14  17
BRANCH   5  13
ATOM     13  C   UNL     1      18.480   6.841  20.859  0.00  0.00    +0.038 A 
ATOM     15  C   UNL     1      19.129   5.702  20.382  0.00  0.00    +0.023 A 
ATOM     16  C   UNL     1      19.182   7.779  21.614  0.00  0.00    +0.023 A 
ATOM     18  C   UNL     1      20.481   5.502  20.659  0.00  0.00    +0.002 A 
ATOM     19  C   UNL     1      20.535   7.580  21.892  0.00  0.00    +0.002 A 
ATOM     22  C   UNL     1      21.184   6.441  21.415  0.00  0.00    +0.000 A 
ENDBRANCH   5  13
TORSDOF 2
ENDMDL
MODEL 2
REMARK VINA RESULT:      -7.3      4.399      7.980
REMARK  Name = 75536971
REMARK  2 active torsions:
REMARK  status: ('A' for Active; 'I' for Inactive)
REMARK    1  A    between atoms: N_5  and  C_13
REMARK    2  A    between atoms: C_14  and  C_17
REMARK                            x       y       z     vdW  Elec       q    Type
REMARK                         _______ _______ _______ _____ _____    ______ ____
ROOT
ATOM      1  O   UNL     1      10.919  10.280  24.660  0.00  0.00    -0.252 OA
ATOM      2  O   UNL     1      12.305   6.371  19.074  0.00  0.00    -0.270 OA
ATOM      3  N   UNL     1      11.328   9.741  22.430  0.00  0.00    -0.278 N 
ATOM      4  N   UNL     1      12.430   8.373  20.274  0.00  0.00    -0.294 N 
ATOM      5  N   UNL     1      11.245  11.940  22.968  0.00  0.00    -0.254 N 
ATOM      7  C   UNL     1      11.425  10.428  21.160  0.00  0.00    +0.113 C 
ATOM      8  C   UNL     1      12.557   9.842  20.320  0.00  0.00    +0.132 C 
ATOM      9  C   UNL     1      11.612  11.886  21.556  0.00  0.00    +0.139 C 
ATOM     10  C   UNL     1      11.299   8.287  22.464  0.00  0.00    +0.128 C 
ATOM     11  C   UNL     1      12.415   7.718  21.588  0.00  0.00    +0.127 C 
ATOM     12  C   UNL     1      11.130  10.623  23.505  0.00  0.00    +0.309 C 
ATOM     14  C   UNL     1      12.371   7.598  19.114  0.00  0.00    +0.248 C 
ENDROOT
BRANCH  14  17
ATOM      6  N   UNL     1      11.141   9.095  15.902  0.00  0.00    -0.263 NA
ATOM     17  C   UNL     1      12.375   8.292  17.819  0.00  0.00    +0.055 A 
ATOM     20  C   UNL     1      13.554   8.794  17.281  0.00  0.00    +0.016 A 
ATOM     21  C   UNL     1      11.206   8.466  17.097  0.00  0.00    +0.123 A 
ATOM     23  C   UNL     1      13.528   9.448  16.053  0.00  0.00    +0.020 A 
ATOM     24  C   UNL     1      12.307   9.571  15.409  0.00  0.00    +0.111 A 
ENDBRANCH  14  17
BRANCH   5  13
ATOM     13  C   UNL     1      11.117  13.170  23.676  0.00  0.00    +0.038 A 
ATOM     15  C   UNL     1      12.131  13.588  24.537  0.00  0.00    +0.023 A 
ATOM     16  C   UNL     1       9.977  13.956  23.508  0.00  0.00    +0.023 A 
ATOM     18  C   UNL     1      12.007  14.792  25.230  0.00  0.00    +0.002 A 
ATOM     19  C   UNL     1       9.852  15.160  24.201  0.00  0.00    +0.002 A 
ATOM     22  C   UNL     1      10.866  15.578  25.062  0.00  0.00    +0.000 A 
ENDBRANCH   5  13
TORSDOF 2
ENDMDL
MODEL 3
REMARK VINA RESULT:      -6.8     27.055     29.016
REMARK  Name = 75536971
REMARK  2 active torsions:
REMARK  status: ('A' for Active; 'I' for Inactive)
REMARK    1  A    between atoms: N_5  and  C_13
REMARK    2  A    between atoms: C_14  and  C_17
REMARK                            x       y       z     vdW  Elec       q    Type
REMARK                         _______ _______ _______ _____ _____    ______ ____
ROOT
ATOM      1  O   UNL     1      -4.406 -11.561  18.547  0.00  0.00    -0.252 OA
ATOM      2  O   UNL     1     -11.063  -9.891  19.695  0.00  0.00    -0.270 OA
ATOM      3  N   UNL     1      -6.500 -10.599  18.194  0.00  0.00    -0.278 N 
ATOM      4  N   UNL     1      -9.269 -10.363  18.272  0.00  0.00    -0.294 N 
ATOM      5  N   UNL     1      -4.998 -10.469  16.503  0.00  0.00    -0.254 N 
ATOM      7  C   UNL     1      -7.145  -9.767  17.201  0.00  0.00    +0.113 C 
ATOM      8  C   UNL     1      -8.583 -10.224  16.973  0.00  0.00    +0.132 C 
ATOM      9  C   UNL     1      -6.235  -9.891  15.987  0.00  0.00    +0.139 C 
ATOM     10  C   UNL     1      -7.166 -10.860  19.460  0.00  0.00    +0.128 C 
ATOM     11  C   UNL     1      -8.615 -11.280  19.215  0.00  0.00    +0.127 C 
ATOM     12  C   UNL     1      -5.188 -10.949  17.832  0.00  0.00    +0.309 C 
ATOM     14  C   UNL     1     -10.468  -9.745  18.628  0.00  0.00    +0.248 C 
ENDROOT
BRANCH  14  17
ATOM      6  N   UNL     1     -12.889  -8.351  16.124  0.00  0.00    -0.263 NA
ATOM     17  C   UNL     1     -11.085  -8.825  17.662  0.00  0.00    +0.055 A 
ATOM     20  C   UNL     1     -10.498  -7.602  17.364  0.00  0.00    +0.016 A 
ATOM     21  C   UNL     1     -12.270  -9.151  17.021  0.00  0.00    +0.123 A 
ATOM     23  C   UNL     1     -11.105  -6.751  16.446  0.00  0.00    +0.020 A 
ATOM     24  C   UNL     1     -12.289  -7.169  15.859  0.00  0.00    +0.111 A 
ENDBRANCH  14  17
BRANCH   5  13
ATOM     13  C   UNL     1      -3.820 -10.584  15.708  0.00  0.00    +0.038 A 
ATOM     15  C   UNL     1      -2.566 -10.589  16.317  0.00  0.00    +0.023 A 
ATOM     16  C   UNL     1      -3.922 -10.690  14.321  0.00  0.00    +0.023 A 
ATOM     18  C   UNL     1      -1.413 -10.701  15.540  0.00  0.00    +0.002 A 
ATOM     19  C   UNL     1      -2.770 -10.802  13.543  0.00  0.00    +0.002 A 
ATOM     22  C   UNL     1      -1.515 -10.807  14.153  0.00  0.00    +0.000 A 
ENDBRANCH   5  13
TORSDOF 2
ENDMDL
MODEL 4
REMARK VINA RESULT:      -6.6     27.295     30.187
REMARK  Name = 75536971
REMARK  2 active torsions:
REMARK  status: ('A' for Active; 'I' for Inactive)
REMARK    1  A    between atoms: N_5  and  C_13
REMARK    2  A    between atoms: C_14  and  C_17
REMARK                            x       y       z     vdW  Elec       q    Type
REMARK                         _______ _______ _______ _____ _____    ______ ____
ROOT
ATOM      1  O   UNL     1     -10.571  -9.813  19.133  0.00  0.00    -0.252 OA
ATOM      2  O   UNL     1      -4.083 -12.319  18.945  0.00  0.00    -0.270 OA
ATOM      3  N   UNL     1      -8.475 -10.362  18.273  0.00  0.00    -0.278 N 
ATOM      4  N   UNL     1      -5.729 -10.802  18.272  0.00  0.00    -0.294 N 
ATOM      5  N   UNL     1      -9.820  -9.070  16.987  0.00  0.00    -0.254 N 
ATOM      7  C   UNL     1      -7.761 -10.231  17.022  0.00  0.00    +0.113 C 
ATOM      8  C   UNL     1      -6.299  -9.875  17.276  0.00  0.00    +0.132 C 
ATOM      9  C   UNL     1      -8.554  -9.173  16.267  0.00  0.00    +0.139 C 
ATOM     10  C   UNL     1      -7.920 -11.182  19.339  0.00  0.00    +0.128 C 
ATOM     11  C   UNL     1      -6.447 -10.839  19.554  0.00  0.00    +0.127 C 
ATOM     12  C   UNL     1      -9.741  -9.753  18.237  0.00  0.00    +0.309 C 
ATOM     14  C   UNL     1      -4.581 -11.577  18.100  0.00  0.00    +0.248 C 
ENDROOT
BRANCH  14  17
ATOM      6  N   UNL     1      -3.731 -12.311  14.521  0.00  0.00    -0.263 NA
ATOM     17  C   UNL     1      -3.899 -11.522  16.800  0.00  0.00    +0.055 A 
ATOM     20  C   UNL     1      -2.819 -10.672  16.594  0.00  0.00    +0.016 A 
ATOM     21  C   UNL     1      -4.313 -12.314  15.741  0.00  0.00    +0.123 A 
ATOM     23  C   UNL     1      -2.194 -10.640  15.352  0.00  0.00    +0.020 A 
ATOM     24  C   UNL     1      -2.683 -11.471  14.358  0.00  0.00    +0.111 A 
ENDBRANCH  14  17
BRANCH   5  13
ATOM     13  C   UNL     1     -10.918  -8.308  16.492  0.00  0.00    +0.038 A 
ATOM     15  C   UNL     1     -10.836  -6.916  16.447  0.00  0.00    +0.023 A 
ATOM     16  C   UNL     1     -12.074  -8.952  16.054  0.00  0.00    +0.023 A 
ATOM     18  C   UNL     1     -11.910  -6.169  15.964  0.00  0.00    +0.002 A 
ATOM     19  C   UNL     1     -13.149  -8.206  15.571  0.00  0.00    +0.002 A 
ATOM     22  C   UNL     1     -13.066  -6.814  15.525  0.00  0.00    +0.000 A 
ENDBRANCH   5  13
TORSDOF 2
ENDMDL
MODEL 5
REMARK VINA RESULT:      -6.5     28.414     31.435
REMARK  Name = 75536971
REMARK  2 active torsions:
REMARK  status: ('A' for Active; 'I' for Inactive)
REMARK    1  A    between atoms: N_5  and  C_13
REMARK    2  A    between atoms: C_14  and  C_17
REMARK                            x       y       z     vdW  Elec       q    Type
REMARK                         _______ _______ _______ _____ _____    ______ ____
ROOT
ATOM      1  O   UNL     1     -10.014  -6.750   5.574  0.00  0.00    -0.252 OA
ATOM      2  O   UNL     1      -4.683 -11.151   6.362  0.00  0.00    -0.270 OA
ATOM      3  N   UNL     1      -8.239  -7.854   6.605  0.00  0.00    -0.278 N 
ATOM      4  N   UNL     1      -6.504  -9.946   7.195  0.00  0.00    -0.294 N 
ATOM      5  N   UNL     1      -9.527  -6.518   7.905  0.00  0.00    -0.254 N 
ATOM      7  C   UNL     1      -7.574  -7.851   7.890  0.00  0.00    +0.113 C 
ATOM      8  C   UNL     1      -7.206  -9.272   8.305  0.00  0.00    +0.132 C 
ATOM      9  C   UNL     1      -8.572  -7.155   8.806  0.00  0.00    +0.139 C 
ATOM     10  C   UNL     1      -7.653  -8.583   5.491  0.00  0.00    +0.128 C 
ATOM     11  C   UNL     1      -7.256  -9.990   5.934  0.00  0.00    +0.127 C 
ATOM     12  C   UNL     1      -9.351  -6.995   6.572  0.00  0.00    +0.309 C 
ATOM     14  C   UNL     1      -5.251 -10.554   7.275  0.00  0.00    +0.248 C 
ENDROOT
BRANCH  14  17
ATOM      6  N   UNL     1      -3.666 -11.604  10.509  0.00  0.00    -0.263 NA
ATOM     17  C   UNL     1      -4.526 -10.477   8.551  0.00  0.00    +0.055 A 
ATOM     20  C   UNL     1      -4.020  -9.268   9.014  0.00  0.00    +0.016 A 
ATOM     21  C   UNL     1      -4.324 -11.606   9.328  0.00  0.00    +0.123 A 
ATOM     23  C   UNL     1      -3.337  -9.226  10.224  0.00  0.00    +0.020 A 
ATOM     24  C   UNL     1      -3.188 -10.410  10.928  0.00  0.00    +0.111 A 
ENDBRANCH  14  17
BRANCH   5  13
ATOM     13  C   UNL     1     -10.527  -5.615   8.369  0.00  0.00    +0.038 A 
ATOM     15  C   UNL     1     -10.161  -4.359   8.853  0.00  0.00    +0.023 A 
ATOM     16  C   UNL     1     -11.870  -5.986   8.339  0.00  0.00    +0.023 A 
ATOM     18  C   UNL     1     -11.139  -3.474   9.308  0.00  0.00    +0.002 A 
ATOM     19  C   UNL     1     -12.849  -5.102   8.793  0.00  0.00    +0.002 A 
ATOM     22  C   UNL     1     -12.483  -3.846   9.278  0.00  0.00    +0.000 A 
ENDBRANCH   5  13
TORSDOF 2
ENDMDL
MODEL 6
REMARK VINA RESULT:      -6.4      1.354      1.659
REMARK  Name = 75536971
REMARK  2 active torsions:
REMARK  status: ('A' for Active; 'I' for Inactive)
REMARK    1  A    between atoms: N_5  and  C_13
REMARK    2  A    between atoms: C_14  and  C_17
REMARK                            x       y       z     vdW  Elec       q    Type
REMARK                         _______ _______ _______ _____ _____    ______ ____
ROOT
ATOM      1  O   UNL     1      17.148   6.261  19.888  0.00  0.00    -0.252 OA
ATOM      2  O   UNL     1      10.667   8.773  20.220  0.00  0.00    -0.270 OA
ATOM      3  N   UNL     1      15.364   7.597  20.574  0.00  0.00    -0.278 N 
ATOM      4  N   UNL     1      12.987   9.023  20.360  0.00  0.00    -0.294 N 
ATOM      5  N   UNL     1      17.431   8.165  21.310  0.00  0.00    -0.254 N 
ATOM      7  C   UNL     1      15.132   8.684  21.500  0.00  0.00    +0.113 C 
ATOM      8  C   UNL     1      14.180   9.710  20.892  0.00  0.00    +0.132 C 
ATOM      9  C   UNL     1      16.532   9.207  21.794  0.00  0.00    +0.139 C 
ATOM     10  C   UNL     1      14.236   6.940  19.935  0.00  0.00    +0.128 C 
ATOM     11  C   UNL     1      13.274   7.981  19.366  0.00  0.00    +0.127 C 
ATOM     12  C   UNL     1      16.716   7.217  20.519  0.00  0.00    +0.309 C 
ATOM     14  C   UNL     1      11.664   9.317  20.693  0.00  0.00    +0.248 C 
ENDROOT
BRANCH  14  17
ATOM      6  N   UNL     1      11.342  12.706  22.268  0.00  0.00    -0.263 NA
ATOM     17  C   UNL     1      11.419  10.358  21.701  0.00  0.00    +0.055 A 
ATOM     20  C   UNL     1      11.047  10.024  22.997  0.00  0.00    +0.016 A 
ATOM     21  C   UNL     1      11.552  11.701  21.389  0.00  0.00    +0.123 A 
ATOM     23  C   UNL     1      10.821  11.030  23.930  0.00  0.00    +0.020 A 
ATOM     24  C   UNL     1      10.980  12.344  23.520  0.00  0.00    +0.111 A 
ENDBRANCH  14  17
BRANCH   5  13
ATOM     13  C   UNL     1      18.834   8.192  21.559  0.00  0.00    +0.038 A 
ATOM     15  C   UNL     1      19.469   7.071  22.093  0.00  0.00    +0.023 A 
ATOM     16  C   UNL     1      19.572   9.339  21.268  0.00  0.00    +0.023 A 
ATOM     18  C   UNL     1      20.842   7.097  22.337  0.00  0.00    +0.002 A 
ATOM     19  C   UNL     1      20.945   9.365  21.512  0.00  0.00    +0.002 A 
ATOM     22  C   UNL     1      21.580   8.244  22.047  0.00  0.00    +0.000 A 
ENDBRANCH   5  13
TORSDOF 2
ENDMDL
MODEL 7
REMARK VINA RESULT:      -6.4     27.073     28.799
REMARK  Name = 75536971
REMARK  2 active torsions:
REMARK  status: ('A' for Active; 'I' for Inactive)
REMARK    1  A    between atoms: N_5  and  C_13
REMARK    2  A    between atoms: C_14  and  C_17
REMARK                            x       y       z     vdW  Elec       q    Type
REMARK                         _______ _______ _______ _____ _____    ______ ____
ROOT
ATOM      1  O   UNL     1      -2.344 -10.782  13.067  0.00  0.00    -0.252 OA
ATOM      2  O   UNL     1      -5.592 -10.797  19.221  0.00  0.00    -0.270 OA
ATOM      3  N   UNL     1      -4.071 -10.552  14.617  0.00  0.00    -0.278 N 
ATOM      4  N   UNL     1      -5.566 -11.081  16.901  0.00  0.00    -0.294 N 
ATOM      5  N   UNL     1      -4.620 -10.421  12.422  0.00  0.00    -0.254 N 
ATOM      7  C   UNL     1      -5.473 -10.195  14.616  0.00  0.00    +0.113 C 
ATOM      8  C   UNL     1      -6.249 -11.073  15.593  0.00  0.00    +0.132 C 
ATOM      9  C   UNL     1      -5.879 -10.349  13.157  0.00  0.00    +0.139 C 
ATOM     10  C   UNL     1      -3.358 -10.676  15.878  0.00  0.00    +0.128 C 
ATOM     11  C   UNL     1      -4.166 -11.527  16.857  0.00  0.00    +0.127 C 
ATOM     12  C   UNL     1      -3.527 -10.602  13.322  0.00  0.00    +0.309 C 
ATOM     14  C   UNL     1      -6.149 -10.752  18.125  0.00  0.00    +0.248 C 
ENDROOT
BRANCH  14  17
ATOM      6  N   UNL     1      -9.830 -10.647  18.838  0.00  0.00    -0.263 NA
ATOM     17  C   UNL     1      -7.547 -10.299  18.125  0.00  0.00    +0.055 A 
ATOM     20  C   UNL     1      -7.925  -9.145  17.449  0.00  0.00    +0.016 A 
ATOM     21  C   UNL     1      -8.528 -11.009  18.798  0.00  0.00    +0.123 A 
ATOM     23  C   UNL     1      -9.255  -8.740  17.467  0.00  0.00    +0.020 A 
ATOM     24  C   UNL     1     -10.161  -9.519  18.170  0.00  0.00    +0.111 A 
ENDBRANCH  14  17
BRANCH   5  13
ATOM     13  C   UNL     1      -4.564 -10.392  10.998  0.00  0.00    +0.038 A 
ATOM     15  C   UNL     1      -4.628 -11.583  10.274  0.00  0.00    +0.023 A 
ATOM     16  C   UNL     1      -4.447  -9.175  10.329  0.00  0.00    +0.023 A 
ATOM     18  C   UNL     1      -4.573 -11.556   8.881  0.00  0.00    +0.002 A 
ATOM     19  C   UNL     1      -4.393  -9.147   8.936  0.00  0.00    +0.002 A 
ATOM     22  C   UNL     1      -4.456 -10.338   8.212  0.00  0.00    +0.000 A 
ENDBRANCH   5  13
TORSDOF 2
ENDMDL
MODEL 8
REMARK VINA RESULT:      -6.2      3.406      6.131
REMARK  Name = 75536971
REMARK  2 active torsions:
REMARK  status: ('A' for Active; 'I' for Inactive)
REMARK    1  A    between atoms: N_5  and  C_13
REMARK    2  A    between atoms: C_14  and  C_17
REMARK                            x       y       z     vdW  Elec       q    Type
REMARK                         _______ _______ _______ _____ _____    ______ ____
ROOT
ATOM      1  O   UNL     1      23.547   7.167  21.514  0.00  0.00    -0.252 OA
ATOM      2  O   UNL     1      17.259  10.139  21.746  0.00  0.00    -0.270 OA
ATOM      3  N   UNL     1      21.238   7.396  21.280  0.00  0.00    -0.278 N 
ATOM      4  N   UNL     1      18.668   8.278  21.869  0.00  0.00    -0.294 N 
ATOM      5  N   UNL     1      22.115   5.332  20.962  0.00  0.00    -0.254 N 
ATOM      7  C   UNL     1      20.120   6.594  20.834  0.00  0.00    +0.113 C 
ATOM      8  C   UNL     1      18.904   6.828  21.726  0.00  0.00    +0.132 C 
ATOM      9  C   UNL     1      20.667   5.174  20.861  0.00  0.00    +0.139 C 
ATOM     10  C   UNL     1      21.051   8.815  21.538  0.00  0.00    +0.128 C 
ATOM     11  C   UNL     1      19.809   9.035  22.400  0.00  0.00    +0.127 C 
ATOM     12  C   UNL     1      22.449   6.683  21.275  0.00  0.00    +0.309 C 
ATOM     14  C   UNL     1      17.470   8.938  21.589  0.00  0.00    +0.248 C 
ENDROOT
BRANCH  14  17
ATOM      6  N   UNL     1      14.138   7.233  21.343  0.00  0.00    -0.263 NA
ATOM     17  C   UNL     1      16.356   8.147  21.048  0.00  0.00    +0.055 A 
ATOM     20  C   UNL     1      16.431   7.578  19.782  0.00  0.00    +0.016 A 
ATOM     21  C   UNL     1      15.198   7.948  21.782  0.00  0.00    +0.123 A 
ATOM     23  C   UNL     1      15.360   6.836  19.296  0.00  0.00    +0.020 A 
ATOM     24  C   UNL     1      14.247   6.694  20.108  0.00  0.00    +0.111 A 
ENDBRANCH  14  17
BRANCH   5  13
ATOM     13  C   UNL     1      23.012   4.231  20.839  0.00  0.00    +0.038 A 
ATOM     15  C   UNL     1      24.103   4.316  19.973  0.00  0.00    +0.023 A 
ATOM     16  C   UNL     1      22.800   3.071  21.582  0.00  0.00    +0.023 A 
ATOM     18  C   UNL     1      24.982   3.240  19.851  0.00  0.00    +0.002 A 
ATOM     19  C   UNL     1      23.679   1.994  21.460  0.00  0.00    +0.002 A 
ATOM     22  C   UNL     1      24.769   2.078  20.595  0.00  0.00    +0.000 A 
ENDBRANCH   5  13
TORSDOF 2
ENDMDL
MODEL 9
REMARK VINA RESULT:      -6.2     26.750     29.500
REMARK  Name = 75536971
REMARK  2 active torsions:
REMARK  status: ('A' for Active; 'I' for Inactive)
REMARK    1  A    between atoms: N_5  and  C_13
REMARK    2  A    between atoms: C_14  and  C_17
REMARK                            x       y       z     vdW  Elec       q    Type
REMARK                         _______ _______ _______ _____ _____    ______ ____
ROOT
ATOM      1  O   UNL     1      -6.463 -10.689  19.241  0.00  0.00    -0.252 OA
ATOM      2  O   UNL     1      -1.365 -11.793  14.636  0.00  0.00    -0.270 OA
ATOM      3  N   UNL     1      -5.422 -10.979  17.175  0.00  0.00    -0.278 N 
ATOM      4  N   UNL     1      -3.402 -10.839  15.269  0.00  0.00    -0.294 N 
ATOM      5  N   UNL     1      -7.589 -10.318  17.163  0.00  0.00    -0.254 N 
ATOM      7  C   UNL     1      -5.797 -10.995  15.777  0.00  0.00    +0.113 C 
ATOM      8  C   UNL     1      -4.734 -10.300  14.932  0.00  0.00    +0.132 C 
ATOM      9  C   UNL     1      -7.162 -10.322  15.767  0.00  0.00    +0.139 C 
ATOM     10  C   UNL     1      -4.088 -11.404  17.569  0.00  0.00    +0.128 C 
ATOM     11  C   UNL     1      -3.039 -10.728  16.688  0.00  0.00    +0.127 C 
ATOM     12  C   UNL     1      -6.502 -10.667  18.018  0.00  0.00    +0.309 C 
ATOM     14  C   UNL     1      -2.491 -11.380  14.362  0.00  0.00    +0.248 C 
ENDROOT
BRANCH  14  17
ATOM      6  N   UNL     1      -3.874 -12.803  11.179  0.00  0.00    -0.263 NA
ATOM     17  C   UNL     1      -2.897 -11.485  12.953  0.00  0.00    +0.055 A 
ATOM     20  C   UNL     1      -2.710 -10.425  12.074  0.00  0.00    +0.016 A 
ATOM     21  C   UNL     1      -3.478 -12.642  12.461  0.00  0.00    +0.123 A 
ATOM     23  C   UNL     1      -3.105 -10.553  10.747  0.00  0.00    +0.020 A 
ATOM     24  C   UNL     1      -3.677 -11.751  10.353  0.00  0.00    +0.111 A 
ENDBRANCH  14  17
BRANCH   5  13
ATOM     13  C   UNL     1      -8.902  -9.930  17.558  0.00  0.00    +0.038 A 
ATOM     15  C   UNL     1      -9.639 -10.741  18.421  0.00  0.00    +0.023 A 
ATOM     16  C   UNL     1      -9.450  -8.739  17.081  0.00  0.00    +0.023 A 
ATOM     18  C   UNL     1     -10.924 -10.362  18.807  0.00  0.00    +0.002 A 
ATOM     19  C   UNL     1     -10.736  -8.359  17.468  0.00  0.00    +0.002 A 
ATOM     22  C   UNL     1     -11.473  -9.171  18.331  0.00  0.00    +0.000 A 
ENDBRANCH   5  13
TORSDOF 2
ENDMDL
MODEL 10
REMARK VINA RESULT:      -6.2     31.177     32.867
REMARK  Name = 75536971
REMARK  2 active torsions:
REMARK  status: ('A' for Active; 'I' for Inactive)
REMARK    1  A    between atoms: N_5  and  C_13
REMARK    2  A    between atoms: C_14  and  C_17
REMARK                            x       y       z     vdW  Elec       q    Type
REMARK                         _______ _______ _______ _____ _____    ______ ____
ROOT
ATOM      1  O   UNL     1     -14.109   4.526  34.650  0.00  0.00    -0.252 OA
ATOM      2  O   UNL     1     -16.082  -0.405  30.156  0.00  0.00    -0.270 OA
ATOM      3  N   UNL     1     -14.994   3.575  32.715  0.00  0.00    -0.278 N 
ATOM      4  N   UNL     1     -15.277   1.733  30.651  0.00  0.00    -0.294 N 
ATOM      5  N   UNL     1     -14.718   5.823  32.734  0.00  0.00    -0.254 N 
ATOM      7  C   UNL     1     -15.588   4.022  31.474  0.00  0.00    +0.113 C 
ATOM      8  C   UNL     1     -15.110   3.159  30.310  0.00  0.00    +0.132 C 
ATOM      9  C   UNL     1     -15.181   5.487  31.392  0.00  0.00    +0.139 C 
ATOM     10  C   UNL     1     -15.034   2.164  33.067  0.00  0.00    +0.128 C 
ATOM     11  C   UNL     1     -14.589   1.313  31.879  0.00  0.00    +0.127 C 
ATOM     12  C   UNL     1     -14.553   4.642  33.516  0.00  0.00    +0.309 C 
ATOM     14  C   UNL     1     -15.977   0.792  29.894  0.00  0.00    +0.248 C 
ENDROOT
BRANCH  14  17
ATOM      6  N   UNL     1     -18.502   2.461  27.679  0.00  0.00    -0.263 NA
ATOM     17  C   UNL     1     -16.662   1.254  28.679  0.00  0.00    +0.055 A 
ATOM     20  C   UNL     1     -16.163   0.953  27.418  0.00  0.00    +0.016 A 
ATOM     21  C   UNL     1     -17.824   2.005  28.756  0.00  0.00    +0.123 A 
ATOM     23  C   UNL     1     -16.832   1.406  26.285  0.00  0.00    +0.020 A 
ATOM     24  C   UNL     1     -17.987   2.149  26.468  0.00  0.00    +0.111 A 
ENDBRANCH  14  17
BRANCH   5  13
ATOM     13  C   UNL     1     -14.411   7.160  33.123  0.00  0.00    +0.038 A 
ATOM     15  C   UNL     1     -15.441   8.065  33.381  0.00  0.00    +0.023 A 
ATOM     16  C   UNL     1     -13.082   7.564  33.244  0.00  0.00    +0.023 A 
ATOM     18  C   UNL     1     -15.142   9.373  33.761  0.00  0.00    +0.002 A 
ATOM     19  C   UNL     1     -12.782   8.872  33.623  0.00  0.00    +0.002 A 
ATOM     22  C   UNL     1     -13.812   9.777  33.882  0.00  0.00    +0.000 A 
ENDBRANCH   5  13
TORSDOF 2
ENDMDL
