MODEL 1
REMARK VINA RESULT:      -7.0      0.000      0.000
REMARK  Name = 75536777
REMARK  7 active torsions:
REMARK  status: ('A' for Active; 'I' for Inactive)
REMARK    1  A    between atoms: O_2  and  C_9
REMARK    2  A    between atoms: N_4  and  C_8
REMARK    3  A    between atoms: N_4  and  C_13
REMARK    4  A    between atoms: N_5  and  C_12
REMARK    5  A    between atoms: N_6  and  C_19
REMARK    6  A    between atoms: C_10  and  C_12
REMARK    7  A    between atoms: C_13  and  C_14
REMARK                            x       y       z     vdW  Elec       q    Type
REMARK                         _______ _______ _______ _____ _____    ______ ____
ROOT
ATOM      1  O   UNL     1      11.787   7.324  18.909  0.00  0.00    -0.371 OA
ATOM      8  C   UNL     1      14.026   7.018  19.642  0.00  0.00    +0.111 C 
ATOM      9  C   UNL     1      13.254   7.770  20.710  0.00  0.00    +0.164 C 
ATOM     10  C   UNL     1      11.820   7.412  20.343  0.00  0.00    +0.165 C 
ATOM     11  C   UNL     1      13.139   7.227  18.425  0.00  0.00    +0.181 C 
ENDROOT
BRANCH   9   2
ATOM      2  O   UNL     1      13.584   7.351  22.019  0.00  0.00    -0.388 OA
ATOM     27  H   UNL     1      13.359   6.409  22.105  0.00  0.00    +0.210 HD
ENDBRANCH   9   2
BRANCH   8   4
ATOM      4  N   UNL     1      15.381   7.509  19.446  0.00  0.00    -0.305 NA
ATOM     26  H   UNL     1      15.609   8.163  20.195  0.00  0.00    +0.123 HD
BRANCH   4  13
ATOM     13  C   UNL     1      16.344   6.414  19.468  0.00  0.00    +0.118 C 
BRANCH  13  14
ATOM      7  N   UNL     1      18.628   8.212  21.892  0.00  0.00    -0.263 NA
ATOM     14  C   UNL     1      17.562   6.756  20.284  0.00  0.00    -0.015 A 
ATOM     16  C   UNL     1      18.716   5.984  20.209  0.00  0.00    +0.008 A 
ATOM     17  C   UNL     1      17.569   7.850  21.133  0.00  0.00    +0.115 A 
ATOM     18  C   UNL     1      19.825   6.324  20.974  0.00  0.00    +0.020 A 
ATOM     20  C   UNL     1      19.731   7.438  21.792  0.00  0.00    +0.111 A 
ENDBRANCH  13  14
ENDBRANCH   4  13
ENDBRANCH   8   4
BRANCH  10  12
ATOM     12  C   UNL     1      10.806   8.436  20.818  0.00  0.00    +0.140 C 
BRANCH  12   5
ATOM      3  O   UNL     1      11.138  11.140  21.703  0.00  0.00    -0.253 OA
ATOM      5  N   UNL     1      11.092   8.873  22.155  0.00  0.00    -0.297 N 
ATOM      6  N   UNL     1      11.516  10.342  23.879  0.00  0.00    -0.269 N 
ATOM     15  C   UNL     1      11.241  10.222  22.513  0.00  0.00    +0.304 C 
ATOM     28  H   UNL     1      11.205   8.166  22.876  0.00  0.00    +0.150 HD
ATOM     29  H   UNL     1      11.569   9.477  24.410  0.00  0.00    +0.156 HD
BRANCH   6  19
ATOM     19  C   UNL     1      11.730  11.528  24.619  0.00  0.00    +0.035 A 
ATOM     21  C   UNL     1      10.649  12.341  24.959  0.00  0.00    +0.023 A 
ATOM     22  C   UNL     1      13.020  11.884  25.010  0.00  0.00    +0.023 A 
ATOM     23  C   UNL     1      10.858  13.511  25.690  0.00  0.00    +0.002 A 
ATOM     24  C   UNL     1      13.230  13.053  25.741  0.00  0.00    +0.002 A 
ATOM     25  C   UNL     1      12.150  13.866  26.081  0.00  0.00    +0.000 A 
ENDBRANCH   6  19
ENDBRANCH  12   5
ENDBRANCH  10  12
TORSDOF 7
ENDMDL
MODEL 2
REMARK VINA RESULT:      -6.9     26.972     29.934
REMARK  Name = 75536777
REMARK  7 active torsions:
REMARK  status: ('A' for Active; 'I' for Inactive)
REMARK    1  A    between atoms: O_2  and  C_9
REMARK    2  A    between atoms: N_4  and  C_8
REMARK    3  A    between atoms: N_4  and  C_13
REMARK    4  A    between atoms: N_5  and  C_12
REMARK    5  A    between atoms: N_6  and  C_19
REMARK    6  A    between atoms: C_10  and  C_12
REMARK    7  A    between atoms: C_13  and  C_14
REMARK                            x       y       z     vdW  Elec       q    Type
REMARK                         _______ _______ _______ _____ _____    ______ ____
ROOT
ATOM      1  O   UNL     1     -17.574   5.466  23.827  0.00  0.00    -0.371 OA
ATOM      8  C   UNL     1     -15.881   4.230  22.709  0.00  0.00    +0.111 C 
ATOM      9  C   UNL     1     -15.768   3.985  24.202  0.00  0.00    +0.164 C 
ATOM     10  C   UNL     1     -17.163   4.376  24.670  0.00  0.00    +0.165 C 
ATOM     11  C   UNL     1     -16.714   5.502  22.675  0.00  0.00    +0.181 C 
ENDROOT
BRANCH   9   2
ATOM      2  O   UNL     1     -15.466   2.639  24.513  0.00  0.00    -0.388 OA
ATOM     27  H   UNL     1     -15.352   2.565  25.476  0.00  0.00    +0.210 HD
ENDBRANCH   9   2
BRANCH   8   4
ATOM      4  N   UNL     1     -14.597   4.376  22.042  0.00  0.00    -0.305 NA
ATOM     26  H   UNL     1     -14.751   4.442  21.036  0.00  0.00    +0.123 HD
BRANCH   4  13
ATOM     13  C   UNL     1     -13.906   5.579  22.493  0.00  0.00    +0.118 C 
BRANCH  13  14
ATOM      7  N   UNL     1     -13.839   7.830  19.450  0.00  0.00    -0.263 NA
ATOM     14  C   UNL     1     -13.382   6.390  21.337  0.00  0.00    -0.015 A 
ATOM     16  C   UNL     1     -12.019   6.464  21.072  0.00  0.00    +0.008 A 
ATOM     17  C   UNL     1     -14.243   7.085  20.503  0.00  0.00    +0.115 A 
ATOM     18  C   UNL     1     -11.566   7.219  19.997  0.00  0.00    +0.020 A 
ATOM     20  C   UNL     1     -12.507   7.877  19.224  0.00  0.00    +0.111 A 
ENDBRANCH  13  14
ENDBRANCH   4  13
ENDBRANCH   8   4
BRANCH  10  12
ATOM     12  C   UNL     1     -17.208   4.808  26.125  0.00  0.00    +0.140 C 
BRANCH  12   5
ATOM      3  O   UNL     1     -17.335   3.724  28.774  0.00  0.00    -0.253 OA
ATOM      5  N   UNL     1     -16.123   4.238  26.872  0.00  0.00    -0.297 N 
ATOM      6  N   UNL     1     -15.041   3.240  28.644  0.00  0.00    -0.269 N 
ATOM     15  C   UNL     1     -16.264   3.725  28.171  0.00  0.00    +0.304 C 
ATOM     28  H   UNL     1     -15.203   4.218  26.441  0.00  0.00    +0.150 HD
ATOM     29  H   UNL     1     -14.246   3.317  28.016  0.00  0.00    +0.156 HD
BRANCH   6  19
ATOM     19  C   UNL     1     -14.770   2.648  29.900  0.00  0.00    +0.035 A 
ATOM     21  C   UNL     1     -15.213   1.352  30.169  0.00  0.00    +0.023 A 
ATOM     22  C   UNL     1     -14.060   3.357  30.868  0.00  0.00    +0.023 A 
ATOM     23  C   UNL     1     -14.946   0.767  31.407  0.00  0.00    +0.002 A 
ATOM     24  C   UNL     1     -13.793   2.772  32.105  0.00  0.00    +0.002 A 
ATOM     25  C   UNL     1     -14.236   1.478  32.375  0.00  0.00    +0.000 A 
ENDBRANCH   6  19
ENDBRANCH  12   5
ENDBRANCH  10  12
TORSDOF 7
ENDMDL
MODEL 3
REMARK VINA RESULT:      -6.6      5.017      7.389
REMARK  Name = 75536777
REMARK  7 active torsions:
REMARK  status: ('A' for Active; 'I' for Inactive)
REMARK    1  A    between atoms: O_2  and  C_9
REMARK    2  A    between atoms: N_4  and  C_8
REMARK    3  A    between atoms: N_4  and  C_13
REMARK    4  A    between atoms: N_5  and  C_12
REMARK    5  A    between atoms: N_6  and  C_19
REMARK    6  A    between atoms: C_10  and  C_12
REMARK    7  A    between atoms: C_13  and  C_14
REMARK                            x       y       z     vdW  Elec       q    Type
REMARK                         _______ _______ _______ _____ _____    ______ ____
ROOT
ATOM      1  O   UNL     1      18.928   7.027  21.887  0.00  0.00    -0.371 OA
ATOM      8  C   UNL     1      20.091   5.687  20.307  0.00  0.00    +0.111 C 
ATOM      9  C   UNL     1      18.600   5.562  20.059  0.00  0.00    +0.164 C 
ATOM     10  C   UNL     1      18.081   6.819  20.744  0.00  0.00    +0.165 C 
ATOM     11  C   UNL     1      20.116   6.231  21.726  0.00  0.00    +0.181 C 
ENDROOT
BRANCH   9   2
ATOM      2  O   UNL     1      18.275   5.539  18.683  0.00  0.00    -0.388 OA
ATOM     27  H   UNL     1      17.377   5.178  18.586  0.00  0.00    +0.210 HD
ENDBRANCH   9   2
BRANCH   8   4
ATOM      4  N   UNL     1      20.814   4.433  20.169  0.00  0.00    -0.305 NA
ATOM     26  H   UNL     1      21.407   4.481  19.339  0.00  0.00    +0.123 HD
BRANCH   4  13
ATOM     13  C   UNL     1      21.654   4.180  21.334  0.00  0.00    +0.118 C 
BRANCH  13  14
ATOM      7  N   UNL     1      25.243   4.297  20.135  0.00  0.00    -0.263 NA
ATOM     14  C   UNL     1      23.035   3.728  20.941  0.00  0.00    -0.015 A 
ATOM     16  C   UNL     1      23.397   2.387  21.006  0.00  0.00    +0.008 A 
ATOM     17  C   UNL     1      23.987   4.635  20.502  0.00  0.00    +0.115 A 
ATOM     18  C   UNL     1      24.679   2.000  20.636  0.00  0.00    +0.020 A 
ATOM     20  C   UNL     1      25.557   2.984  20.211  0.00  0.00    +0.111 A 
ENDBRANCH  13  14
ENDBRANCH   4  13
ENDBRANCH   8   4
BRANCH  10  12
ATOM     12  C   UNL     1      16.635   6.705  21.191  0.00  0.00    +0.140 C 
BRANCH  12   5
ATOM      3  O   UNL     1      15.120   8.759  19.890  0.00  0.00    -0.253 OA
ATOM      5  N   UNL     1      15.754   6.542  20.070  0.00  0.00    -0.297 N 
ATOM      6  N   UNL     1      14.268   7.143  18.415  0.00  0.00    -0.269 N 
ATOM     15  C   UNL     1      15.043   7.601  19.485  0.00  0.00    +0.304 C 
ATOM     28  H   UNL     1      15.630   5.608  19.690  0.00  0.00    +0.150 HD
ATOM     29  H   UNL     1      14.317   6.149  18.210  0.00  0.00    +0.156 HD
BRANCH   6  19
ATOM     19  C   UNL     1      13.416   7.897  17.575  0.00  0.00    +0.035 A 
ATOM     21  C   UNL     1      12.045   7.941  17.831  0.00  0.00    +0.023 A 
ATOM     22  C   UNL     1      13.945   8.597  16.491  0.00  0.00    +0.023 A 
ATOM     23  C   UNL     1      11.204   8.685  17.003  0.00  0.00    +0.002 A 
ATOM     24  C   UNL     1      13.104   9.341  15.664  0.00  0.00    +0.002 A 
ATOM     25  C   UNL     1      11.734   9.385  15.920  0.00  0.00    +0.000 A 
ENDBRANCH   6  19
ENDBRANCH  12   5
ENDBRANCH  10  12
TORSDOF 7
ENDMDL
MODEL 4
REMARK VINA RESULT:      -6.4     28.481     30.829
REMARK  Name = 75536777
REMARK  7 active torsions:
REMARK  status: ('A' for Active; 'I' for Inactive)
REMARK    1  A    between atoms: O_2  and  C_9
REMARK    2  A    between atoms: N_4  and  C_8
REMARK    3  A    between atoms: N_4  and  C_13
REMARK    4  A    between atoms: N_5  and  C_12
REMARK    5  A    between atoms: N_6  and  C_19
REMARK    6  A    between atoms: C_10  and  C_12
REMARK    7  A    between atoms: C_13  and  C_14
REMARK                            x       y       z     vdW  Elec       q    Type
REMARK                         _______ _______ _______ _____ _____    ______ ____
ROOT
ATOM      1  O   UNL     1     -12.485  -8.113  15.157  0.00  0.00    -0.371 OA
ATOM      8  C   UNL     1     -11.769  -6.061  14.197  0.00  0.00    +0.111 C 
ATOM      9  C   UNL     1     -11.080  -6.247  15.536  0.00  0.00    +0.164 C 
ATOM     10  C   UNL     1     -11.216  -7.752  15.730  0.00  0.00    +0.165 C 
ATOM     11  C   UNL     1     -12.932  -7.033  14.318  0.00  0.00    +0.181 C 
ENDROOT
BRANCH   9   2
ATOM      2  O   UNL     1      -9.727  -5.839  15.516  0.00  0.00    -0.388 OA
ATOM     27  H   UNL     1      -9.254  -6.311  16.222  0.00  0.00    +0.210 HD
ENDBRANCH   9   2
BRANCH   8   4
ATOM      4  N   UNL     1     -12.197  -4.695  13.945  0.00  0.00    -0.305 NA
ATOM     26  H   UNL     1     -11.398  -4.151  13.618  0.00  0.00    +0.123 HD
BRANCH   4  13
ATOM     13  C   UNL     1     -13.244  -4.651  12.931  0.00  0.00    +0.118 C 
BRANCH  13  14
ATOM      7  N   UNL     1     -12.377  -5.722   9.405  0.00  0.00    -0.263 NA
ATOM     14  C   UNL     1     -12.672  -4.623  11.538  0.00  0.00    -0.015 A 
ATOM     16  C   UNL     1     -11.936  -3.534  11.086  0.00  0.00    +0.008 A 
ATOM     17  C   UNL     1     -12.862  -5.683  10.666  0.00  0.00    +0.115 A 
ATOM     18  C   UNL     1     -11.421  -3.537   9.795  0.00  0.00    +0.020 A 
ATOM     20  C   UNL     1     -11.667  -4.644   9.002  0.00  0.00    +0.111 A 
ENDBRANCH  13  14
ENDBRANCH   4  13
ENDBRANCH   8   4
BRANCH  10  12
ATOM     12  C   UNL     1     -11.172  -8.175  17.187  0.00  0.00    +0.140 C 
BRANCH  12   5
ATOM      3  O   UNL     1      -9.395 -10.413  16.988  0.00  0.00    -0.253 OA
ATOM      5  N   UNL     1      -9.822  -8.245  17.669  0.00  0.00    -0.297 N 
ATOM      6  N   UNL     1      -7.750  -9.157  18.097  0.00  0.00    -0.269 N 
ATOM     15  C   UNL     1      -9.010  -9.382  17.534  0.00  0.00    +0.304 C 
ATOM     28  H   UNL     1      -9.441  -7.432  18.145  0.00  0.00    +0.150 HD
ATOM     29  H   UNL     1      -7.593  -8.243  18.512  0.00  0.00    +0.156 HD
BRANCH   6  19
ATOM     19  C   UNL     1      -6.657 -10.052  18.161  0.00  0.00    +0.035 A 
ATOM     21  C   UNL     1      -6.349 -10.691  19.363  0.00  0.00    +0.023 A 
ATOM     22  C   UNL     1      -5.887 -10.297  17.025  0.00  0.00    +0.023 A 
ATOM     23  C   UNL     1      -5.271 -11.574  19.427  0.00  0.00    +0.002 A 
ATOM     24  C   UNL     1      -4.809 -11.180  17.089  0.00  0.00    +0.002 A 
ATOM     25  C   UNL     1      -4.501 -11.818  18.290  0.00  0.00    +0.000 A 
ENDBRANCH   6  19
ENDBRANCH  12   5
ENDBRANCH  10  12
TORSDOF 7
ENDMDL
MODEL 5
REMARK VINA RESULT:      -6.3     33.918     36.328
REMARK  Name = 75536777
REMARK  7 active torsions:
REMARK  status: ('A' for Active; 'I' for Inactive)
REMARK    1  A    between atoms: O_2  and  C_9
REMARK    2  A    between atoms: N_4  and  C_8
REMARK    3  A    between atoms: N_4  and  C_13
REMARK    4  A    between atoms: N_5  and  C_12
REMARK    5  A    between atoms: N_6  and  C_19
REMARK    6  A    between atoms: C_10  and  C_12
REMARK    7  A    between atoms: C_13  and  C_14
REMARK                            x       y       z     vdW  Elec       q    Type
REMARK                         _______ _______ _______ _____ _____    ______ ____
ROOT
ATOM      1  O   UNL     1      -2.203 -15.688  -1.322  0.00  0.00    -0.371 OA
ATOM      8  C   UNL     1      -1.055 -14.229   0.161  0.00  0.00    +0.111 C 
ATOM      9  C   UNL     1      -1.858 -13.401  -0.824  0.00  0.00    +0.164 C 
ATOM     10  C   UNL     1      -2.884 -14.422  -1.298  0.00  0.00    +0.165 C 
ATOM     11  C   UNL     1      -0.992 -15.570  -0.553  0.00  0.00    +0.181 C 
ENDROOT
BRANCH   9   2
ATOM      2  O   UNL     1      -2.472 -12.279  -0.222  0.00  0.00    -0.388 OA
ATOM     27  H   UNL     1      -1.775 -11.663   0.060  0.00  0.00    +0.210 HD
ENDBRANCH   9   2
BRANCH   8   4
ATOM      4  N   UNL     1       0.260 -13.680   0.450  0.00  0.00    -0.305 NA
ATOM     26  H   UNL     1       0.149 -12.805   0.963  0.00  0.00    +0.123 HD
BRANCH   4  13
ATOM     13  C   UNL     1       1.049 -14.603   1.257  0.00  0.00    +0.118 C 
BRANCH  13  14
ATOM      7  N   UNL     1       4.703 -15.578   1.077  0.00  0.00    -0.263 NA
ATOM     14  C   UNL     1       2.488 -14.644   0.815  0.00  0.00    -0.015 A 
ATOM     16  C   UNL     1       2.945 -13.831  -0.216  0.00  0.00    +0.008 A 
ATOM     17  C   UNL     1       3.399 -15.492   1.424  0.00  0.00    +0.115 A 
ATOM     18  C   UNL     1       4.279 -13.890  -0.601  0.00  0.00    +0.020 A 
ATOM     20  C   UNL     1       5.110 -14.772   0.071  0.00  0.00    +0.111 A 
ENDBRANCH  13  14
ENDBRANCH   4  13
ENDBRANCH   8   4
BRANCH  10  12
ATOM     12  C   UNL     1      -3.443 -14.115  -2.676  0.00  0.00    +0.140 C 
BRANCH  12   5
ATOM      3  O   UNL     1      -1.228 -14.601  -4.426  0.00  0.00    -0.253 OA
ATOM      5  N   UNL     1      -2.652 -13.128  -3.352  0.00  0.00    -0.297 N 
ATOM      6  N   UNL     1      -0.995 -12.282  -4.712  0.00  0.00    -0.269 N 
ATOM     15  C   UNL     1      -1.577 -13.445  -4.198  0.00  0.00    +0.304 C 
ATOM     28  H   UNL     1      -2.874 -12.148  -3.199  0.00  0.00    +0.150 HD
ATOM     29  H   UNL     1      -1.406 -11.400  -4.421  0.00  0.00    +0.156 HD
BRANCH   6  19
ATOM     19  C   UNL     1       0.104 -12.181  -5.596  0.00  0.00    +0.035 A 
ATOM     21  C   UNL     1       1.285 -11.569  -5.173  0.00  0.00    +0.023 A 
ATOM     22  C   UNL     1       0.009 -12.691  -6.891  0.00  0.00    +0.023 A 
ATOM     23  C   UNL     1       2.370 -11.469  -6.044  0.00  0.00    +0.002 A 
ATOM     24  C   UNL     1       1.094 -12.591  -7.761  0.00  0.00    +0.002 A 
ATOM     25  C   UNL     1       2.274 -11.980  -7.338  0.00  0.00    +0.000 A 
ENDBRANCH   6  19
ENDBRANCH  12   5
ENDBRANCH  10  12
TORSDOF 7
ENDMDL
MODEL 6
REMARK VINA RESULT:      -6.3     27.088     30.291
REMARK  Name = 75536777
REMARK  7 active torsions:
REMARK  status: ('A' for Active; 'I' for Inactive)
REMARK    1  A    between atoms: O_2  and  C_9
REMARK    2  A    between atoms: N_4  and  C_8
REMARK    3  A    between atoms: N_4  and  C_13
REMARK    4  A    between atoms: N_5  and  C_12
REMARK    5  A    between atoms: N_6  and  C_19
REMARK    6  A    between atoms: C_10  and  C_12
REMARK    7  A    between atoms: C_13  and  C_14
REMARK                            x       y       z     vdW  Elec       q    Type
REMARK                         _______ _______ _______ _____ _____    ______ ____
ROOT
ATOM      1  O   UNL     1     -17.144   2.081  24.637  0.00  0.00    -0.371 OA
ATOM      8  C   UNL     1     -16.475   3.257  26.589  0.00  0.00    +0.111 C 
ATOM      9  C   UNL     1     -16.374   4.185  25.393  0.00  0.00    +0.164 C 
ATOM     10  C   UNL     1     -17.299   3.491  24.403  0.00  0.00    +0.165 C 
ATOM     11  C   UNL     1     -16.506   1.896  25.912  0.00  0.00    +0.181 C 
ENDROOT
BRANCH   9   2
ATOM      2  O   UNL     1     -16.804   5.500  25.684  0.00  0.00    -0.388 OA
ATOM     27  H   UNL     1     -17.536   5.449  26.323  0.00  0.00    +0.210 HD
ENDBRANCH   9   2
BRANCH   8   4
ATOM      4  N   UNL     1     -15.376   3.396  27.532  0.00  0.00    -0.305 NA
ATOM     26  H   UNL     1     -14.920   4.296  27.380  0.00  0.00    +0.123 HD
BRANCH   4  13
ATOM     13  C   UNL     1     -15.855   3.336  28.908  0.00  0.00    +0.118 C 
BRANCH  13  14
ATOM      7  N   UNL     1     -15.924  -0.252  30.113  0.00  0.00    -0.263 NA
ATOM     14  C   UNL     1     -15.442   2.059  29.589  0.00  0.00    -0.015 A 
ATOM     16  C   UNL     1     -14.253   1.980  30.305  0.00  0.00    +0.008 A 
ATOM     17  C   UNL     1     -16.235   0.925  29.525  0.00  0.00    +0.115 A 
ATOM     18  C   UNL     1     -13.898   0.787  30.924  0.00  0.00    +0.020 A 
ATOM     20  C   UNL     1     -14.760  -0.289  30.800  0.00  0.00    +0.111 A 
ENDBRANCH  13  14
ENDBRANCH   4  13
ENDBRANCH   8   4
BRANCH  10  12
ATOM     12  C   UNL     1     -16.975   3.810  22.955  0.00  0.00    +0.140 C 
BRANCH  12   5
ATOM      3  O   UNL     1     -14.546   4.454  21.579  0.00  0.00    -0.253 OA
ATOM      5  N   UNL     1     -16.380   5.109  22.827  0.00  0.00    -0.297 N 
ATOM      6  N   UNL     1     -14.848   6.704  22.179  0.00  0.00    -0.269 N 
ATOM     15  C   UNL     1     -15.182   5.347  22.134  0.00  0.00    +0.304 C 
ATOM     28  H   UNL     1     -16.844   5.895  23.274  0.00  0.00    +0.150 HD
ATOM     29  H   UNL     1     -15.485   7.314  22.684  0.00  0.00    +0.156 HD
BRANCH   6  19
ATOM     19  C   UNL     1     -13.723   7.340  21.604  0.00  0.00    +0.035 A 
ATOM     21  C   UNL     1     -12.664   6.574  21.117  0.00  0.00    +0.023 A 
ATOM     22  C   UNL     1     -13.673   8.731  21.522  0.00  0.00    +0.023 A 
ATOM     23  C   UNL     1     -11.554   7.200  20.548  0.00  0.00    +0.002 A 
ATOM     24  C   UNL     1     -12.564   9.357  20.954  0.00  0.00    +0.002 A 
ATOM     25  C   UNL     1     -11.504   8.592  20.467  0.00  0.00    +0.000 A 
ENDBRANCH   6  19
ENDBRANCH  12   5
ENDBRANCH  10  12
TORSDOF 7
ENDMDL
MODEL 7
REMARK VINA RESULT:      -6.2     27.174     29.082
REMARK  Name = 75536777
REMARK  7 active torsions:
REMARK  status: ('A' for Active; 'I' for Inactive)
REMARK    1  A    between atoms: O_2  and  C_9
REMARK    2  A    between atoms: N_4  and  C_8
REMARK    3  A    between atoms: N_4  and  C_13
REMARK    4  A    between atoms: N_5  and  C_12
REMARK    5  A    between atoms: N_6  and  C_19
REMARK    6  A    between atoms: C_10  and  C_12
REMARK    7  A    between atoms: C_13  and  C_14
REMARK                            x       y       z     vdW  Elec       q    Type
REMARK                         _______ _______ _______ _____ _____    ______ ____
ROOT
ATOM      1  O   UNL     1      -5.264 -11.766  19.722  0.00  0.00    -0.371 OA
ATOM      8  C   UNL     1      -4.228 -11.194  17.662  0.00  0.00    +0.111 C 
ATOM      9  C   UNL     1      -5.734 -11.108  17.499  0.00  0.00    +0.164 C 
ATOM     10  C   UNL     1      -6.179 -10.971  18.949  0.00  0.00    +0.165 C 
ATOM     11  C   UNL     1      -4.109 -12.050  18.912  0.00  0.00    +0.181 C 
ENDROOT
BRANCH   9   2
ATOM      2  O   UNL     1      -6.136 -10.000  16.717  0.00  0.00    -0.388 OA
ATOM     27  H   UNL     1      -7.105  -9.930  16.761  0.00  0.00    +0.210 HD
ENDBRANCH   9   2
BRANCH   8   4
ATOM      4  N   UNL     1      -3.548 -11.772  16.514  0.00  0.00    -0.305 NA
ATOM     26  H   UNL     1      -4.244 -12.056  15.824  0.00  0.00    +0.123 HD
BRANCH   4  13
ATOM     13  C   UNL     1      -2.643 -10.807  15.899  0.00  0.00    +0.118 C 
BRANCH  13  14
ATOM      7  N   UNL     1      -4.483 -10.609  12.597  0.00  0.00    -0.263 NA
ATOM     14  C   UNL     1      -2.899 -10.660  14.423  0.00  0.00    -0.015 A 
ATOM     16  C   UNL     1      -1.854 -10.450  13.531  0.00  0.00    +0.008 A 
ATOM     17  C   UNL     1      -4.184 -10.732  13.909  0.00  0.00    +0.115 A 
ATOM     18  C   UNL     1      -2.121 -10.319  12.173  0.00  0.00    +0.020 A 
ATOM     20  C   UNL     1      -3.440 -10.406  11.761  0.00  0.00    +0.111 A 
ENDBRANCH  13  14
ENDBRANCH   4  13
ENDBRANCH   8   4
BRANCH  10  12
ATOM     12  C   UNL     1      -7.601 -11.448  19.187  0.00  0.00    +0.140 C 
BRANCH  12   5
ATOM      3  O   UNL     1      -9.184 -10.614  16.950  0.00  0.00    -0.253 OA
ATOM      5  N   UNL     1      -8.530 -10.355  19.153  0.00  0.00    -0.297 N 
ATOM      6  N   UNL     1     -10.090  -8.903  18.278  0.00  0.00    -0.269 N 
ATOM     15  C   UNL     1      -9.273 -10.006  18.014  0.00  0.00    +0.304 C 
ATOM     28  H   UNL     1      -8.645  -9.797  19.994  0.00  0.00    +0.150 HD
ATOM     29  H   UNL     1     -10.043  -8.515  19.216  0.00  0.00    +0.156 HD
BRANCH   6  19
ATOM     19  C   UNL     1     -10.984  -8.255  17.394  0.00  0.00    +0.035 A 
ATOM     21  C   UNL     1     -10.594  -7.083  16.745  0.00  0.00    +0.023 A 
ATOM     22  C   UNL     1     -12.254  -8.786  17.171  0.00  0.00    +0.023 A 
ATOM     23  C   UNL     1     -11.475  -6.443  15.873  0.00  0.00    +0.002 A 
ATOM     24  C   UNL     1     -13.134  -8.146  16.299  0.00  0.00    +0.002 A 
ATOM     25  C   UNL     1     -12.745  -6.975  15.650  0.00  0.00    +0.000 A 
ENDBRANCH   6  19
ENDBRANCH  12   5
ENDBRANCH  10  12
TORSDOF 7
ENDMDL
MODEL 8
REMARK VINA RESULT:      -6.0     26.824     29.323
REMARK  Name = 75536777
REMARK  7 active torsions:
REMARK  status: ('A' for Active; 'I' for Inactive)
REMARK    1  A    between atoms: O_2  and  C_9
REMARK    2  A    between atoms: N_4  and  C_8
REMARK    3  A    between atoms: N_4  and  C_13
REMARK    4  A    between atoms: N_5  and  C_12
REMARK    5  A    between atoms: N_6  and  C_19
REMARK    6  A    between atoms: C_10  and  C_12
REMARK    7  A    between atoms: C_13  and  C_14
REMARK                            x       y       z     vdW  Elec       q    Type
REMARK                         _______ _______ _______ _____ _____    ______ ____
ROOT
ATOM      1  O   UNL     1      -7.822 -12.763  18.097  0.00  0.00    -0.371 OA
ATOM      8  C   UNL     1      -5.506 -12.617  18.607  0.00  0.00    +0.111 C 
ATOM      9  C   UNL     1      -6.259 -11.585  19.426  0.00  0.00    +0.164 C 
ATOM     10  C   UNL     1      -7.671 -12.155  19.391  0.00  0.00    +0.165 C 
ATOM     11  C   UNL     1      -6.516 -12.932  17.516  0.00  0.00    +0.181 C 
ENDROOT
BRANCH   9   2
ATOM      2  O   UNL     1      -5.769 -11.472  20.747  0.00  0.00    -0.388 OA
ATOM     27  H   UNL     1      -4.811 -11.311  20.706  0.00  0.00    +0.210 HD
ENDBRANCH   9   2
BRANCH   8   4
ATOM      4  N   UNL     1      -4.238 -12.136  18.083  0.00  0.00    -0.305 NA
ATOM     26  H   UNL     1      -3.910 -12.780  17.363  0.00  0.00    +0.123 HD
BRANCH   4  13
ATOM     13  C   UNL     1      -4.383 -10.808  17.497  0.00  0.00    +0.118 C 
BRANCH  13  14
ATOM      7  N   UNL     1      -3.662 -10.597  13.787  0.00  0.00    -0.263 NA
ATOM     14  C   UNL     1      -3.624 -10.682  16.203  0.00  0.00    -0.015 A 
ATOM     16  C   UNL     1      -2.241 -10.541  16.193  0.00  0.00    +0.008 A 
ATOM     17  C   UNL     1      -4.281 -10.705  14.983  0.00  0.00    +0.115 A 
ATOM     18  C   UNL     1      -1.567 -10.428  14.982  0.00  0.00    +0.020 A 
ATOM     20  C   UNL     1      -2.317 -10.462  13.818  0.00  0.00    +0.111 A 
ENDBRANCH  13  14
ENDBRANCH   4  13
ENDBRANCH   8   4
BRANCH  10  12
ATOM     12  C   UNL     1      -8.747 -11.104  19.593  0.00  0.00    +0.140 C 
BRANCH  12   5
ATOM      3  O   UNL     1     -11.015 -10.014  18.224  0.00  0.00    -0.253 OA
ATOM      5  N   UNL     1      -8.727 -10.128  18.542  0.00  0.00    -0.297 N 
ATOM      6  N   UNL     1      -9.556  -8.703  16.932  0.00  0.00    -0.269 N 
ATOM     15  C   UNL     1      -9.885  -9.640  17.917  0.00  0.00    +0.304 C 
ATOM     28  H   UNL     1      -7.825  -9.783  18.225  0.00  0.00    +0.150 HD
ATOM     29  H   UNL     1      -8.568  -8.506  16.803  0.00  0.00    +0.156 HD
BRANCH   6  19
ATOM     19  C   UNL     1     -10.437  -7.988  16.087  0.00  0.00    +0.035 A 
ATOM     21  C   UNL     1     -10.870  -8.559  14.890  0.00  0.00    +0.023 A 
ATOM     22  C   UNL     1     -10.872  -6.714  16.448  0.00  0.00    +0.023 A 
ATOM     23  C   UNL     1     -11.739  -7.855  14.055  0.00  0.00    +0.002 A 
ATOM     24  C   UNL     1     -11.740  -6.010  15.614  0.00  0.00    +0.002 A 
ATOM     25  C   UNL     1     -12.173  -6.580  14.418  0.00  0.00    +0.000 A 
ENDBRANCH   6  19
ENDBRANCH  12   5
ENDBRANCH  10  12
TORSDOF 7
ENDMDL
MODEL 9
REMARK VINA RESULT:      -6.0     26.136     28.852
REMARK  Name = 75536777
REMARK  7 active torsions:
REMARK  status: ('A' for Active; 'I' for Inactive)
REMARK    1  A    between atoms: O_2  and  C_9
REMARK    2  A    between atoms: N_4  and  C_8
REMARK    3  A    between atoms: N_4  and  C_13
REMARK    4  A    between atoms: N_5  and  C_12
REMARK    5  A    between atoms: N_6  and  C_19
REMARK    6  A    between atoms: C_10  and  C_12
REMARK    7  A    between atoms: C_13  and  C_14
REMARK                            x       y       z     vdW  Elec       q    Type
REMARK                         _______ _______ _______ _____ _____    ______ ____
ROOT
ATOM      1  O   UNL     1      -8.297 -11.015  17.418  0.00  0.00    -0.371 OA
ATOM      8  C   UNL     1      -5.998 -10.605  17.858  0.00  0.00    +0.111 C 
ATOM      9  C   UNL     1      -6.340 -10.074  16.479  0.00  0.00    +0.164 C 
ATOM     10  C   UNL     1      -7.852  -9.930  16.586  0.00  0.00    +0.165 C 
ATOM     11  C   UNL     1      -7.158 -11.555  18.111  0.00  0.00    +0.181 C 
ENDROOT
BRANCH   9   2
ATOM      2  O   UNL     1      -5.712  -8.839  16.198  0.00  0.00    -0.388 OA
ATOM     27  H   UNL     1      -5.532  -8.388  17.040  0.00  0.00    +0.210 HD
ENDBRANCH   9   2
BRANCH   8   4
ATOM      4  N   UNL     1      -4.703 -11.261  17.927  0.00  0.00    -0.305 NA
ATOM     26  H   UNL     1      -4.702 -11.913  18.713  0.00  0.00    +0.123 HD
BRANCH   4  13
ATOM     13  C   UNL     1      -4.423 -12.000  16.702  0.00  0.00    +0.118 C 
BRANCH  13  14
ATOM      7  N   UNL     1      -1.219 -10.213  15.769  0.00  0.00    -0.263 NA
ATOM     14  C   UNL     1      -3.362 -11.327  15.872  0.00  0.00    -0.015 A 
ATOM     16  C   UNL     1      -3.509 -11.186  14.497  0.00  0.00    +0.008 A 
ATOM     17  C   UNL     1      -2.208 -10.828  16.454  0.00  0.00    +0.115 A 
ATOM     18  C   UNL     1      -2.513 -10.559  13.757  0.00  0.00    +0.020 A 
ATOM     20  C   UNL     1      -1.398 -10.095  14.434  0.00  0.00    +0.111 A 
ENDBRANCH  13  14
ENDBRANCH   4  13
ENDBRANCH   8   4
BRANCH  10  12
ATOM     12  C   UNL     1      -8.557  -9.992  15.242  0.00  0.00    +0.140 C 
BRANCH  12   5
ATOM      3  O   UNL     1      -7.358 -10.999  12.843  0.00  0.00    -0.253 OA
ATOM      5  N   UNL     1      -7.854  -9.231  14.249  0.00  0.00    -0.297 N 
ATOM      6  N   UNL     1      -6.672  -8.816  12.316  0.00  0.00    -0.269 N 
ATOM     15  C   UNL     1      -7.292  -9.798  13.095  0.00  0.00    +0.304 C 
ATOM     28  H   UNL     1      -7.748  -8.232  14.398  0.00  0.00    +0.150 HD
ATOM     29  H   UNL     1      -6.707  -7.864  12.669  0.00  0.00    +0.156 HD
BRANCH   6  19
ATOM     19  C   UNL     1      -5.996  -8.985  11.084  0.00  0.00    +0.035 A 
ATOM     21  C   UNL     1      -6.716  -8.985   9.889  0.00  0.00    +0.023 A 
ATOM     22  C   UNL     1      -4.612  -9.151  11.064  0.00  0.00    +0.023 A 
ATOM     23  C   UNL     1      -6.051  -9.151   8.674  0.00  0.00    +0.002 A 
ATOM     24  C   UNL     1      -3.947  -9.316   9.850  0.00  0.00    +0.002 A 
ATOM     25  C   UNL     1      -4.666  -9.317   8.655  0.00  0.00    +0.000 A 
ENDBRANCH   6  19
ENDBRANCH  12   5
ENDBRANCH  10  12
TORSDOF 7
ENDMDL
MODEL 10
REMARK VINA RESULT:      -6.0     16.093     18.732
REMARK  Name = 75536777
REMARK  7 active torsions:
REMARK  status: ('A' for Active; 'I' for Inactive)
REMARK    1  A    between atoms: O_2  and  C_9
REMARK    2  A    between atoms: N_4  and  C_8
REMARK    3  A    between atoms: N_4  and  C_13
REMARK    4  A    between atoms: N_5  and  C_12
REMARK    5  A    between atoms: N_6  and  C_19
REMARK    6  A    between atoms: C_10  and  C_12
REMARK    7  A    between atoms: C_13  and  C_14
REMARK                            x       y       z     vdW  Elec       q    Type
REMARK                         _______ _______ _______ _____ _____    ______ ____
ROOT
ATOM      1  O   UNL     1      12.413   5.954   0.255  0.00  0.00    -0.371 OA
ATOM      8  C   UNL     1      14.347   5.292   1.466  0.00  0.00    +0.111 C 
ATOM      9  C   UNL     1      13.203   4.358   1.812  0.00  0.00    +0.164 C 
ATOM     10  C   UNL     1      12.280   4.570   0.620  0.00  0.00    +0.165 C 
ATOM     11  C   UNL     1      13.600   6.478   0.878  0.00  0.00    +0.181 C 
ENDROOT
BRANCH   9   2
ATOM      2  O   UNL     1      13.615   3.010   1.927  0.00  0.00    -0.388 OA
ATOM     27  H   UNL     1      12.889   2.500   2.323  0.00  0.00    +0.210 HD
ENDBRANCH   9   2
BRANCH   8   4
ATOM      4  N   UNL     1      15.172   5.653   2.608  0.00  0.00    -0.305 NA
ATOM     26  H   UNL     1      16.140   5.395   2.414  0.00  0.00    +0.123 HD
BRANCH   4  13
ATOM     13  C   UNL     1      15.111   7.087   2.867  0.00  0.00    +0.118 C 
BRANCH  13  14
ATOM      7  N   UNL     1      14.961   7.917   6.558  0.00  0.00    -0.263 NA
ATOM     14  C   UNL     1      14.555   7.386   4.234  0.00  0.00    -0.015 A 
ATOM     16  C   UNL     1      13.184   7.412   4.461  0.00  0.00    +0.008 A 
ATOM     17  C   UNL     1      15.394   7.643   5.307  0.00  0.00    +0.115 A 
ATOM     18  C   UNL     1      12.700   7.690   5.734  0.00  0.00    +0.020 A 
ATOM     20  C   UNL     1      13.622   7.933   6.739  0.00  0.00    +0.111 A 
ENDBRANCH  13  14
ENDBRANCH   4  13
ENDBRANCH   8   4
BRANCH  10  12
ATOM     12  C   UNL     1      10.826   4.257   0.924  0.00  0.00    +0.140 C 
BRANCH  12   5
ATOM      3  O   UNL     1       9.956   6.338   2.690  0.00  0.00    -0.253 OA
ATOM      5  N   UNL     1      10.601   4.145   2.337  0.00  0.00    -0.297 N 
ATOM      6  N   UNL     1      10.042   4.810   4.471  0.00  0.00    -0.269 N 
ATOM     15  C   UNL     1      10.173   5.215   3.139  0.00  0.00    +0.304 C 
ATOM     28  H   UNL     1      10.775   3.248   2.781  0.00  0.00    +0.150 HD
ATOM     29  H   UNL     1      10.264   3.840   4.677  0.00  0.00    +0.156 HD
BRANCH   6  19
ATOM     19  C   UNL     1       9.635   5.590   5.579  0.00  0.00    +0.035 A 
ATOM     21  C   UNL     1      10.228   5.392   6.826  0.00  0.00    +0.023 A 
ATOM     22  C   UNL     1       8.643   6.557   5.425  0.00  0.00    +0.023 A 
ATOM     23  C   UNL     1       9.828   6.161   7.919  0.00  0.00    +0.002 A 
ATOM     24  C   UNL     1       8.242   7.326   6.517  0.00  0.00    +0.002 A 
ATOM     25  C   UNL     1       8.835   7.128   7.764  0.00  0.00    +0.000 A 
ENDBRANCH   6  19
ENDBRANCH  12   5
ENDBRANCH  10  12
TORSDOF 7
ENDMDL
