REMARK  Name = 44716431
REMARK  9 active torsions:
REMARK  status: ('A' for Active; 'I' for Inactive)
REMARK    1  A    between atoms: O_2  and  C_21
REMARK    2  A    between atoms: O_2  and  C_34
REMARK    3  A    between atoms: N_5  and  C_12
REMARK    4  A    between atoms: N_5  and  C_22
REMARK    5  A    between atoms: N_7  and  C_32
REMARK    6  A    between atoms: C_10  and  C_18
REMARK    7  A    between atoms: C_14  and  C_21
REMARK    8  A    between atoms: C_22  and  C_27
REMARK    9  A    between atoms: C_27  and  C_32
REMARK                            x       y       z     vdW  Elec       q    Type
REMARK                         _______ _______ _______ _____ _____    ______ ____
ROOT
ATOM      4  N   UNL     1       1.317   0.623  -0.000  0.00  0.00    -0.274 NA
ATOM      6  N   UNL     1       2.331  -2.994  -0.027  0.00  0.00    -0.356 N 
ATOM      9  C   UNL     1       1.114  -0.784  -0.464  0.00  0.00    +0.106 C 
ATOM     10  C   UNL     1       0.209   1.514  -0.427  0.00  0.00    +0.090 C 
ATOM     11  C   UNL     1      -0.215  -1.345   0.065  0.00  0.00    +0.044 C 
ATOM     12  C   UNL     1      -1.384  -0.476  -0.398  0.00  0.00    +0.057 C 
ATOM     13  C   UNL     1      -1.159   0.968   0.049  0.00  0.00    +0.042 C 
ATOM     14  C   UNL     1       2.682   1.138  -0.296  0.00  0.00    +0.172 C 
ATOM     15  C   UNL     1       2.279  -1.628  -0.040  0.00  0.00    +0.038 A 
ATOM     16  C   UNL     1       3.794   0.312   0.401  0.00  0.00    +0.068 C 
ATOM     17  C   UNL     1       3.513  -1.148   0.340  0.00  0.00    -0.016 A 
ATOM     19  C   UNL     1       4.343  -2.265   0.631  0.00  0.00    +0.003 A 
ATOM     20  C   UNL     1       3.576  -3.410   0.394  0.00  0.00    +0.047 A 
ATOM     25  C   UNL     1       5.673  -2.419   1.069  0.00  0.00    +0.010 A 
ATOM     26  C   UNL     1       4.079  -4.704   0.575  0.00  0.00    +0.026 A 
ATOM     28  C   UNL     1       6.187  -3.707   1.256  0.00  0.00    +0.001 A 
ATOM     31  C   UNL     1       5.400  -4.831   1.013  0.00  0.00    +0.002 A 
ATOM     39  H   UNL     1       1.575  -3.613  -0.283  0.00  0.00    +0.166 HD
ENDROOT
BRANCH  10  18
ATOM      1 CL   UNL     1       0.560   4.836   3.596  0.00  0.00    -0.084 Cl
ATOM     18  C   UNL     1       0.334   2.950   0.076  0.00  0.00    -0.029 A 
ATOM     23  C   UNL     1       0.385   3.207   1.446  0.00  0.00    +0.025 A 
ATOM     24  C   UNL     1       0.399   4.004  -0.835  0.00  0.00    +0.005 A 
ATOM     29  C   UNL     1       0.500   4.519   1.905  0.00  0.00    +0.041 A 
ATOM     30  C   UNL     1       0.514   5.316  -0.375  0.00  0.00    +0.002 A 
ATOM     33  C   UNL     1       0.565   5.574   0.995  0.00  0.00    +0.020 A 
ENDBRANCH  10  18
BRANCH  14  21
ATOM      3  O   UNL     1       2.084   0.864  -2.615  0.00  0.00    -0.249 OA
ATOM     21  C   UNL     1       2.911   1.202  -1.780  0.00  0.00    +0.325 C 
BRANCH  21   2
ATOM      2  O   UNL     1       4.161   1.686  -2.028  0.00  0.00    -0.467 OA
ATOM     34  C   UNL     1       4.513   1.800  -3.410  0.00  0.00    +0.280 C 
ENDBRANCH  21   2
ENDBRANCH  14  21
BRANCH  12   5
ATOM      5  N   UNL     1      -2.641  -0.997   0.137  0.00  0.00    -0.313 NA
ATOM     38  H   UNL     1      -2.627  -2.017   0.116  0.00  0.00    +0.122 HD
BRANCH   5  22
ATOM     22  C   UNL     1      -3.771  -0.527  -0.650  0.00  0.00    +0.083 C 
BRANCH  22  27
ATOM     27  C   UNL     1      -5.076  -1.098  -0.098  0.00  0.00    +0.037 C 
BRANCH  27  32
ATOM     32  C   UNL     1      -6.277  -0.622  -0.919  0.00  0.00    +0.124 C 
BRANCH  32   7
ATOM      7  N   UNL     1      -7.576  -1.143  -0.361  0.00  0.00    -0.337 N 
ATOM      8  N   UNL     1      -9.513  -1.169   0.725  0.00  0.00    -0.244 NA
ATOM     35  C   UNL     1      -8.070  -2.409  -0.508  0.00  0.00    +0.106 A 
ATOM     36  C   UNL     1      -8.476  -0.436   0.386  0.00  0.00    +0.199 A 
ATOM     37  C   UNL     1      -9.266  -2.401   0.171  0.00  0.00    +0.130 A 
ENDBRANCH  32   7
ENDBRANCH  27  32
ENDBRANCH  22  27
ENDBRANCH   5  22
ENDBRANCH  12   5
TORSDOF 8
