MODEL 1
REMARK VINA RESULT:      -7.9      0.000      0.000
REMARK  Name = 11911997
REMARK  5 active torsions:
REMARK  status: ('A' for Active; 'I' for Inactive)
REMARK    1  A    between atoms: O_3  and  C_10
REMARK    2  A    between atoms: O_3  and  C_13
REMARK    3  A    between atoms: N_4  and  C_9
REMARK    4  A    between atoms: C_13  and  C_15
REMARK    5  A    between atoms: C_16  and  C_21
REMARK                            x       y       z     vdW  Elec       q    Type
REMARK                         _______ _______ _______ _____ _____    ______ ____
ROOT
ATOM      1  O   UNL     1     -13.590   5.002  22.004  0.00  0.00    -0.369 OA
ATOM      2  O   UNL     1     -15.440   7.132  23.207  0.00  0.00    -0.369 OA
ATOM      7  C   UNL     1     -15.685   5.766  22.811  0.00  0.00    +0.172 C 
ATOM      8  C   UNL     1     -14.859   5.514  21.565  0.00  0.00    +0.180 C 
ATOM      9  C   UNL     1     -15.100   4.817  23.832  0.00  0.00    +0.130 C 
ATOM     10  C   UNL     1     -14.730   6.898  20.975  0.00  0.00    +0.175 C 
ATOM     11  C   UNL     1     -13.639   4.762  23.420  0.00  0.00    +0.185 C 
ATOM     12  C   UNL     1     -14.622   7.763  22.211  0.00  0.00    +0.194 C 
ENDROOT
BRANCH   9   4
ATOM      4  N   UNL     1     -15.719   3.515  23.750  0.00  0.00    -0.306 N 
ATOM      5  N   UNL     1     -15.822   3.296  26.083  0.00  0.00    -0.214 NA
ATOM      6  N   UNL     1     -16.652   1.555  24.639  0.00  0.00    -0.223 NA
ATOM     14  C   UNL     1     -16.075   2.767  24.858  0.00  0.00    +0.216 A 
ATOM     16  C   UNL     1     -16.182   2.539  27.141  0.00  0.00    +0.076 A 
ATOM     19  C   UNL     1     -16.986   0.851  25.740  0.00  0.00    +0.116 A 
ATOM     20  C   UNL     1     -16.773   1.297  27.029  0.00  0.00    +0.048 A 
ATOM     30  H   UNL     1     -15.958   3.135  22.841  0.00  0.00    +0.149 HD
BRANCH  16  21
ATOM     21  C   UNL     1     -15.905   3.120  28.433  0.00  0.00    +0.001 A 
ATOM     25  C   UNL     1     -15.112   2.433  29.355  0.00  0.00    +0.010 A 
ATOM     26  C   UNL     1     -16.431   4.370  28.766  0.00  0.00    +0.010 A 
ATOM     27  C   UNL     1     -14.844   2.994  30.604  0.00  0.00    +0.001 A 
ATOM     28  C   UNL     1     -16.162   4.932  30.015  0.00  0.00    +0.001 A 
ATOM     29  C   UNL     1     -15.370   4.243  30.933  0.00  0.00    +0.000 A 
ENDBRANCH  16  21
ENDBRANCH   9   4
BRANCH  10   3
ATOM      3  O   UNL     1     -13.613   7.046  20.126  0.00  0.00    -0.367 OA
BRANCH   3  13
ATOM     13  C   UNL     1     -12.637   7.927  20.679  0.00  0.00    +0.195 C 
BRANCH  13  15
ATOM     15  C   UNL     1     -11.711   8.377  19.588  0.00  0.00    -0.022 A 
ATOM     17  C   UNL     1     -11.025   9.580  19.720  0.00  0.00    +0.006 A 
ATOM     18  C   UNL     1     -11.545   7.587  18.455  0.00  0.00    +0.006 A 
ATOM     22  C   UNL     1     -10.163   9.998  18.706  0.00  0.00    +0.000 A 
ATOM     23  C   UNL     1     -10.683   8.007  17.442  0.00  0.00    +0.000 A 
ATOM     24  C   UNL     1      -9.992   9.211  17.567  0.00  0.00    +0.000 A 
ENDBRANCH  13  15
ENDBRANCH   3  13
ENDBRANCH  10   3
TORSDOF 5
ENDMDL
MODEL 2
REMARK VINA RESULT:      -7.2     19.165     20.878
REMARK  Name = 11911997
REMARK  5 active torsions:
REMARK  status: ('A' for Active; 'I' for Inactive)
REMARK    1  A    between atoms: O_3  and  C_10
REMARK    2  A    between atoms: O_3  and  C_13
REMARK    3  A    between atoms: N_4  and  C_9
REMARK    4  A    between atoms: C_13  and  C_15
REMARK    5  A    between atoms: C_16  and  C_21
REMARK                            x       y       z     vdW  Elec       q    Type
REMARK                         _______ _______ _______ _____ _____    ______ ____
ROOT
ATOM      1  O   UNL     1      -5.735  -8.537  11.040  0.00  0.00    -0.369 OA
ATOM      2  O   UNL     1      -6.830 -11.385  10.723  0.00  0.00    -0.369 OA
ATOM      7  C   UNL     1      -5.480 -10.887  10.843  0.00  0.00    +0.172 C 
ATOM      8  C   UNL     1      -5.429  -9.572  10.090  0.00  0.00    +0.180 C 
ATOM      9  C   UNL     1      -5.196 -10.497  12.275  0.00  0.00    +0.130 C 
ATOM     10  C   UNL     1      -6.528  -9.738   9.069  0.00  0.00    +0.175 C 
ATOM     11  C   UNL     1      -5.805  -9.107  12.357  0.00  0.00    +0.185 C 
ATOM     12  C   UNL     1      -7.564 -10.525   9.840  0.00  0.00    +0.194 C 
ENDROOT
BRANCH   9   4
ATOM      4  N   UNL     1      -3.777 -10.465  12.536  0.00  0.00    -0.306 N 
ATOM      5  N   UNL     1      -4.088 -10.659  14.854  0.00  0.00    -0.214 NA
ATOM      6  N   UNL     1      -1.876 -10.504  13.910  0.00  0.00    -0.223 NA
ATOM     14  C   UNL     1      -3.231 -10.545  13.805  0.00  0.00    +0.216 A 
ATOM     16  C   UNL     1      -3.521 -10.734  16.076  0.00  0.00    +0.076 A 
ATOM     19  C   UNL     1      -1.377 -10.585  15.161  0.00  0.00    +0.116 A 
ATOM     20  C   UNL     1      -2.159 -10.702  16.292  0.00  0.00    +0.048 A 
ATOM     30  H   UNL     1      -3.129 -10.432  11.758  0.00  0.00    +0.149 HD
BRANCH  16  21
ATOM     21  C   UNL     1      -4.449 -10.855  17.175  0.00  0.00    +0.001 A 
ATOM     25  C   UNL     1      -5.692 -10.221  17.116  0.00  0.00    +0.010 A 
ATOM     26  C   UNL     1      -4.106 -11.606  18.302  0.00  0.00    +0.010 A 
ATOM     27  C   UNL     1      -6.589 -10.338  18.178  0.00  0.00    +0.001 A 
ATOM     28  C   UNL     1      -5.004 -11.723  19.364  0.00  0.00    +0.001 A 
ATOM     29  C   UNL     1      -6.244 -11.089  19.302  0.00  0.00    +0.000 A 
ENDBRANCH  16  21
ENDBRANCH   9   4
BRANCH  10   3
ATOM      3  O   UNL     1      -7.041  -8.514   8.590  0.00  0.00    -0.367 OA
BRANCH   3  13
ATOM     13  C   UNL     1      -8.374  -8.649   8.103  0.00  0.00    +0.195 C 
BRANCH  13  15
ATOM     15  C   UNL     1      -9.159  -7.427   8.478  0.00  0.00    -0.022 A 
ATOM     17  C   UNL     1     -10.386  -7.566   9.116  0.00  0.00    +0.006 A 
ATOM     18  C   UNL     1      -8.651  -6.166   8.183  0.00  0.00    +0.006 A 
ATOM     22  C   UNL     1     -11.116  -6.429   9.465  0.00  0.00    +0.000 A 
ATOM     23  C   UNL     1      -9.382  -5.030   8.533  0.00  0.00    +0.000 A 
ATOM     24  C   UNL     1     -10.613  -5.161   9.174  0.00  0.00    +0.000 A 
ENDBRANCH  13  15
ENDBRANCH   3  13
ENDBRANCH  10   3
TORSDOF 5
ENDMDL
MODEL 3
REMARK VINA RESULT:      -7.2     29.172     33.579
REMARK  Name = 11911997
REMARK  5 active torsions:
REMARK  status: ('A' for Active; 'I' for Inactive)
REMARK    1  A    between atoms: O_3  and  C_10
REMARK    2  A    between atoms: O_3  and  C_13
REMARK    3  A    between atoms: N_4  and  C_9
REMARK    4  A    between atoms: C_13  and  C_15
REMARK    5  A    between atoms: C_16  and  C_21
REMARK                            x       y       z     vdW  Elec       q    Type
REMARK                         _______ _______ _______ _____ _____    ______ ____
ROOT
ATOM      1  O   UNL     1      10.644   3.947   0.130  0.00  0.00    -0.369 OA
ATOM      2  O   UNL     1      13.162   4.291   1.846  0.00  0.00    -0.369 OA
ATOM      7  C   UNL     1      12.179   5.244   1.388  0.00  0.00    +0.172 C 
ATOM      8  C   UNL     1      11.775   4.822  -0.010  0.00  0.00    +0.180 C 
ATOM      9  C   UNL     1      10.906   5.102   2.191  0.00  0.00    +0.130 C 
ATOM     10  C   UNL     1      12.999   4.081  -0.493  0.00  0.00    +0.175 C 
ATOM     11  C   UNL     1      10.219   3.936   1.502  0.00  0.00    +0.185 C 
ATOM     12  C   UNL     1      13.476   3.397   0.769  0.00  0.00    +0.194 C 
ENDROOT
BRANCH   9   4
ATOM      4  N   UNL     1      10.106   6.301   2.119  0.00  0.00    -0.306 N 
ATOM      5  N   UNL     1       9.640   6.261   4.418  0.00  0.00    -0.214 NA
ATOM      6  N   UNL     1       8.759   8.005   3.006  0.00  0.00    -0.223 NA
ATOM     14  C   UNL     1       9.483   6.873   3.214  0.00  0.00    +0.216 A 
ATOM     16  C   UNL     1       9.018   6.845   5.463  0.00  0.00    +0.076 A 
ATOM     19  C   UNL     1       8.165   8.535   4.095  0.00  0.00    +0.116 A 
ATOM     20  C   UNL     1       8.261   7.994   5.361  0.00  0.00    +0.048 A 
ATOM     30  H   UNL     1      10.026   6.792   1.236  0.00  0.00    +0.149 HD
BRANCH  16  21
ATOM     21  C   UNL     1       9.198   6.181   6.732  0.00  0.00    +0.001 A 
ATOM     25  C   UNL     1       8.849   6.830   7.919  0.00  0.00    +0.010 A 
ATOM     26  C   UNL     1       9.723   4.887   6.778  0.00  0.00    +0.010 A 
ATOM     27  C   UNL     1       9.022   6.188   9.145  0.00  0.00    +0.001 A 
ATOM     28  C   UNL     1       9.896   4.245   8.005  0.00  0.00    +0.001 A 
ATOM     29  C   UNL     1       9.545   4.896   9.187  0.00  0.00    +0.000 A 
ENDBRANCH  16  21
ENDBRANCH   9   4
BRANCH  10   3
ATOM      3  O   UNL     1      12.729   3.159  -1.525  0.00  0.00    -0.367 OA
BRANCH   3  13
ATOM     13  C   UNL     1      12.906   3.738  -2.816  0.00  0.00    +0.195 C 
BRANCH  13  15
ATOM     15  C   UNL     1      11.765   3.326  -3.698  0.00  0.00    -0.022 A 
ATOM     17  C   UNL     1      11.893   3.424  -5.080  0.00  0.00    +0.006 A 
ATOM     18  C   UNL     1      10.589   2.850  -3.127  0.00  0.00    +0.006 A 
ATOM     22  C   UNL     1      10.832   3.040  -5.901  0.00  0.00    +0.000 A 
ATOM     23  C   UNL     1       9.529   2.468  -3.949  0.00  0.00    +0.000 A 
ATOM     24  C   UNL     1       9.650   2.562  -5.335  0.00  0.00    +0.000 A 
ENDBRANCH  13  15
ENDBRANCH   3  13
ENDBRANCH  10   3
TORSDOF 5
ENDMDL
MODEL 4
REMARK VINA RESULT:      -7.1     21.492     23.221
REMARK  Name = 11911997
REMARK  5 active torsions:
REMARK  status: ('A' for Active; 'I' for Inactive)
REMARK    1  A    between atoms: O_3  and  C_10
REMARK    2  A    between atoms: O_3  and  C_13
REMARK    3  A    between atoms: N_4  and  C_9
REMARK    4  A    between atoms: C_13  and  C_15
REMARK    5  A    between atoms: C_16  and  C_21
REMARK                            x       y       z     vdW  Elec       q    Type
REMARK                         _______ _______ _______ _____ _____    ______ ____
ROOT
ATOM      1  O   UNL     1      -3.911  -9.633   9.512  0.00  0.00    -0.369 OA
ATOM      2  O   UNL     1      -6.116 -11.468  10.596  0.00  0.00    -0.369 OA
ATOM      7  C   UNL     1      -4.690 -11.454  10.816  0.00  0.00    +0.172 C 
ATOM      8  C   UNL     1      -4.046 -11.064   9.500  0.00  0.00    +0.180 C 
ATOM      9  C   UNL     1      -4.320 -10.325  11.750  0.00  0.00    +0.130 C 
ATOM     10  C   UNL     1      -5.070 -11.522   8.489  0.00  0.00    +0.175 C 
ATOM     11  C   UNL     1      -4.271  -9.133  10.809  0.00  0.00    +0.185 C 
ATOM     12  C   UNL     1      -6.372 -11.240   9.203  0.00  0.00    +0.194 C 
ENDROOT
BRANCH   9   4
ATOM      4  N   UNL     1      -3.038 -10.558  12.370  0.00  0.00    -0.306 N 
ATOM      5  N   UNL     1      -3.944 -10.470  14.532  0.00  0.00    -0.214 NA
ATOM      6  N   UNL     1      -1.590 -10.857  14.192  0.00  0.00    -0.223 NA
ATOM     14  C   UNL     1      -2.852 -10.631  13.739  0.00  0.00    +0.216 A 
ATOM     16  C   UNL     1      -3.726 -10.546  15.862  0.00  0.00    +0.076 A 
ATOM     19  C   UNL     1      -1.444 -10.921  15.531  0.00  0.00    +0.116 A 
ATOM     20  C   UNL     1      -2.487 -10.772  16.423  0.00  0.00    +0.048 A 
ATOM     30  H   UNL     1      -2.227 -10.730  11.786  0.00  0.00    +0.149 HD
BRANCH  16  21
ATOM     21  C   UNL     1      -4.899 -10.373  16.686  0.00  0.00    +0.001 A 
ATOM     25  C   UNL     1      -6.017  -9.705  16.181  0.00  0.00    +0.010 A 
ATOM     26  C   UNL     1      -4.919 -10.873  17.990  0.00  0.00    +0.010 A 
ATOM     27  C   UNL     1      -7.151  -9.539  16.977  0.00  0.00    +0.001 A 
ATOM     28  C   UNL     1      -6.053 -10.706  18.785  0.00  0.00    +0.001 A 
ATOM     29  C   UNL     1      -7.168 -10.039  18.279  0.00  0.00    +0.000 A 
ENDBRANCH  16  21
ENDBRANCH   9   4
BRANCH  10   3
ATOM      3  O   UNL     1      -4.984 -10.843   7.256  0.00  0.00    -0.367 OA
BRANCH   3  13
ATOM     13  C   UNL     1      -5.871 -11.392   6.283  0.00  0.00    +0.195 C 
BRANCH  13  15
ATOM     15  C   UNL     1      -5.071 -11.889   5.116  0.00  0.00    -0.022 A 
ATOM     17  C   UNL     1      -5.707 -12.149   3.906  0.00  0.00    +0.006 A 
ATOM     18  C   UNL     1      -3.701 -12.085   5.253  0.00  0.00    +0.006 A 
ATOM     22  C   UNL     1      -4.963 -12.612   2.820  0.00  0.00    +0.000 A 
ATOM     23  C   UNL     1      -2.959 -12.548   4.166  0.00  0.00    +0.000 A 
ATOM     24  C   UNL     1      -3.589 -12.811   2.950  0.00  0.00    +0.000 A 
ENDBRANCH  13  15
ENDBRANCH   3  13
ENDBRANCH  10   3
TORSDOF 5
ENDMDL
MODEL 5
REMARK VINA RESULT:      -7.0     20.208     21.978
REMARK  Name = 11911997
REMARK  5 active torsions:
REMARK  status: ('A' for Active; 'I' for Inactive)
REMARK    1  A    between atoms: O_3  and  C_10
REMARK    2  A    between atoms: O_3  and  C_13
REMARK    3  A    between atoms: N_4  and  C_9
REMARK    4  A    between atoms: C_13  and  C_15
REMARK    5  A    between atoms: C_16  and  C_21
REMARK                            x       y       z     vdW  Elec       q    Type
REMARK                         _______ _______ _______ _____ _____    ______ ____
ROOT
ATOM      1  O   UNL     1      -4.655  -9.050  10.048  0.00  0.00    -0.369 OA
ATOM      2  O   UNL     1      -6.205 -11.684  10.309  0.00  0.00    -0.369 OA
ATOM      7  C   UNL     1      -4.818 -11.363  10.548  0.00  0.00    +0.172 C 
ATOM      8  C   UNL     1      -4.413 -10.353   9.492  0.00  0.00    +0.180 C 
ATOM      9  C   UNL     1      -4.678 -10.604  11.847  0.00  0.00    +0.130 C 
ATOM     10  C   UNL     1      -5.363 -10.665   8.361  0.00  0.00    +0.175 C 
ATOM     11  C   UNL     1      -5.022  -9.185  11.430  0.00  0.00    +0.185 C 
ATOM     12  C   UNL     1      -6.629 -11.036   9.101  0.00  0.00    +0.194 C 
ENDROOT
BRANCH   9   4
ATOM      4  N   UNL     1      -3.332 -10.690  12.360  0.00  0.00    -0.306 N 
ATOM      5  N   UNL     1      -4.056 -10.583  14.589  0.00  0.00    -0.214 NA
ATOM      6  N   UNL     1      -1.712 -10.768  14.056  0.00  0.00    -0.223 NA
ATOM     14  C   UNL     1      -3.024 -10.680  13.709  0.00  0.00    +0.216 A 
ATOM     16  C   UNL     1      -3.719 -10.576  15.896  0.00  0.00    +0.076 A 
ATOM     19  C   UNL     1      -1.449 -10.756  15.379  0.00  0.00    +0.116 A 
ATOM     20  C   UNL     1      -2.421 -10.661  16.354  0.00  0.00    +0.048 A 
ATOM     30  H   UNL     1      -2.561 -10.815  11.714  0.00  0.00    +0.149 HD
BRANCH  16  21
ATOM     21  C   UNL     1      -4.829 -10.473  16.813  0.00  0.00    +0.001 A 
ATOM     25  C   UNL     1      -5.999  -9.814  16.427  0.00  0.00    +0.010 A 
ATOM     26  C   UNL     1      -4.737 -11.030  18.091  0.00  0.00    +0.010 A 
ATOM     27  C   UNL     1      -7.072  -9.715  17.313  0.00  0.00    +0.001 A 
ATOM     28  C   UNL     1      -5.810 -10.930  18.977  0.00  0.00    +0.001 A 
ATOM     29  C   UNL     1      -6.977 -10.273  18.588  0.00  0.00    +0.000 A 
ENDBRANCH  16  21
ENDBRANCH   9   4
BRANCH  10   3
ATOM      3  O   UNL     1      -5.563  -9.584   7.479  0.00  0.00    -0.367 OA
BRANCH   3  13
ATOM     13  C   UNL     1      -6.106 -10.007   6.231  0.00  0.00    +0.195 C 
BRANCH  13  15
ATOM     15  C   UNL     1      -7.176  -9.044   5.810  0.00  0.00    -0.022 A 
ATOM     17  C   UNL     1      -7.561  -8.981   4.475  0.00  0.00    +0.006 A 
ATOM     18  C   UNL     1      -7.775  -8.222   6.760  0.00  0.00    +0.006 A 
ATOM     22  C   UNL     1      -8.557  -8.086   4.084  0.00  0.00    +0.000 A 
ATOM     23  C   UNL     1      -8.771  -7.327   6.367  0.00  0.00    +0.000 A 
ATOM     24  C   UNL     1      -9.162  -7.259   5.030  0.00  0.00    +0.000 A 
ENDBRANCH  13  15
ENDBRANCH   3  13
ENDBRANCH  10   3
TORSDOF 5
ENDMDL
MODEL 6
REMARK VINA RESULT:      -6.9      1.849      2.851
REMARK  Name = 11911997
REMARK  5 active torsions:
REMARK  status: ('A' for Active; 'I' for Inactive)
REMARK    1  A    between atoms: O_3  and  C_10
REMARK    2  A    between atoms: O_3  and  C_13
REMARK    3  A    between atoms: N_4  and  C_9
REMARK    4  A    between atoms: C_13  and  C_15
REMARK    5  A    between atoms: C_16  and  C_21
REMARK                            x       y       z     vdW  Elec       q    Type
REMARK                         _______ _______ _______ _____ _____    ______ ____
ROOT
ATOM      1  O   UNL     1     -16.847   4.030  22.333  0.00  0.00    -0.369 OA
ATOM      2  O   UNL     1     -14.437   4.283  24.213  0.00  0.00    -0.369 OA
ATOM      7  C   UNL     1     -15.842   4.543  24.418  0.00  0.00    +0.172 C 
ATOM      8  C   UNL     1     -16.373   5.131  23.127  0.00  0.00    +0.180 C 
ATOM      9  C   UNL     1     -16.595   3.241  24.562  0.00  0.00    +0.130 C 
ATOM     10  C   UNL     1     -15.142   5.765  22.526  0.00  0.00    +0.175 C 
ATOM     11  C   UNL     1     -16.798   2.826  23.115  0.00  0.00    +0.185 C 
ATOM     12  C   UNL     1     -14.055   4.794  22.928  0.00  0.00    +0.194 C 
ENDROOT
BRANCH   9   4
ATOM      4  N   UNL     1     -17.856   3.439  25.234  0.00  0.00    -0.306 N 
ATOM      5  N   UNL     1     -16.974   2.804  27.313  0.00  0.00    -0.214 NA
ATOM      6  N   UNL     1     -19.285   3.450  27.095  0.00  0.00    -0.223 NA
ATOM     14  C   UNL     1     -18.044   3.224  26.589  0.00  0.00    +0.216 A 
ATOM     16  C   UNL     1     -17.193   2.604  28.630  0.00  0.00    +0.076 A 
ATOM     19  C   UNL     1     -19.433   3.231  28.419  0.00  0.00    +0.116 A 
ATOM     20  C   UNL     1     -18.412   2.803  29.243  0.00  0.00    +0.048 A 
ATOM     30  H   UNL     1     -18.646   3.801  24.713  0.00  0.00    +0.149 HD
BRANCH  16  21
ATOM     21  C   UNL     1     -16.043   2.158  29.381  0.00  0.00    +0.001 A 
ATOM     25  C   UNL     1     -15.005   3.048  29.668  0.00  0.00    +0.010 A 
ATOM     26  C   UNL     1     -15.965   0.836  29.824  0.00  0.00    +0.010 A 
ATOM     27  C   UNL     1     -13.895   2.618  30.395  0.00  0.00    +0.001 A 
ATOM     28  C   UNL     1     -14.854   0.406  30.550  0.00  0.00    +0.001 A 
ATOM     29  C   UNL     1     -13.820   1.297  30.835  0.00  0.00    +0.000 A 
ENDBRANCH  16  21
ENDBRANCH   9   4
BRANCH  10   3
ATOM      3  O   UNL     1     -15.217   5.926  21.127  0.00  0.00    -0.367 OA
BRANCH   3  13
ATOM     13  C   UNL     1     -15.070   7.290  20.739  0.00  0.00    +0.195 C 
BRANCH  13  15
ATOM     15  C   UNL     1     -13.736   7.469  20.075  0.00  0.00    -0.022 A 
ATOM     17  C   UNL     1     -13.676   7.935  18.766  0.00  0.00    +0.006 A 
ATOM     18  C   UNL     1     -12.573   7.168  20.774  0.00  0.00    +0.006 A 
ATOM     22  C   UNL     1     -12.437   8.102  18.148  0.00  0.00    +0.000 A 
ATOM     23  C   UNL     1     -11.333   7.334  20.155  0.00  0.00    +0.000 A 
ATOM     24  C   UNL     1     -11.265   7.802  18.843  0.00  0.00    +0.000 A 
ENDBRANCH  13  15
ENDBRANCH   3  13
ENDBRANCH  10   3
TORSDOF 5
ENDMDL
MODEL 7
REMARK VINA RESULT:      -6.8     28.969     34.308
REMARK  Name = 11911997
REMARK  5 active torsions:
REMARK  status: ('A' for Active; 'I' for Inactive)
REMARK    1  A    between atoms: O_3  and  C_10
REMARK    2  A    between atoms: O_3  and  C_13
REMARK    3  A    between atoms: N_4  and  C_9
REMARK    4  A    between atoms: C_13  and  C_15
REMARK    5  A    between atoms: C_16  and  C_21
REMARK                            x       y       z     vdW  Elec       q    Type
REMARK                         _______ _______ _______ _____ _____    ______ ____
ROOT
ATOM      1  O   UNL     1      16.114   8.209   5.659  0.00  0.00    -0.369 OA
ATOM      2  O   UNL     1      14.383  10.644   6.350  0.00  0.00    -0.369 OA
ATOM      7  C   UNL     1      14.346   9.731   5.233  0.00  0.00    +0.172 C 
ATOM      8  C   UNL     1      15.784   9.384   4.901  0.00  0.00    +0.180 C 
ATOM      9  C   UNL     1      13.744   8.412   5.661  0.00  0.00    +0.130 C 
ATOM     10  C   UNL     1      16.534  10.598   5.395  0.00  0.00    +0.175 C 
ATOM     11  C   UNL     1      14.929   7.711   6.302  0.00  0.00    +0.185 C 
ATOM     12  C   UNL     1      15.750  10.975   6.632  0.00  0.00    +0.194 C 
ENDROOT
BRANCH   9   4
ATOM      4  N   UNL     1      13.247   7.672   4.526  0.00  0.00    -0.306 N 
ATOM      5  N   UNL     1      11.647   6.547   5.822  0.00  0.00    -0.214 NA
ATOM      6  N   UNL     1      11.842   6.126   3.457  0.00  0.00    -0.223 NA
ATOM     14  C   UNL     1      12.214   6.755   4.604  0.00  0.00    +0.216 A 
ATOM     16  C   UNL     1      10.643   5.646   5.862  0.00  0.00    +0.076 A 
ATOM     19  C   UNL     1      10.833   5.238   3.569  0.00  0.00    +0.116 A 
ATOM     20  C   UNL     1      10.190   4.955   4.757  0.00  0.00    +0.048 A 
ATOM     30  H   UNL     1      13.629   7.857   3.606  0.00  0.00    +0.149 HD
BRANCH  16  21
ATOM     21  C   UNL     1      10.054   5.441   7.163  0.00  0.00    +0.001 A 
ATOM     25  C   UNL     1       9.529   6.524   7.873  0.00  0.00    +0.010 A 
ATOM     26  C   UNL     1      10.008   4.161   7.719  0.00  0.00    +0.010 A 
ATOM     27  C   UNL     1       8.959   6.327   9.131  0.00  0.00    +0.001 A 
ATOM     28  C   UNL     1       9.438   3.964   8.977  0.00  0.00    +0.001 A 
ATOM     29  C   UNL     1       8.914   5.047   9.682  0.00  0.00    +0.000 A 
ENDBRANCH  16  21
ENDBRANCH   9   4
BRANCH  10   3
ATOM      3  O   UNL     1      17.890  10.342   5.685  0.00  0.00    -0.367 OA
BRANCH   3  13
ATOM     13  C   UNL     1      18.657  10.129   4.501  0.00  0.00    +0.195 C 
BRANCH  13  15
ATOM     15  C   UNL     1      19.593   8.978   4.725  0.00  0.00    -0.022 A 
ATOM     17  C   UNL     1      20.155   8.782   5.982  0.00  0.00    +0.006 A 
ATOM     18  C   UNL     1      19.890   8.118   3.673  0.00  0.00    +0.006 A 
ATOM     22  C   UNL     1      21.026   7.713   6.190  0.00  0.00    +0.000 A 
ATOM     23  C   UNL     1      20.761   7.048   3.883  0.00  0.00    +0.000 A 
ATOM     24  C   UNL     1      21.328   6.845   5.140  0.00  0.00    +0.000 A 
ENDBRANCH  13  15
ENDBRANCH   3  13
ENDBRANCH  10   3
TORSDOF 5
ENDMDL
MODEL 8
REMARK VINA RESULT:      -6.8     22.351     25.630
REMARK  Name = 11911997
REMARK  5 active torsions:
REMARK  status: ('A' for Active; 'I' for Inactive)
REMARK    1  A    between atoms: O_3  and  C_10
REMARK    2  A    between atoms: O_3  and  C_13
REMARK    3  A    between atoms: N_4  and  C_9
REMARK    4  A    between atoms: C_13  and  C_15
REMARK    5  A    between atoms: C_16  and  C_21
REMARK                            x       y       z     vdW  Elec       q    Type
REMARK                         _______ _______ _______ _____ _____    ______ ____
ROOT
ATOM      1  O   UNL     1      -4.492  -9.150  11.219  0.00  0.00    -0.369 OA
ATOM      2  O   UNL     1      -3.252 -11.919  10.774  0.00  0.00    -0.369 OA
ATOM      7  C   UNL     1      -4.473 -11.327  10.281  0.00  0.00    +0.172 C 
ATOM      8  C   UNL     1      -5.029 -10.471  11.401  0.00  0.00    +0.180 C 
ATOM      9  C   UNL     1      -4.162 -10.335   9.185  0.00  0.00    +0.130 C 
ATOM     10  C   UNL     1      -4.467 -11.139  12.633  0.00  0.00    +0.175 C 
ATOM     11  C   UNL     1      -3.780  -9.094   9.972  0.00  0.00    +0.185 C 
ATOM     12  C   UNL     1      -3.100 -11.581  12.160  0.00  0.00    +0.194 C 
ENDROOT
BRANCH   9   4
ATOM      4  N   UNL     1      -5.318 -10.096   8.354  0.00  0.00    -0.306 N 
ATOM      5  N   UNL     1      -4.416 -11.306   6.558  0.00  0.00    -0.214 NA
ATOM      6  N   UNL     1      -6.588 -10.275   6.389  0.00  0.00    -0.223 NA
ATOM     14  C   UNL     1      -5.444 -10.574   7.062  0.00  0.00    +0.216 A 
ATOM     16  C   UNL     1      -4.572 -11.755   5.295  0.00  0.00    +0.076 A 
ATOM     19  C   UNL     1      -6.677 -10.757   5.132  0.00  0.00    +0.116 A 
ATOM     20  C   UNL     1      -5.692 -11.509   4.528  0.00  0.00    +0.048 A 
ATOM     30  H   UNL     1      -6.111  -9.595   8.738  0.00  0.00    +0.149 HD
BRANCH  16  21
ATOM     21  C   UNL     1      -3.469 -12.531   4.780  0.00  0.00    +0.001 A 
ATOM     25  C   UNL     1      -3.183 -12.520   3.413  0.00  0.00    +0.010 A 
ATOM     26  C   UNL     1      -2.685 -13.295   5.647  0.00  0.00    +0.010 A 
ATOM     27  C   UNL     1      -2.117 -13.269   2.915  0.00  0.00    +0.001 A 
ATOM     28  C   UNL     1      -1.619 -14.045   5.148  0.00  0.00    +0.001 A 
ATOM     29  C   UNL     1      -1.336 -14.032   3.783  0.00  0.00    +0.000 A 
ENDBRANCH  16  21
ENDBRANCH   9   4
BRANCH  10   3
ATOM      3  O   UNL     1      -4.389 -10.284  13.751  0.00  0.00    -0.367 OA
BRANCH   3  13
ATOM     13  C   UNL     1      -3.605 -10.847  14.800  0.00  0.00    +0.195 C 
BRANCH  13  15
ATOM     15  C   UNL     1      -4.374 -10.766  16.085  0.00  0.00    -0.022 A 
ATOM     17  C   UNL     1      -5.603 -10.116  16.112  0.00  0.00    +0.006 A 
ATOM     18  C   UNL     1      -3.851 -11.341  17.238  0.00  0.00    +0.006 A 
ATOM     22  C   UNL     1      -6.319 -10.040  17.307  0.00  0.00    +0.000 A 
ATOM     23  C   UNL     1      -4.568 -11.265  18.433  0.00  0.00    +0.000 A 
ATOM     24  C   UNL     1      -5.801 -10.615  18.467  0.00  0.00    +0.000 A 
ENDBRANCH  13  15
ENDBRANCH   3  13
ENDBRANCH  10   3
TORSDOF 5
ENDMDL
MODEL 9
REMARK VINA RESULT:      -6.7     18.768     22.232
REMARK  Name = 11911997
REMARK  5 active torsions:
REMARK  status: ('A' for Active; 'I' for Inactive)
REMARK    1  A    between atoms: O_3  and  C_10
REMARK    2  A    between atoms: O_3  and  C_13
REMARK    3  A    between atoms: N_4  and  C_9
REMARK    4  A    between atoms: C_13  and  C_15
REMARK    5  A    between atoms: C_16  and  C_21
REMARK                            x       y       z     vdW  Elec       q    Type
REMARK                         _______ _______ _______ _____ _____    ______ ____
ROOT
ATOM      1  O   UNL     1      -6.547 -12.286  18.948  0.00  0.00    -0.369 OA
ATOM      2  O   UNL     1      -7.752 -10.619  16.673  0.00  0.00    -0.369 OA
ATOM      7  C   UNL     1      -6.465 -10.560  17.324  0.00  0.00    +0.172 C 
ATOM      8  C   UNL     1      -6.700 -10.866  18.790  0.00  0.00    +0.180 C 
ATOM      9  C   UNL     1      -5.591 -11.699  16.851  0.00  0.00    +0.130 C 
ATOM     10  C   UNL     1      -8.132 -10.431  18.988  0.00  0.00    +0.175 C 
ATOM     11  C   UNL     1      -6.070 -12.852  17.717  0.00  0.00    +0.185 C 
ATOM     12  C   UNL     1      -8.766 -10.812  17.669  0.00  0.00    +0.194 C 
ENDROOT
BRANCH   9   4
ATOM      4  N   UNL     1      -4.195 -11.415  17.078  0.00  0.00    -0.306 N 
ATOM      5  N   UNL     1      -3.820 -10.895  14.822  0.00  0.00    -0.214 NA
ATOM      6  N   UNL     1      -2.030 -10.783  16.432  0.00  0.00    -0.223 NA
ATOM     14  C   UNL     1      -3.322 -11.019  16.080  0.00  0.00    +0.216 A 
ATOM     16  C   UNL     1      -2.941 -10.507  13.874  0.00  0.00    +0.076 A 
ATOM     19  C   UNL     1      -1.207 -10.398  15.434  0.00  0.00    +0.116 A 
ATOM     20  C   UNL     1      -1.611 -10.242  14.124  0.00  0.00    +0.048 A 
ATOM     30  H   UNL     1      -3.826 -11.455  18.022  0.00  0.00    +0.149 HD
BRANCH  16  21
ATOM     21  C   UNL     1      -3.490 -10.381  12.545  0.00  0.00    +0.001 A 
ATOM     25  C   UNL     1      -2.669 -10.001  11.480  0.00  0.00    +0.010 A 
ATOM     26  C   UNL     1      -4.844 -10.637  12.318  0.00  0.00    +0.010 A 
ATOM     27  C   UNL     1      -3.199  -9.879  10.196  0.00  0.00    +0.001 A 
ATOM     28  C   UNL     1      -5.374 -10.515  11.033  0.00  0.00    +0.001 A 
ATOM     29  C   UNL     1      -4.551 -10.136   9.973  0.00  0.00    +0.000 A 
ENDBRANCH  16  21
ENDBRANCH   9   4
BRANCH  10   3
ATOM      3  O   UNL     1      -8.765 -11.059  20.081  0.00  0.00    -0.367 OA
BRANCH   3  13
ATOM     13  C   UNL     1      -9.990 -11.682  19.701  0.00  0.00    +0.195 C 
BRANCH  13  15
ATOM     15  C   UNL     1     -10.169 -12.939  20.501  0.00  0.00    -0.022 A 
ATOM     17  C   UNL     1     -11.383 -13.185  21.134  0.00  0.00    +0.006 A 
ATOM     18  C   UNL     1      -9.120 -13.846  20.602  0.00  0.00    +0.006 A 
ATOM     22  C   UNL     1     -11.550 -14.353  21.877  0.00  0.00    +0.000 A 
ATOM     23  C   UNL     1      -9.288 -15.015  21.346  0.00  0.00    +0.000 A 
ATOM     24  C   UNL     1     -10.502 -15.269  21.983  0.00  0.00    +0.000 A 
ENDBRANCH  13  15
ENDBRANCH   3  13
ENDBRANCH  10   3
TORSDOF 5
ENDMDL
MODEL 10
REMARK VINA RESULT:      -6.7     15.624     18.447
REMARK  Name = 11911997
REMARK  5 active torsions:
REMARK  status: ('A' for Active; 'I' for Inactive)
REMARK    1  A    between atoms: O_3  and  C_10
REMARK    2  A    between atoms: O_3  and  C_13
REMARK    3  A    between atoms: N_4  and  C_9
REMARK    4  A    between atoms: C_13  and  C_15
REMARK    5  A    between atoms: C_16  and  C_21
REMARK                            x       y       z     vdW  Elec       q    Type
REMARK                         _______ _______ _______ _____ _____    ______ ____
ROOT
ATOM      1  O   UNL     1     -10.012  -7.651  16.721  0.00  0.00    -0.369 OA
ATOM      2  O   UNL     1      -9.610  -9.200  14.104  0.00  0.00    -0.369 OA
ATOM      7  C   UNL     1     -10.795  -8.923  14.879  0.00  0.00    +0.172 C 
ATOM      8  C   UNL     1     -10.391  -8.984  16.338  0.00  0.00    +0.180 C 
ATOM      9  C   UNL     1     -11.221  -7.486  14.680  0.00  0.00    +0.130 C 
ATOM     10  C   UNL     1      -9.205  -9.917  16.309  0.00  0.00    +0.175 C 
ATOM     11  C   UNL     1     -10.315  -6.745  15.648  0.00  0.00    +0.185 C 
ATOM     12  C   UNL     1      -8.544  -9.553  14.999  0.00  0.00    +0.194 C 
ENDROOT
BRANCH   9   4
ATOM      4  N   UNL     1     -12.612  -7.302  15.017  0.00  0.00    -0.306 N 
ATOM      5  N   UNL     1     -13.000  -5.945  13.143  0.00  0.00    -0.214 NA
ATOM      6  N   UNL     1     -14.776  -6.454  14.691  0.00  0.00    -0.223 NA
ATOM     14  C   UNL     1     -13.489  -6.544  14.261  0.00  0.00    +0.216 A 
ATOM     16  C   UNL     1     -13.882  -5.213  12.430  0.00  0.00    +0.076 A 
ATOM     19  C   UNL     1     -15.603  -5.707  13.931  0.00  0.00    +0.116 A 
ATOM     20  C   UNL     1     -15.208  -5.057  12.779  0.00  0.00    +0.048 A 
ATOM     30  H   UNL     1     -12.998  -7.787  15.819  0.00  0.00    +0.149 HD
BRANCH  16  21
ATOM     21  C   UNL     1     -13.343  -4.586  11.247  0.00  0.00    +0.001 A 
ATOM     25  C   UNL     1     -14.175  -4.313  10.158  0.00  0.00    +0.010 A 
ATOM     26  C   UNL     1     -11.989  -4.250  11.187  0.00  0.00    +0.010 A 
ATOM     27  C   UNL     1     -13.654  -3.706   9.015  0.00  0.00    +0.001 A 
ATOM     28  C   UNL     1     -11.469  -3.643  10.043  0.00  0.00    +0.001 A 
ATOM     29  C   UNL     1     -12.301  -3.372   8.958  0.00  0.00    +0.000 A 
ENDBRANCH  16  21
ENDBRANCH   9   4
BRANCH  10   3
ATOM      3  O   UNL     1      -8.333  -9.753  17.405  0.00  0.00    -0.367 OA
BRANCH   3  13
ATOM     13  C   UNL     1      -7.002  -9.457  16.988  0.00  0.00    +0.195 C 
BRANCH  13  15
ATOM     15  C   UNL     1      -6.045 -10.321  17.753  0.00  0.00    -0.022 A 
ATOM     17  C   UNL     1      -6.409 -10.813  19.002  0.00  0.00    +0.006 A 
ATOM     18  C   UNL     1      -4.802 -10.623  17.207  0.00  0.00    +0.006 A 
ATOM     22  C   UNL     1      -5.519 -11.617  19.714  0.00  0.00    +0.000 A 
ATOM     23  C   UNL     1      -3.913 -11.428  17.920  0.00  0.00    +0.000 A 
ATOM     24  C   UNL     1      -4.270 -11.925  19.173  0.00  0.00    +0.000 A 
ENDBRANCH  13  15
ENDBRANCH   3  13
ENDBRANCH  10   3
TORSDOF 5
ENDMDL
