MODEL 1
REMARK VINA RESULT:      -6.9      0.000      0.000
REMARK  Name = 45783274
REMARK  8 active torsions:
REMARK  status: ('A' for Active; 'I' for Inactive)
REMARK    1  A    between atoms: O_3  and  C_28
REMARK    2  A    between atoms: O_3  and  C_29
REMARK    3  A    between atoms: N_4  and  C_13
REMARK    4  A    between atoms: N_7  and  C_27
REMARK    5  A    between atoms: C_9  and  C_14
REMARK    6  A    between atoms: C_13  and  C_15
REMARK    7  A    between atoms: C_18  and  C_19
REMARK    8  A    between atoms: C_27  and  C_28
REMARK                            x       y       z     vdW  Elec       q    Type
REMARK                         _______ _______ _______ _____ _____    ______ ____
ROOT
ATOM      2  O   UNL     1      16.318   5.822  18.485  0.00  0.00    -0.336 OA
ATOM      5  N   UNL     1      16.298   7.399  20.076  0.00  0.00    -0.190 NA
ATOM      6  N   UNL     1      17.553   5.731  19.139  0.00  0.00    -0.056 NA
ATOM     14  C   UNL     1      15.641   6.828  19.098  0.00  0.00    +0.245 A 
ATOM     18  C   UNL     1      17.466   6.692  20.063  0.00  0.00    +0.202 A 
ENDROOT
BRANCH  18  19
ATOM      7  N   UNL     1      21.578   5.415  22.276  0.00  0.00    -0.327 N 
ATOM      8  N   UNL     1      20.595   7.524  22.785  0.00  0.00    -0.240 NA
ATOM     19  C   UNL     1      18.527   6.974  20.987  0.00  0.00    +0.027 A 
ATOM     23  C   UNL     1      19.545   6.048  21.184  0.00  0.00    +0.055 A 
ATOM     24  C   UNL     1      18.540   8.175  21.688  0.00  0.00    +0.031 A 
ATOM     25  C   UNL     1      20.548   6.369  22.085  0.00  0.00    +0.119 A 
ATOM     26  C   UNL     1      19.588   8.400  22.568  0.00  0.00    +0.113 A 
ATOM     30  H   UNL     1      22.307   5.663  22.935  0.00  0.00    +0.148 HD
BRANCH   7  27
ATOM     27  C   UNL     1      21.611   4.168  21.584  0.00  0.00    +0.131 C 
BRANCH  27  28
ATOM     28  C   UNL     1      22.938   4.007  20.863  0.00  0.00    +0.178 C 
BRANCH  28   3
ATOM      3  O   UNL     1      23.300   2.631  20.840  0.00  0.00    -0.381 OA
ATOM     29  C   UNL     1      24.655   2.457  20.447  0.00  0.00    +0.194 C 
ENDBRANCH  28   3
ENDBRANCH  27  28
ENDBRANCH   7  27
ENDBRANCH  18  19
BRANCH  14   9
ATOM      4  N   UNL     1      13.549   8.149  19.371  0.00  0.00    -0.287 NA
ATOM      9  C   UNL     1      14.254   7.129  18.568  0.00  0.00    +0.146 C 
ATOM     10  C   UNL     1      14.276   7.702  17.140  0.00  0.00    +0.030 C 
ATOM     11  C   UNL     1      13.507   9.014  17.225  0.00  0.00    +0.017 C 
ATOM     12  C   UNL     1      12.640   8.838  18.456  0.00  0.00    +0.085 C 
BRANCH   4  13
ATOM     13  C   UNL     1      12.850   7.590  20.521  0.00  0.00    +0.123 C 
BRANCH  13  15
ATOM      1  F   UNL     1      10.171   7.705  21.434  0.00  0.00    -0.205 F 
ATOM     15  C   UNL     1      12.341   8.666  21.444  0.00  0.00    +0.002 A 
ATOM     16  C   UNL     1      11.009   8.662  21.854  0.00  0.00    +0.128 A 
ATOM     17  C   UNL     1      13.206   9.666  21.888  0.00  0.00    +0.008 A 
ATOM     20  C   UNL     1      10.540   9.660  22.710  0.00  0.00    +0.038 A 
ATOM     21  C   UNL     1      12.737  10.664  22.743  0.00  0.00    +0.000 A 
ATOM     22  C   UNL     1      11.404  10.661  23.154  0.00  0.00    +0.003 A 
ENDBRANCH  13  15
ENDBRANCH   4  13
ENDBRANCH  14   9
TORSDOF 7
ENDMDL
MODEL 2
REMARK VINA RESULT:      -6.8      2.804      9.200
REMARK  Name = 45783274
REMARK  8 active torsions:
REMARK  status: ('A' for Active; 'I' for Inactive)
REMARK    1  A    between atoms: O_3  and  C_28
REMARK    2  A    between atoms: O_3  and  C_29
REMARK    3  A    between atoms: N_4  and  C_13
REMARK    4  A    between atoms: N_7  and  C_27
REMARK    5  A    between atoms: C_9  and  C_14
REMARK    6  A    between atoms: C_13  and  C_15
REMARK    7  A    between atoms: C_18  and  C_19
REMARK    8  A    between atoms: C_27  and  C_28
REMARK                            x       y       z     vdW  Elec       q    Type
REMARK                         _______ _______ _______ _____ _____    ______ ____
ROOT
ATOM      2  O   UNL     1      18.154   6.547  20.123  0.00  0.00    -0.336 OA
ATOM      5  N   UNL     1      16.621   8.130  20.528  0.00  0.00    -0.190 NA
ATOM      6  N   UNL     1      17.034   6.211  19.352  0.00  0.00    -0.056 NA
ATOM     14  C   UNL     1      17.826   7.689  20.784  0.00  0.00    +0.245 A 
ATOM     18  C   UNL     1      16.173   7.190  19.645  0.00  0.00    +0.202 A 
ENDROOT
BRANCH  18  19
ATOM      7  N   UNL     1      11.358   6.999  20.116  0.00  0.00    -0.327 N 
ATOM      8  N   UNL     1      12.298   7.396  17.963  0.00  0.00    -0.240 NA
ATOM     19  C   UNL     1      14.859   7.259  19.074  0.00  0.00    +0.027 A 
ATOM     23  C   UNL     1      13.739   7.093  19.880  0.00  0.00    +0.055 A 
ATOM     24  C   UNL     1      14.701   7.493  17.712  0.00  0.00    +0.031 A 
ATOM     25  C   UNL     1      12.491   7.171  19.281  0.00  0.00    +0.119 A 
ATOM     26  C   UNL     1      13.411   7.552  17.210  0.00  0.00    +0.113 A 
ATOM     30  H   UNL     1      10.452   7.062  19.666  0.00  0.00    +0.148 HD
BRANCH   7  27
ATOM     27  C   UNL     1      11.464   6.756  21.517  0.00  0.00    +0.131 C 
BRANCH  27  28
ATOM     28  C   UNL     1      10.568   7.714  22.282  0.00  0.00    +0.178 C 
BRANCH  28   3
ATOM      3  O   UNL     1      11.352   8.782  22.801  0.00  0.00    -0.381 OA
ATOM     29  C   UNL     1      11.189   9.968  22.034  0.00  0.00    +0.194 C 
ENDBRANCH  28   3
ENDBRANCH  27  28
ENDBRANCH   7  27
ENDBRANCH  18  19
BRANCH  14   9
ATOM      4  N   UNL     1      20.137   7.481  21.685  0.00  0.00    -0.287 NA
ATOM      9  C   UNL     1      18.887   8.267  21.699  0.00  0.00    +0.146 C 
ATOM     10  C   UNL     1      19.312   9.689  21.290  0.00  0.00    +0.030 C 
ATOM     11  C   UNL     1      20.825   9.619  21.128  0.00  0.00    +0.017 C 
ATOM     12  C   UNL     1      21.219   8.424  21.971  0.00  0.00    +0.085 C 
BRANCH   4  13
ATOM     13  C   UNL     1      20.123   6.363  22.618  0.00  0.00    +0.123 C 
BRANCH  13  15
ATOM      1  F   UNL     1      20.417   4.629  20.398  0.00  0.00    -0.205 F 
ATOM     15  C   UNL     1      21.314   5.461  22.431  0.00  0.00    +0.002 A 
ATOM     16  C   UNL     1      21.395   4.632  21.313  0.00  0.00    +0.128 A 
ATOM     17  C   UNL     1      22.338   5.458  23.378  0.00  0.00    +0.008 A 
ATOM     20  C   UNL     1      22.501   3.798  21.142  0.00  0.00    +0.038 A 
ATOM     21  C   UNL     1      23.443   4.624  23.207  0.00  0.00    +0.000 A 
ATOM     22  C   UNL     1      23.524   3.794  22.089  0.00  0.00    +0.003 A 
ENDBRANCH  13  15
ENDBRANCH   4  13
ENDBRANCH  14   9
TORSDOF 7
ENDMDL
MODEL 3
REMARK VINA RESULT:      -6.8     26.753     29.902
REMARK  Name = 45783274
REMARK  8 active torsions:
REMARK  status: ('A' for Active; 'I' for Inactive)
REMARK    1  A    between atoms: O_3  and  C_28
REMARK    2  A    between atoms: O_3  and  C_29
REMARK    3  A    between atoms: N_4  and  C_13
REMARK    4  A    between atoms: N_7  and  C_27
REMARK    5  A    between atoms: C_9  and  C_14
REMARK    6  A    between atoms: C_13  and  C_15
REMARK    7  A    between atoms: C_18  and  C_19
REMARK    8  A    between atoms: C_27  and  C_28
REMARK                            x       y       z     vdW  Elec       q    Type
REMARK                         _______ _______ _______ _____ _____    ______ ____
ROOT
ATOM      2  O   UNL     1      -4.640 -12.971  15.069  0.00  0.00    -0.336 OA
ATOM      5  N   UNL     1      -4.511 -11.331  16.589  0.00  0.00    -0.190 NA
ATOM      6  N   UNL     1      -5.821 -13.040  15.817  0.00  0.00    -0.056 NA
ATOM     14  C   UNL     1      -3.925 -11.938  15.589  0.00  0.00    +0.245 A 
ATOM     18  C   UNL     1      -5.671 -12.043  16.693  0.00  0.00    +0.202 A 
ENDROOT
BRANCH  18  19
ATOM      7  N   UNL     1      -9.360  -9.326  18.260  0.00  0.00    -0.327 N 
ATOM      8  N   UNL     1      -8.588 -11.126  19.616  0.00  0.00    -0.240 NA
ATOM     19  C   UNL     1      -6.659 -11.731  17.685  0.00  0.00    +0.027 A 
ATOM     23  C   UNL     1      -7.536 -10.670  17.487  0.00  0.00    +0.055 A 
ATOM     24  C   UNL     1      -6.745 -12.490  18.847  0.00  0.00    +0.031 A 
ATOM     25  C   UNL     1      -8.474 -10.411  18.474  0.00  0.00    +0.119 A 
ATOM     26  C   UNL     1      -7.718 -12.149  19.773  0.00  0.00    +0.113 A 
ATOM     30  H   UNL     1     -10.043  -9.150  18.987  0.00  0.00    +0.148 HD
BRANCH   7  27
ATOM     27  C   UNL     1      -9.313  -8.515  17.088  0.00  0.00    +0.131 C 
BRANCH  27  28
ATOM     28  C   UNL     1     -10.368  -8.973  16.095  0.00  0.00    +0.178 C 
BRANCH  28   3
ATOM      3  O   UNL     1     -10.635  -7.925  15.170  0.00  0.00    -0.381 OA
ATOM     29  C   UNL     1     -10.429  -6.648  15.759  0.00  0.00    +0.194 C 
ENDBRANCH  28   3
ENDBRANCH  27  28
ENDBRANCH   7  27
ENDBRANCH  18  19
BRANCH  14   9
ATOM      4  N   UNL     1      -2.680 -10.653  13.859  0.00  0.00    -0.287 NA
ATOM      9  C   UNL     1      -2.585 -11.652  14.943  0.00  0.00    +0.146 C 
ATOM     10  C   UNL     1      -1.563 -11.062  15.931  0.00  0.00    +0.030 C 
ATOM     11  C   UNL     1      -1.093  -9.763  15.289  0.00  0.00    +0.017 C 
ATOM     12  C   UNL     1      -1.389  -9.966  13.817  0.00  0.00    +0.085 C 
BRANCH   4  13
ATOM     13  C   UNL     1      -3.033 -11.235  12.571  0.00  0.00    +0.123 C 
BRANCH  13  15
ATOM      1  F   UNL     1      -5.585 -10.168  13.181  0.00  0.00    -0.205 F 
ATOM     15  C   UNL     1      -3.744 -10.246  11.685  0.00  0.00    +0.002 A 
ATOM     16  C   UNL     1      -5.001  -9.761  12.046  0.00  0.00    +0.128 A 
ATOM     17  C   UNL     1      -3.142  -9.815  10.503  0.00  0.00    +0.008 A 
ATOM     20  C   UNL     1      -5.657  -8.844  11.224  0.00  0.00    +0.038 A 
ATOM     21  C   UNL     1      -3.799  -8.899   9.681  0.00  0.00    +0.000 A 
ATOM     22  C   UNL     1      -5.056  -8.413  10.041  0.00  0.00    +0.003 A 
ENDBRANCH  13  15
ENDBRANCH   4  13
ENDBRANCH  14   9
TORSDOF 7
ENDMDL
MODEL 4
REMARK VINA RESULT:      -6.8      2.338      3.348
REMARK  Name = 45783274
REMARK  8 active torsions:
REMARK  status: ('A' for Active; 'I' for Inactive)
REMARK    1  A    between atoms: O_3  and  C_28
REMARK    2  A    between atoms: O_3  and  C_29
REMARK    3  A    between atoms: N_4  and  C_13
REMARK    4  A    between atoms: N_7  and  C_27
REMARK    5  A    between atoms: C_9  and  C_14
REMARK    6  A    between atoms: C_13  and  C_15
REMARK    7  A    between atoms: C_18  and  C_19
REMARK    8  A    between atoms: C_27  and  C_28
REMARK                            x       y       z     vdW  Elec       q    Type
REMARK                         _______ _______ _______ _____ _____    ______ ____
ROOT
ATOM      2  O   UNL     1      15.310   8.595  19.993  0.00  0.00    -0.336 OA
ATOM      5  N   UNL     1      16.082   6.621  19.267  0.00  0.00    -0.190 NA
ATOM      6  N   UNL     1      16.543   8.402  20.627  0.00  0.00    -0.056 NA
ATOM     14  C   UNL     1      15.114   7.500  19.211  0.00  0.00    +0.245 A 
ATOM     18  C   UNL     1      16.936   7.218  20.149  0.00  0.00    +0.202 A 
ENDROOT
BRANCH  18  19
ATOM      7  N   UNL     1      20.763   6.928  23.100  0.00  0.00    -0.327 N 
ATOM      8  N   UNL     1      20.583   5.399  21.282  0.00  0.00    -0.240 NA
ATOM     19  C   UNL     1      18.173   6.602  20.532  0.00  0.00    +0.027 A 
ATOM     23  C   UNL     1      18.872   7.070  21.639  0.00  0.00    +0.055 A 
ATOM     24  C   UNL     1      18.677   5.533  19.799  0.00  0.00    +0.031 A 
ATOM     25  C   UNL     1      20.061   6.439  21.970  0.00  0.00    +0.119 A 
ATOM     26  C   UNL     1      19.876   4.972  20.211  0.00  0.00    +0.113 A 
ATOM     30  H   UNL     1      21.629   6.457  23.333  0.00  0.00    +0.148 HD
BRANCH   7  27
ATOM     27  C   UNL     1      20.291   8.021  23.885  0.00  0.00    +0.131 C 
BRANCH  27  28
ATOM     28  C   UNL     1      20.524   7.742  25.360  0.00  0.00    +0.178 C 
BRANCH  28   3
ATOM      3  O   UNL     1      20.349   8.943  26.103  0.00  0.00    -0.381 OA
ATOM     29  C   UNL     1      19.912   8.675  27.428  0.00  0.00    +0.194 C 
ENDBRANCH  28   3
ENDBRANCH  27  28
ENDBRANCH   7  27
ENDBRANCH  18  19
BRANCH  14   9
ATOM      4  N   UNL     1      12.855   8.481  18.853  0.00  0.00    -0.287 NA
ATOM      9  C   UNL     1      13.830   7.466  18.407  0.00  0.00    +0.146 C 
ATOM     10  C   UNL     1      14.056   7.768  16.914  0.00  0.00    +0.030 C 
ATOM     11  C   UNL     1      13.120   8.927  16.598  0.00  0.00    +0.017 C 
ATOM     12  C   UNL     1      12.060   8.834  17.676  0.00  0.00    +0.085 C 
BRANCH   4  13
ATOM     13  C   UNL     1      12.023   8.031  19.961  0.00  0.00    +0.123 C 
BRANCH  13  15
ATOM      1  F   UNL     1      10.479   7.672  22.308  0.00  0.00    -0.205 F 
ATOM     15  C   UNL     1      11.717   9.148  20.922  0.00  0.00    +0.002 A 
ATOM     16  C   UNL     1      10.949   8.902  22.060  0.00  0.00    +0.128 A 
ATOM     17  C   UNL     1      12.204  10.432  20.673  0.00  0.00    +0.008 A 
ATOM     20  C   UNL     1      10.668   9.939  22.950  0.00  0.00    +0.038 A 
ATOM     21  C   UNL     1      11.921  11.469  21.562  0.00  0.00    +0.000 A 
ATOM     22  C   UNL     1      11.153  11.223  22.700  0.00  0.00    +0.003 A 
ENDBRANCH  13  15
ENDBRANCH   4  13
ENDBRANCH  14   9
TORSDOF 7
ENDMDL
MODEL 5
REMARK VINA RESULT:      -6.6     27.129     30.341
REMARK  Name = 45783274
REMARK  8 active torsions:
REMARK  status: ('A' for Active; 'I' for Inactive)
REMARK    1  A    between atoms: O_3  and  C_28
REMARK    2  A    between atoms: O_3  and  C_29
REMARK    3  A    between atoms: N_4  and  C_13
REMARK    4  A    between atoms: N_7  and  C_27
REMARK    5  A    between atoms: C_9  and  C_14
REMARK    6  A    between atoms: C_13  and  C_15
REMARK    7  A    between atoms: C_18  and  C_19
REMARK    8  A    between atoms: C_27  and  C_28
REMARK                            x       y       z     vdW  Elec       q    Type
REMARK                         _______ _______ _______ _____ _____    ______ ____
ROOT
ATOM      2  O   UNL     1      -4.127 -11.099  17.893  0.00  0.00    -0.336 OA
ATOM      5  N   UNL     1      -5.501 -10.565  16.207  0.00  0.00    -0.190 NA
ATOM      6  N   UNL     1      -5.357 -10.779  18.480  0.00  0.00    -0.056 NA
ATOM     14  C   UNL     1      -4.298 -10.947  16.553  0.00  0.00    +0.245 A 
ATOM     18  C   UNL     1      -6.115 -10.475  17.423  0.00  0.00    +0.202 A 
ENDROOT
BRANCH  18  19
ATOM      7  N   UNL     1     -10.502 -11.021  19.397  0.00  0.00    -0.327 N 
ATOM      8  N   UNL     1     -10.162  -9.298  17.788  0.00  0.00    -0.240 NA
ATOM     19  C   UNL     1      -7.488 -10.077  17.545  0.00  0.00    +0.027 A 
ATOM     23  C   UNL     1      -8.334 -10.750  18.419  0.00  0.00    +0.055 A 
ATOM     24  C   UNL     1      -7.976  -9.014  16.792  0.00  0.00    +0.031 A 
ATOM     25  C   UNL     1      -9.651 -10.324  18.503  0.00  0.00    +0.119 A 
ATOM     26  C   UNL     1      -9.308  -8.668  16.948  0.00  0.00    +0.113 A 
ATOM     30  H   UNL     1     -11.462 -10.698  19.451  0.00  0.00    +0.148 HD
BRANCH   7  27
ATOM     27  C   UNL     1     -10.054 -12.117  20.190  0.00  0.00    +0.131 C 
BRANCH  27  28
ATOM     28  C   UNL     1     -11.235 -12.973  20.612  0.00  0.00    +0.178 C 
BRANCH  28   3
ATOM      3  O   UNL     1     -12.446 -12.273  20.348  0.00  0.00    -0.381 OA
ATOM     29  C   UNL     1     -13.205 -12.081  21.534  0.00  0.00    +0.194 C 
ENDBRANCH  28   3
ENDBRANCH  27  28
ENDBRANCH   7  27
ENDBRANCH  18  19
BRANCH  14   9
ATOM      4  N   UNL     1      -3.135 -10.511  14.397  0.00  0.00    -0.287 NA
ATOM      9  C   UNL     1      -3.094 -11.238  15.682  0.00  0.00    +0.146 C 
ATOM     10  C   UNL     1      -1.769 -10.805  16.335  0.00  0.00    +0.030 C 
ATOM     11  C   UNL     1      -1.107  -9.885  15.318  0.00  0.00    +0.017 C 
ATOM     12  C   UNL     1      -1.744 -10.289  14.004  0.00  0.00    +0.085 C 
BRANCH   4  13
ATOM     13  C   UNL     1      -3.891 -11.210  13.366  0.00  0.00    +0.123 C 
BRANCH  13  15
ATOM      1  F   UNL     1      -6.014  -9.338  13.274  0.00  0.00    -0.205 F 
ATOM     15  C   UNL     1      -4.160 -10.329  12.174  0.00  0.00    +0.002 A 
ATOM     16  C   UNL     1      -5.224  -9.429  12.196  0.00  0.00    +0.128 A 
ATOM     17  C   UNL     1      -3.341 -10.416  11.048  0.00  0.00    +0.008 A 
ATOM     20  C   UNL     1      -5.470  -8.613  11.091  0.00  0.00    +0.038 A 
ATOM     21  C   UNL     1      -3.588  -9.601   9.943  0.00  0.00    +0.000 A 
ATOM     22  C   UNL     1      -4.653  -8.700   9.964  0.00  0.00    +0.003 A 
ENDBRANCH  13  15
ENDBRANCH   4  13
ENDBRANCH  14   9
TORSDOF 7
ENDMDL
MODEL 6
REMARK VINA RESULT:      -6.6      2.246      3.433
REMARK  Name = 45783274
REMARK  8 active torsions:
REMARK  status: ('A' for Active; 'I' for Inactive)
REMARK    1  A    between atoms: O_3  and  C_28
REMARK    2  A    between atoms: O_3  and  C_29
REMARK    3  A    between atoms: N_4  and  C_13
REMARK    4  A    between atoms: N_7  and  C_27
REMARK    5  A    between atoms: C_9  and  C_14
REMARK    6  A    between atoms: C_13  and  C_15
REMARK    7  A    between atoms: C_18  and  C_19
REMARK    8  A    between atoms: C_27  and  C_28
REMARK                            x       y       z     vdW  Elec       q    Type
REMARK                         _______ _______ _______ _____ _____    ______ ____
ROOT
ATOM      2  O   UNL     1      15.928   6.207  18.517  0.00  0.00    -0.336 OA
ATOM      5  N   UNL     1      16.847   7.246  20.276  0.00  0.00    -0.190 NA
ATOM      6  N   UNL     1      17.148   5.562  18.757  0.00  0.00    -0.056 NA
ATOM     14  C   UNL     1      15.829   7.186  19.456  0.00  0.00    +0.245 A 
ATOM     18  C   UNL     1      17.630   6.231  19.808  0.00  0.00    +0.202 A 
ENDROOT
BRANCH  18  19
ATOM      7  N   UNL     1      21.026   7.057  23.159  0.00  0.00    -0.327 N 
ATOM      8  N   UNL     1      21.347   5.289  21.595  0.00  0.00    -0.240 NA
ATOM     19  C   UNL     1      18.892   5.912  20.413  0.00  0.00    +0.027 A 
ATOM     23  C   UNL     1      19.349   6.647  21.501  0.00  0.00    +0.055 A 
ATOM     24  C   UNL     1      19.659   4.866  19.915  0.00  0.00    +0.031 A 
ATOM     25  C   UNL     1      20.572   6.298  22.051  0.00  0.00    +0.119 A 
ATOM     26  C   UNL     1      20.869   4.597  20.536  0.00  0.00    +0.113 A 
ATOM     30  H   UNL     1      21.920   6.790  23.554  0.00  0.00    +0.148 HD
BRANCH   7  27
ATOM     27  C   UNL     1      20.279   8.141  23.707  0.00  0.00    +0.131 C 
BRANCH  27  28
ATOM     28  C   UNL     1      21.032   8.756  24.874  0.00  0.00    +0.178 C 
BRANCH  28   3
ATOM      3  O   UNL     1      20.255   8.628  26.059  0.00  0.00    -0.381 OA
ATOM     29  C   UNL     1      20.284   7.297  26.559  0.00  0.00    +0.194 C 
ENDBRANCH  28   3
ENDBRANCH  27  28
ENDBRANCH   7  27
ENDBRANCH  18  19
BRANCH  14   9
ATOM      4  N   UNL     1      14.680   9.239  20.268  0.00  0.00    -0.287 NA
ATOM      9  C   UNL     1      14.579   8.040  19.411  0.00  0.00    +0.146 C 
ATOM     10  C   UNL     1      14.284   8.588  18.003  0.00  0.00    +0.030 C 
ATOM     11  C   UNL     1      14.176  10.097  18.178  0.00  0.00    +0.017 C 
ATOM     12  C   UNL     1      13.839  10.261  19.646  0.00  0.00    +0.085 C 
BRANCH   4  13
ATOM     13  C   UNL     1      14.306   8.987  21.653  0.00  0.00    +0.123 C 
BRANCH  13  15
ATOM      1  F   UNL     1      12.095  10.529  22.522  0.00  0.00    -0.205 F 
ATOM     15  C   UNL     1      12.910   8.434  21.764  0.00  0.00    +0.002 A 
ATOM     16  C   UNL     1      11.866   9.249  22.199  0.00  0.00    +0.128 A 
ATOM     17  C   UNL     1      12.662   7.102  21.429  0.00  0.00    +0.008 A 
ATOM     20  C   UNL     1      10.574   8.734  22.301  0.00  0.00    +0.038 A 
ATOM     21  C   UNL     1      11.370   6.586  21.531  0.00  0.00    +0.000 A 
ATOM     22  C   UNL     1      10.326   7.402  21.967  0.00  0.00    +0.003 A 
ENDBRANCH  13  15
ENDBRANCH   4  13
ENDBRANCH  14   9
TORSDOF 7
ENDMDL
MODEL 7
REMARK VINA RESULT:      -6.5      2.540      4.674
REMARK  Name = 45783274
REMARK  8 active torsions:
REMARK  status: ('A' for Active; 'I' for Inactive)
REMARK    1  A    between atoms: O_3  and  C_28
REMARK    2  A    between atoms: O_3  and  C_29
REMARK    3  A    between atoms: N_4  and  C_13
REMARK    4  A    between atoms: N_7  and  C_27
REMARK    5  A    between atoms: C_9  and  C_14
REMARK    6  A    between atoms: C_13  and  C_15
REMARK    7  A    between atoms: C_18  and  C_19
REMARK    8  A    between atoms: C_27  and  C_28
REMARK                            x       y       z     vdW  Elec       q    Type
REMARK                         _______ _______ _______ _____ _____    ______ ____
ROOT
ATOM      2  O   UNL     1      16.792  11.152  22.458  0.00  0.00    -0.336 OA
ATOM      5  N   UNL     1      15.074   9.997  21.600  0.00  0.00    -0.190 NA
ATOM      6  N   UNL     1      17.355  10.078  21.758  0.00  0.00    -0.056 NA
ATOM     14  C   UNL     1      15.445  11.029  22.314  0.00  0.00    +0.245 A 
ATOM     18  C   UNL     1      16.280   9.444  21.281  0.00  0.00    +0.202 A 
ENDROOT
BRANCH  18  19
ATOM      7  N   UNL     1      18.757   5.563  19.781  0.00  0.00    -0.327 N 
ATOM      8  N   UNL     1      16.560   5.934  18.936  0.00  0.00    -0.240 NA
ATOM     19  C   UNL     1      16.376   8.254  20.485  0.00  0.00    +0.027 A 
ATOM     23  C   UNL     1      17.531   7.481  20.521  0.00  0.00    +0.055 A 
ATOM     24  C   UNL     1      15.312   7.869  19.676  0.00  0.00    +0.031 A 
ATOM     25  C   UNL     1      17.572   6.340  19.735  0.00  0.00    +0.119 A 
ATOM     26  C   UNL     1      15.453   6.711  18.927  0.00  0.00    +0.113 A 
ATOM     30  H   UNL     1      18.773   4.730  19.204  0.00  0.00    +0.148 HD
BRANCH   7  27
ATOM     27  C   UNL     1      19.876   5.914  20.591  0.00  0.00    +0.131 C 
BRANCH  27  28
ATOM     28  C   UNL     1      20.888   4.780  20.601  0.00  0.00    +0.178 C 
BRANCH  28   3
ATOM      3  O   UNL     1      21.632   4.820  21.813  0.00  0.00    -0.381 OA
ATOM     29  C   UNL     1      21.231   5.909  22.634  0.00  0.00    +0.194 C 
ENDBRANCH  28   3
ENDBRANCH  27  28
ENDBRANCH   7  27
ENDBRANCH  18  19
BRANCH  14   9
ATOM      4  N   UNL     1      13.242  11.599  23.323  0.00  0.00    -0.287 NA
ATOM      9  C   UNL     1      14.596  12.087  22.989  0.00  0.00    +0.146 C 
ATOM     10  C   UNL     1      15.186  12.556  24.331  0.00  0.00    +0.030 C 
ATOM     11  C   UNL     1      14.071  12.351  25.348  0.00  0.00    +0.017 C 
ATOM     12  C   UNL     1      12.814  12.349  24.503  0.00  0.00    +0.085 C 
BRANCH   4  13
ATOM     13  C   UNL     1      12.298  11.725  22.220  0.00  0.00    +0.123 C 
BRANCH  13  15
ATOM      1  F   UNL     1      10.857  10.006  23.949  0.00  0.00    -0.205 F 
ATOM     15  C   UNL     1      11.760  10.387  21.788  0.00  0.00    +0.002 A 
ATOM     16  C   UNL     1      11.058   9.590  22.692  0.00  0.00    +0.128 A 
ATOM     17  C   UNL     1      11.963   9.946  20.480  0.00  0.00    +0.008 A 
ATOM     20  C   UNL     1      10.559   8.351  22.288  0.00  0.00    +0.038 A 
ATOM     21  C   UNL     1      11.465   8.707  20.077  0.00  0.00    +0.000 A 
ATOM     22  C   UNL     1      10.763   7.910  20.981  0.00  0.00    +0.003 A 
ENDBRANCH  13  15
ENDBRANCH   4  13
ENDBRANCH  14   9
TORSDOF 7
ENDMDL
MODEL 8
REMARK VINA RESULT:      -6.4     27.158     30.546
REMARK  Name = 45783274
REMARK  8 active torsions:
REMARK  status: ('A' for Active; 'I' for Inactive)
REMARK    1  A    between atoms: O_3  and  C_28
REMARK    2  A    between atoms: O_3  and  C_29
REMARK    3  A    between atoms: N_4  and  C_13
REMARK    4  A    between atoms: N_7  and  C_27
REMARK    5  A    between atoms: C_9  and  C_14
REMARK    6  A    between atoms: C_13  and  C_15
REMARK    7  A    between atoms: C_18  and  C_19
REMARK    8  A    between atoms: C_27  and  C_28
REMARK                            x       y       z     vdW  Elec       q    Type
REMARK                         _______ _______ _______ _____ _____    ______ ____
ROOT
ATOM      2  O   UNL     1      -5.448  -9.528  15.872  0.00  0.00    -0.336 OA
ATOM      5  N   UNL     1      -5.925 -11.354  17.079  0.00  0.00    -0.190 NA
ATOM      6  N   UNL     1      -6.678  -9.274  16.492  0.00  0.00    -0.056 NA
ATOM     14  C   UNL     1      -5.075 -10.773  16.271  0.00  0.00    +0.245 A 
ATOM     18  C   UNL     1      -6.892 -10.396  17.186  0.00  0.00    +0.202 A 
ENDROOT
BRANCH  18  19
ATOM      7  N   UNL     1     -11.505  -9.376  18.242  0.00  0.00    -0.327 N 
ATOM      8  N   UNL     1     -10.341 -10.979  19.564  0.00  0.00    -0.240 NA
ATOM     19  C   UNL     1      -8.061 -10.593  17.993  0.00  0.00    +0.027 A 
ATOM     23  C   UNL     1      -9.224  -9.881  17.722  0.00  0.00    +0.055 A 
ATOM     24  C   UNL     1      -8.035 -11.498  19.049  0.00  0.00    +0.031 A 
ATOM     25  C   UNL     1     -10.327 -10.109  18.530  0.00  0.00    +0.119 A 
ATOM     26  C   UNL     1      -9.191 -11.653  19.798  0.00  0.00    +0.113 A 
ATOM     30  H   UNL     1     -12.305  -9.554  18.839  0.00  0.00    +0.148 HD
BRANCH   7  27
ATOM     27  C   UNL     1     -11.584  -8.435  17.174  0.00  0.00    +0.131 C 
BRANCH  27  28
ATOM     28  C   UNL     1     -12.992  -8.413  16.603  0.00  0.00    +0.178 C 
BRANCH  28   3
ATOM      3  O   UNL     1     -13.141  -7.280  15.755  0.00  0.00    -0.381 OA
ATOM     29  C   UNL     1     -11.929  -6.975  15.077  0.00  0.00    +0.194 C 
ENDBRANCH  28   3
ENDBRANCH  27  28
ENDBRANCH   7  27
ENDBRANCH  18  19
BRANCH  14   9
ATOM      4  N   UNL     1      -3.374 -10.642  14.459  0.00  0.00    -0.287 NA
ATOM      9  C   UNL     1      -3.758 -11.289  15.730  0.00  0.00    +0.146 C 
ATOM     10  C   UNL     1      -2.578 -11.017  16.680  0.00  0.00    +0.030 C 
ATOM     11  C   UNL     1      -1.555 -10.266  15.839  0.00  0.00    +0.017 C 
ATOM     12  C   UNL     1      -1.912 -10.650  14.417  0.00  0.00    +0.085 C 
BRANCH   4  13
ATOM     13  C   UNL     1      -3.960 -11.282  13.289  0.00  0.00    +0.123 C 
BRANCH  13  15
ATOM      1  F   UNL     1      -2.268 -10.634  11.111  0.00  0.00    -0.205 F 
ATOM     15  C   UNL     1      -4.332 -10.280  12.229  0.00  0.00    +0.002 A 
ATOM     16  C   UNL     1      -3.450 -10.008  11.183  0.00  0.00    +0.128 A 
ATOM     17  C   UNL     1      -5.561  -9.624  12.294  0.00  0.00    +0.008 A 
ATOM     20  C   UNL     1      -3.798  -9.079  10.201  0.00  0.00    +0.038 A 
ATOM     21  C   UNL     1      -5.908  -8.694  11.313  0.00  0.00    +0.000 A 
ATOM     22  C   UNL     1      -5.027  -8.422  10.267  0.00  0.00    +0.003 A 
ENDBRANCH  13  15
ENDBRANCH   4  13
ENDBRANCH  14   9
TORSDOF 7
ENDMDL
MODEL 9
REMARK VINA RESULT:      -6.3      3.812     10.350
REMARK  Name = 45783274
REMARK  8 active torsions:
REMARK  status: ('A' for Active; 'I' for Inactive)
REMARK    1  A    between atoms: O_3  and  C_28
REMARK    2  A    between atoms: O_3  and  C_29
REMARK    3  A    between atoms: N_4  and  C_13
REMARK    4  A    between atoms: N_7  and  C_27
REMARK    5  A    between atoms: C_9  and  C_14
REMARK    6  A    between atoms: C_13  and  C_15
REMARK    7  A    between atoms: C_18  and  C_19
REMARK    8  A    between atoms: C_27  and  C_28
REMARK                            x       y       z     vdW  Elec       q    Type
REMARK                         _______ _______ _______ _____ _____    ______ ____
ROOT
ATOM      2  O   UNL     1      20.304   8.111  23.277  0.00  0.00    -0.336 OA
ATOM      5  N   UNL     1      20.244   6.199  22.111  0.00  0.00    -0.190 NA
ATOM      6  N   UNL     1      19.160   8.182  22.472  0.00  0.00    -0.056 NA
ATOM     14  C   UNL     1      20.884   6.913  23.003  0.00  0.00    +0.245 A 
ATOM     18  C   UNL     1      19.194   7.019  21.814  0.00  0.00    +0.202 A 
ENDROOT
BRANCH  18  19
ATOM      7  N   UNL     1      14.593   7.005  20.307  0.00  0.00    -0.327 N 
ATOM      8  N   UNL     1      16.251   5.923  18.981  0.00  0.00    -0.240 NA
ATOM     19  C   UNL     1      18.195   6.646  20.854  0.00  0.00    +0.027 A 
ATOM     23  C   UNL     1      16.868   7.010  21.050  0.00  0.00    +0.055 A 
ATOM     24  C   UNL     1      18.552   5.922  19.722  0.00  0.00    +0.031 A 
ATOM     25  C   UNL     1      15.942   6.628  20.092  0.00  0.00    +0.119 A 
ATOM     26  C   UNL     1      17.551   5.587  18.824  0.00  0.00    +0.113 A 
ATOM     30  H   UNL     1      13.927   6.722  19.597  0.00  0.00    +0.148 HD
BRANCH   7  27
ATOM     27  C   UNL     1      14.173   7.746  21.450  0.00  0.00    +0.131 C 
BRANCH  27  28
ATOM     28  C   UNL     1      12.712   7.459  21.750  0.00  0.00    +0.178 C 
BRANCH  28   3
ATOM      3  O   UNL     1      12.079   8.649  22.204  0.00  0.00    -0.381 OA
ATOM     29  C   UNL     1      10.725   8.412  22.566  0.00  0.00    +0.194 C 
ENDBRANCH  28   3
ENDBRANCH  27  28
ENDBRANCH   7  27
ENDBRANCH  18  19
BRANCH  14   9
ATOM      4  N   UNL     1      22.910   5.475  23.149  0.00  0.00    -0.287 NA
ATOM      9  C   UNL     1      22.157   6.591  23.757  0.00  0.00    +0.146 C 
ATOM     10  C   UNL     1      23.149   7.767  23.778  0.00  0.00    +0.030 C 
ATOM     11  C   UNL     1      24.449   7.202  23.220  0.00  0.00    +0.017 C 
ATOM     12  C   UNL     1      24.320   5.711  23.460  0.00  0.00    +0.085 C 
BRANCH   4  13
ATOM     13  C   UNL     1      22.460   4.165  23.602  0.00  0.00    +0.123 C 
BRANCH  13  15
ATOM      1  F   UNL     1      23.852   2.049  24.871  0.00  0.00    -0.205 F 
ATOM     15  C   UNL     1      23.129   3.050  22.844  0.00  0.00    +0.002 A 
ATOM     16  C   UNL     1      23.798   2.038  23.532  0.00  0.00    +0.128 A 
ATOM     17  C   UNL     1      23.077   3.029  21.450  0.00  0.00    +0.008 A 
ATOM     20  C   UNL     1      24.416   1.005  22.826  0.00  0.00    +0.038 A 
ATOM     21  C   UNL     1      23.696   1.997  20.744  0.00  0.00    +0.000 A 
ATOM     22  C   UNL     1      24.366   0.985  21.433  0.00  0.00    +0.003 A 
ENDBRANCH  13  15
ENDBRANCH   4  13
ENDBRANCH  14   9
TORSDOF 7
ENDMDL
MODEL 10
REMARK VINA RESULT:      -6.3      4.461      7.674
REMARK  Name = 45783274
REMARK  8 active torsions:
REMARK  status: ('A' for Active; 'I' for Inactive)
REMARK    1  A    between atoms: O_3  and  C_28
REMARK    2  A    between atoms: O_3  and  C_29
REMARK    3  A    between atoms: N_4  and  C_13
REMARK    4  A    between atoms: N_7  and  C_27
REMARK    5  A    between atoms: C_9  and  C_14
REMARK    6  A    between atoms: C_13  and  C_15
REMARK    7  A    between atoms: C_18  and  C_19
REMARK    8  A    between atoms: C_27  and  C_28
REMARK                            x       y       z     vdW  Elec       q    Type
REMARK                         _______ _______ _______ _____ _____    ______ ____
ROOT
ATOM      2  O   UNL     1      14.137  10.256  18.466  0.00  0.00    -0.336 OA
ATOM      5  N   UNL     1      13.791   9.551  16.368  0.00  0.00    -0.190 NA
ATOM      6  N   UNL     1      14.782  11.179  17.634  0.00  0.00    -0.056 NA
ATOM     14  C   UNL     1      13.580   9.330  17.641  0.00  0.00    +0.245 A 
ATOM     18  C   UNL     1      14.533  10.696  16.414  0.00  0.00    +0.202 A 
ENDROOT
BRANCH  18  19
ATOM      7  N   UNL     1      18.179  12.021  13.517  0.00  0.00    -0.327 N 
ATOM      8  N   UNL     1      15.946  12.563  12.890  0.00  0.00    -0.240 NA
ATOM     19  C   UNL     1      15.012  11.330  15.219  0.00  0.00    +0.027 A 
ATOM     23  C   UNL     1      16.375  11.367  14.948  0.00  0.00    +0.055 A 
ATOM     24  C   UNL     1      14.115  11.908  14.329  0.00  0.00    +0.031 A 
ATOM     25  C   UNL     1      16.787  11.990  13.779  0.00  0.00    +0.119 A 
ATOM     26  C   UNL     1      14.628  12.507  13.189  0.00  0.00    +0.113 A 
ATOM     30  H   UNL     1      18.467  12.476  12.658  0.00  0.00    +0.148 HD
BRANCH   7  27
ATOM     27  C   UNL     1      19.142  11.445  14.397  0.00  0.00    +0.131 C 
BRANCH  27  28
ATOM     28  C   UNL     1      19.950  12.539  15.072  0.00  0.00    +0.178 C 
BRANCH  28   3
ATOM      3  O   UNL     1      20.163  12.197  16.437  0.00  0.00    -0.381 OA
ATOM     29  C   UNL     1      19.239  12.861  17.289  0.00  0.00    +0.194 C 
ENDBRANCH  28   3
ENDBRANCH  27  28
ENDBRANCH   7  27
ENDBRANCH  18  19
BRANCH  14   9
ATOM      4  N   UNL     1      13.451   7.749  19.558  0.00  0.00    -0.287 NA
ATOM      9  C   UNL     1      12.813   8.207  18.307  0.00  0.00    +0.146 C 
ATOM     10  C   UNL     1      11.390   8.624  18.722  0.00  0.00    +0.030 C 
ATOM     11  C   UNL     1      11.301   8.306  20.209  0.00  0.00    +0.017 C 
ATOM     12  C   UNL     1      12.372   7.254  20.413  0.00  0.00    +0.085 C 
BRANCH   4  13
ATOM     13  C   UNL     1      14.483   6.744  19.341  0.00  0.00    +0.123 C 
BRANCH  13  15
ATOM      1  F   UNL     1      16.915   5.373  18.865  0.00  0.00    -0.205 F 
ATOM     15  C   UNL     1      15.786   7.131  19.990  0.00  0.00    +0.002 A 
ATOM     16  C   UNL     1      16.947   6.411  19.711  0.00  0.00    +0.128 A 
ATOM     17  C   UNL     1      15.829   8.212  20.871  0.00  0.00    +0.008 A 
ATOM     20  C   UNL     1      18.153   6.772  20.313  0.00  0.00    +0.038 A 
ATOM     21  C   UNL     1      17.034   8.572  21.474  0.00  0.00    +0.000 A 
ATOM     22  C   UNL     1      18.196   7.852  21.195  0.00  0.00    +0.003 A 
ENDBRANCH  13  15
ENDBRANCH   4  13
ENDBRANCH  14   9
TORSDOF 7
ENDMDL
