MODEL 1
REMARK VINA RESULT:      -7.2      0.000      0.000
REMARK  Name = 40777224
REMARK  6 active torsions:
REMARK  status: ('A' for Active; 'I' for Inactive)
REMARK    1  A    between atoms: N_5  and  C_15
REMARK    2  A    between atoms: N_6  and  C_16
REMARK    3  A    between atoms: N_7  and  C_22
REMARK    4  A    between atoms: C_9  and  C_15
REMARK    5  A    between atoms: C_10  and  C_16
REMARK    6  A    between atoms: C_21  and  C_23
REMARK                            x       y       z     vdW  Elec       q    Type
REMARK                         _______ _______ _______ _____ _____    ______ ____
ROOT
ATOM      4  N   UNL     1      12.352   8.398  21.906  0.00  0.00    -0.298 NA
ATOM      8  C   UNL     1      12.717   7.026  19.727  0.00  0.00    -0.003 C 
ATOM      9  C   UNL     1      14.025   7.118  20.546  0.00  0.00    +0.020 C 
ATOM     10  C   UNL     1      11.872   9.174  20.729  0.00  0.00    +0.074 C 
ATOM     11  C   UNL     1      12.213   8.446  19.409  0.00  0.00    +0.024 C 
ATOM     12  C   UNL     1      13.787   8.060  21.748  0.00  0.00    +0.089 C 
ATOM     13  C   UNL     1      11.666   6.361  20.635  0.00  0.00    +0.019 C 
ATOM     14  C   UNL     1      11.582   7.132  21.964  0.00  0.00    +0.085 C 
ENDROOT
BRANCH   9  15
ATOM     15  C   UNL     1      15.226   7.558  19.715  0.00  0.00    +0.089 C 
BRANCH  15   5
ATOM      5  N   UNL     1      16.434   6.913  20.230  0.00  0.00    -0.299 NA
ATOM      7  N   UNL     1      19.236   6.390  20.412  0.00  0.00    -0.327 N 
ATOM     17  C   UNL     1      17.339   7.909  20.817  0.00  0.00    +0.103 C 
ATOM     18  C   UNL     1      17.123   6.181  19.160  0.00  0.00    +0.103 C 
ATOM     19  C   UNL     1      18.581   7.240  21.411  0.00  0.00    +0.120 C 
ATOM     20  C   UNL     1      18.357   5.454  19.700  0.00  0.00    +0.120 C 
BRANCH   7  22
ATOM     22  C   UNL     1      20.579   6.035  20.575  0.00  0.00    +0.030 A 
ATOM     24  C   UNL     1      20.934   4.692  20.708  0.00  0.00    +0.023 A 
ATOM     25  C   UNL     1      21.564   7.022  20.602  0.00  0.00    +0.023 A 
ATOM     28  C   UNL     1      22.274   4.338  20.868  0.00  0.00    +0.002 A 
ATOM     29  C   UNL     1      22.904   6.667  20.762  0.00  0.00    +0.002 A 
ATOM     30  C   UNL     1      23.259   5.325  20.895  0.00  0.00    +0.000 A 
ENDBRANCH   7  22
ENDBRANCH  15   5
ENDBRANCH   9  15
BRANCH  10  16
ATOM     16  C   UNL     1      12.384  10.616  20.732  0.00  0.00    +0.123 C 
BRANCH  16   6
ATOM      1  O   UNL     1      15.202  11.051  20.392  0.00  0.00    -0.270 OA
ATOM      6  N   UNL     1      13.086  10.881  19.466  0.00  0.00    -0.310 N 
ATOM     21  C   UNL     1      14.444  11.074  19.426  0.00  0.00    +0.244 C 
ATOM     35  H   UNL     1      12.509  10.980  18.638  0.00  0.00    +0.149 HD
BRANCH  21  23
ATOM      2  O   UNL     1      14.687  10.402  14.547  0.00  0.00    -0.453 OA
ATOM      3  O   UNL     1      16.433  12.043  14.293  0.00  0.00    -0.453 OA
ATOM     23  C   UNL     1      14.997  11.356  18.076  0.00  0.00    +0.040 A 
ATOM     26  C   UNL     1      14.499  10.670  16.966  0.00  0.00    +0.062 A 
ATOM     27  C   UNL     1      16.015  12.313  17.927  0.00  0.00    +0.017 A 
ATOM     31  C   UNL     1      15.042  10.966  15.733  0.00  0.00    +0.167 A 
ATOM     32  C   UNL     1      16.549  12.596  16.668  0.00  0.00    +0.050 A 
ATOM     33  C   UNL     1      16.040  11.904  15.588  0.00  0.00    +0.166 A 
ATOM     34  C   UNL     1      15.571  11.090  13.639  0.00  0.00    +0.466 C 
ENDBRANCH  21  23
ENDBRANCH  16   6
ENDBRANCH  10  16
TORSDOF 6
ENDMDL
MODEL 2
REMARK VINA RESULT:      -7.2     14.922     18.933
REMARK  Name = 40777224
REMARK  6 active torsions:
REMARK  status: ('A' for Active; 'I' for Inactive)
REMARK    1  A    between atoms: N_5  and  C_15
REMARK    2  A    between atoms: N_6  and  C_16
REMARK    3  A    between atoms: N_7  and  C_22
REMARK    4  A    between atoms: C_9  and  C_15
REMARK    5  A    between atoms: C_10  and  C_16
REMARK    6  A    between atoms: C_21  and  C_23
REMARK                            x       y       z     vdW  Elec       q    Type
REMARK                         _______ _______ _______ _____ _____    ______ ____
ROOT
ATOM      4  N   UNL     1      10.016   6.677   7.397  0.00  0.00    -0.298 NA
ATOM      8  C   UNL     1       9.719   5.120   5.334  0.00  0.00    -0.003 C 
ATOM      9  C   UNL     1      11.058   5.887   5.258  0.00  0.00    +0.020 C 
ATOM     10  C   UNL     1       8.698   6.932   6.752  0.00  0.00    +0.074 C 
ATOM     11  C   UNL     1       8.559   6.128   5.440  0.00  0.00    +0.024 C 
ATOM     12  C   UNL     1      11.114   6.897   6.426  0.00  0.00    +0.089 C 
ATOM     13  C   UNL     1       9.740   4.311   6.645  0.00  0.00    +0.019 C 
ATOM     14  C   UNL     1      10.051   5.256   7.820  0.00  0.00    +0.085 C 
ENDROOT
BRANCH   9  15
ATOM     15  C   UNL     1      11.285   6.570   3.912  0.00  0.00    +0.089 C 
BRANCH  15   5
ATOM      5  N   UNL     1      11.106   5.593   2.838  0.00  0.00    -0.299 NA
ATOM      7  N   UNL     1      11.281   4.590   0.169  0.00  0.00    -0.327 N 
ATOM     17  C   UNL     1      12.405   5.204   2.274  0.00  0.00    +0.103 C 
ATOM     18  C   UNL     1      10.246   6.141   1.782  0.00  0.00    +0.103 C 
ATOM     19  C   UNL     1      12.235   4.140   1.187  0.00  0.00    +0.120 C 
ATOM     20  C   UNL     1      10.004   5.107   0.679  0.00  0.00    +0.120 C 
BRANCH   7  22
ATOM     22  C   UNL     1      11.291   4.003  -1.101  0.00  0.00    +0.030 A 
ATOM     24  C   UNL     1      12.237   3.025  -1.410  0.00  0.00    +0.023 A 
ATOM     25  C   UNL     1      10.356   4.394  -2.058  0.00  0.00    +0.023 A 
ATOM     28  C   UNL     1      12.245   2.438  -2.675  0.00  0.00    +0.002 A 
ATOM     29  C   UNL     1      10.364   3.807  -3.323  0.00  0.00    +0.002 A 
ATOM     30  C   UNL     1      11.309   2.829  -3.632  0.00  0.00    +0.000 A 
ENDBRANCH   7  22
ENDBRANCH  15   5
ENDBRANCH   9  15
BRANCH  10  16
ATOM     16  C   UNL     1       8.432   8.423   6.536  0.00  0.00    +0.123 C 
BRANCH  16   6
ATOM      1  O   UNL     1       7.873  10.910   5.214  0.00  0.00    -0.270 OA
ATOM      6  N   UNL     1       7.683   8.603   5.283  0.00  0.00    -0.310 N 
ATOM     21  C   UNL     1       7.478   9.847   4.743  0.00  0.00    +0.244 C 
ATOM     35  H   UNL     1       7.270   7.771   4.877  0.00  0.00    +0.149 HD
BRANCH  21  23
ATOM      2  O   UNL     1       3.350  10.653   2.167  0.00  0.00    -0.453 OA
ATOM      3  O   UNL     1       4.369   9.952   0.099  0.00  0.00    -0.453 OA
ATOM     23  C   UNL     1       6.680   9.862   3.489  0.00  0.00    +0.040 A 
ATOM     26  C   UNL     1       5.349  10.282   3.519  0.00  0.00    +0.062 A 
ATOM     27  C   UNL     1       7.274   9.453   2.282  0.00  0.00    +0.017 A 
ATOM     31  C   UNL     1       4.648  10.280   2.330  0.00  0.00    +0.167 A 
ATOM     32  C   UNL     1       6.544   9.460   1.092  0.00  0.00    +0.050 A 
ATOM     33  C   UNL     1       5.231   9.880   1.149  0.00  0.00    +0.166 A 
ATOM     34  C   UNL     1       3.181  10.444   0.750  0.00  0.00    +0.466 C 
ENDBRANCH  21  23
ENDBRANCH  16   6
ENDBRANCH  10  16
TORSDOF 6
ENDMDL
MODEL 3
REMARK VINA RESULT:      -7.1     28.119     32.959
REMARK  Name = 40777224
REMARK  6 active torsions:
REMARK  status: ('A' for Active; 'I' for Inactive)
REMARK    1  A    between atoms: N_5  and  C_15
REMARK    2  A    between atoms: N_6  and  C_16
REMARK    3  A    between atoms: N_7  and  C_22
REMARK    4  A    between atoms: C_9  and  C_15
REMARK    5  A    between atoms: C_10  and  C_16
REMARK    6  A    between atoms: C_21  and  C_23
REMARK                            x       y       z     vdW  Elec       q    Type
REMARK                         _______ _______ _______ _____ _____    ______ ____
ROOT
ATOM      4  N   UNL     1     -18.443   2.543  23.921  0.00  0.00    -0.298 NA
ATOM      8  C   UNL     1     -17.509   4.799  24.818  0.00  0.00    -0.003 C 
ATOM      9  C   UNL     1     -16.737   4.344  23.560  0.00  0.00    +0.020 C 
ATOM     10  C   UNL     1     -18.123   2.422  25.370  0.00  0.00    +0.074 C 
ATOM     11  C   UNL     1     -17.428   3.699  25.893  0.00  0.00    +0.024 C 
ATOM     12  C   UNL     1     -17.234   2.937  23.158  0.00  0.00    +0.089 C 
ATOM     13  C   UNL     1     -18.990   4.931  24.412  0.00  0.00    +0.019 C 
ATOM     14  C   UNL     1     -19.457   3.615  23.766  0.00  0.00    +0.085 C 
ENDROOT
BRANCH   9  15
ATOM     15  C   UNL     1     -15.222   4.375  23.740  0.00  0.00    +0.089 C 
BRANCH  15   5
ATOM      5  N   UNL     1     -14.622   5.161  22.661  0.00  0.00    -0.299 NA
ATOM      7  N   UNL     1     -13.038   7.249  21.526  0.00  0.00    -0.327 N 
ATOM     17  C   UNL     1     -13.157   5.108  22.739  0.00  0.00    +0.103 C 
ATOM     18  C   UNL     1     -15.076   6.555  22.727  0.00  0.00    +0.103 C 
ATOM     19  C   UNL     1     -12.517   5.880  21.583  0.00  0.00    +0.120 C 
ATOM     20  C   UNL     1     -14.501   7.375  21.569  0.00  0.00    +0.120 C 
BRANCH   7  22
ATOM     22  C   UNL     1     -12.313   8.242  20.858  0.00  0.00    +0.030 A 
ATOM     24  C   UNL     1     -12.607   9.588  21.079  0.00  0.00    +0.023 A 
ATOM     25  C   UNL     1     -11.296   7.887  19.973  0.00  0.00    +0.023 A 
ATOM     28  C   UNL     1     -11.882  10.577  20.414  0.00  0.00    +0.002 A 
ATOM     29  C   UNL     1     -10.571   8.876  19.309  0.00  0.00    +0.002 A 
ATOM     30  C   UNL     1     -10.864  10.222  19.529  0.00  0.00    +0.000 A 
ENDBRANCH   7  22
ENDBRANCH  15   5
ENDBRANCH   9  15
BRANCH  10  16
ATOM     16  C   UNL     1     -17.310   1.163  25.684  0.00  0.00    +0.123 C 
BRANCH  16   6
ATOM      1  O   UNL     1     -17.682   0.266  28.387  0.00  0.00    -0.270 OA
ATOM      6  N   UNL     1     -16.427   1.433  26.829  0.00  0.00    -0.310 N 
ATOM     21  C   UNL     1     -16.709   0.949  28.081  0.00  0.00    +0.244 C 
ATOM     35  H   UNL     1     -15.639   2.049  26.660  0.00  0.00    +0.149 HD
BRANCH  21  23
ATOM      2  O   UNL     1     -14.753   4.106  31.327  0.00  0.00    -0.453 OA
ATOM      3  O   UNL     1     -13.097   2.512  32.052  0.00  0.00    -0.453 OA
ATOM     23  C   UNL     1     -15.732   1.331  29.135  0.00  0.00    +0.040 A 
ATOM     26  C   UNL     1     -15.783   2.609  29.696  0.00  0.00    +0.062 A 
ATOM     27  C   UNL     1     -14.766   0.402  29.558  0.00  0.00    +0.017 A 
ATOM     31  C   UNL     1     -14.857   2.918  30.671  0.00  0.00    +0.167 A 
ATOM     32  C   UNL     1     -13.840   0.739  30.547  0.00  0.00    +0.050 A 
ATOM     33  C   UNL     1     -13.911   2.007  31.085  0.00  0.00    +0.166 A 
ATOM     34  C   UNL     1     -13.637   3.841  32.201  0.00  0.00    +0.466 C 
ENDBRANCH  21  23
ENDBRANCH  16   6
ENDBRANCH  10  16
TORSDOF 6
ENDMDL
MODEL 4
REMARK VINA RESULT:      -7.0     27.583     31.778
REMARK  Name = 40777224
REMARK  6 active torsions:
REMARK  status: ('A' for Active; 'I' for Inactive)
REMARK    1  A    between atoms: N_5  and  C_15
REMARK    2  A    between atoms: N_6  and  C_16
REMARK    3  A    between atoms: N_7  and  C_22
REMARK    4  A    between atoms: C_9  and  C_15
REMARK    5  A    between atoms: C_10  and  C_16
REMARK    6  A    between atoms: C_21  and  C_23
REMARK                            x       y       z     vdW  Elec       q    Type
REMARK                         _______ _______ _______ _____ _____    ______ ____
ROOT
ATOM      4  N   UNL     1      -9.001 -11.180  16.502  0.00  0.00    -0.298 NA
ATOM      8  C   UNL     1     -10.851 -11.064  18.326  0.00  0.00    -0.003 C 
ATOM      9  C   UNL     1     -11.258 -10.252  17.076  0.00  0.00    +0.020 C 
ATOM     10  C   UNL     1      -8.409 -10.755  17.800  0.00  0.00    +0.074 C 
ATOM     11  C   UNL     1      -9.508 -10.534  18.864  0.00  0.00    +0.024 C 
ATOM     12  C   UNL     1     -10.068 -10.237  16.090  0.00  0.00    +0.089 C 
ATOM     13  C   UNL     1     -10.616 -12.514  17.862  0.00  0.00    +0.019 C 
ATOM     14  C   UNL     1      -9.614 -12.517  16.694  0.00  0.00    +0.085 C 
ENDROOT
BRANCH   9  15
ATOM     15  C   UNL     1     -11.736  -8.840  17.403  0.00  0.00    +0.089 C 
BRANCH  15   5
ATOM      5  N   UNL     1     -11.824  -8.061  16.169  0.00  0.00    -0.299 NA
ATOM      7  N   UNL     1     -12.762  -5.965  14.469  0.00  0.00    -0.327 N 
ATOM     17  C   UNL     1     -11.414  -6.671  16.406  0.00  0.00    +0.103 C 
ATOM     18  C   UNL     1     -13.192  -8.094  15.636  0.00  0.00    +0.103 C 
ATOM     19  C   UNL     1     -11.448  -5.859  15.110  0.00  0.00    +0.120 C 
ATOM     20  C   UNL     1     -13.284  -7.329  14.313  0.00  0.00    +0.120 C 
BRANCH   7  22
ATOM     22  C   UNL     1     -13.162  -4.999  13.540  0.00  0.00    +0.030 A 
ATOM     24  C   UNL     1     -12.210  -4.355  12.748  0.00  0.00    +0.023 A 
ATOM     25  C   UNL     1     -14.513  -4.679  13.404  0.00  0.00    +0.023 A 
ATOM     28  C   UNL     1     -12.611  -3.394  11.821  0.00  0.00    +0.002 A 
ATOM     29  C   UNL     1     -14.913  -3.718  12.476  0.00  0.00    +0.002 A 
ATOM     30  C   UNL     1     -13.961  -3.074  11.684  0.00  0.00    +0.000 A 
ENDBRANCH   7  22
ENDBRANCH  15   5
ENDBRANCH   9  15
BRANCH  10  16
ATOM     16  C   UNL     1      -7.503  -9.531  17.656  0.00  0.00    +0.123 C 
BRANCH  16   6
ATOM      1  O   UNL     1      -4.859 -10.519  18.187  0.00  0.00    -0.270 OA
ATOM      6  N   UNL     1      -6.456  -9.820  16.663  0.00  0.00    -0.310 N 
ATOM     21  C   UNL     1      -5.224 -10.291  17.037  0.00  0.00    +0.244 C 
ATOM     35  H   UNL     1      -6.669  -9.589  15.699  0.00  0.00    +0.149 HD
BRANCH  21  23
ATOM      2  O   UNL     1      -4.087 -10.786  12.264  0.00  0.00    -0.453 OA
ATOM      3  O   UNL     1      -1.744 -11.093  12.736  0.00  0.00    -0.453 OA
ATOM     23  C   UNL     1      -4.271 -10.508  15.918  0.00  0.00    +0.040 A 
ATOM     26  C   UNL     1      -4.739 -10.530  14.603  0.00  0.00    +0.062 A 
ATOM     27  C   UNL     1      -2.904 -10.687  16.193  0.00  0.00    +0.017 A 
ATOM     31  C   UNL     1      -3.817 -10.732  13.596  0.00  0.00    +0.167 A 
ATOM     32  C   UNL     1      -1.990 -10.890  15.156  0.00  0.00    +0.050 A 
ATOM     33  C   UNL     1      -2.479 -10.908  13.867  0.00  0.00    +0.166 A 
ATOM     34  C   UNL     1      -2.769 -11.014  11.725  0.00  0.00    +0.466 C 
ENDBRANCH  21  23
ENDBRANCH  16   6
ENDBRANCH  10  16
TORSDOF 6
ENDMDL
MODEL 5
REMARK VINA RESULT:      -6.9     27.739     30.846
REMARK  Name = 40777224
REMARK  6 active torsions:
REMARK  status: ('A' for Active; 'I' for Inactive)
REMARK    1  A    between atoms: N_5  and  C_15
REMARK    2  A    between atoms: N_6  and  C_16
REMARK    3  A    between atoms: N_7  and  C_22
REMARK    4  A    between atoms: C_9  and  C_15
REMARK    5  A    between atoms: C_10  and  C_16
REMARK    6  A    between atoms: C_21  and  C_23
REMARK                            x       y       z     vdW  Elec       q    Type
REMARK                         _______ _______ _______ _____ _____    ______ ____
ROOT
ATOM      4  N   UNL     1      -1.760 -11.617  14.074  0.00  0.00    -0.298 NA
ATOM      8  C   UNL     1      -3.991 -12.359  12.960  0.00  0.00    -0.003 C 
ATOM      9  C   UNL     1      -3.449 -11.068  12.305  0.00  0.00    +0.020 C 
ATOM     10  C   UNL     1      -2.803 -11.829  15.115  0.00  0.00    +0.074 C 
ATOM     11  C   UNL     1      -4.176 -12.125  14.472  0.00  0.00    +0.024 C 
ATOM     12  C   UNL     1      -2.209 -10.597  13.097  0.00  0.00    +0.089 C 
ATOM     13  C   UNL     1      -2.901 -13.435  12.796  0.00  0.00    +0.019 C 
ATOM     14  C   UNL     1      -1.569 -12.898  13.351  0.00  0.00    +0.085 C 
ENDROOT
BRANCH   9  15
ATOM     15  C   UNL     1      -4.498  -9.965  12.193  0.00  0.00    +0.089 C 
BRANCH  15   5
ATOM      5  N   UNL     1      -5.174 -10.070  10.900  0.00  0.00    -0.299 NA
ATOM      7  N   UNL     1      -6.365  -9.098   8.492  0.00  0.00    -0.327 N 
ATOM     17  C   UNL     1      -4.339  -9.506   9.834  0.00  0.00    +0.103 C 
ATOM     18  C   UNL     1      -6.469  -9.379  10.939  0.00  0.00    +0.103 C 
ATOM     19  C   UNL     1      -5.011  -9.661   8.467  0.00  0.00    +0.120 C 
ATOM     20  C   UNL     1      -7.213  -9.532   9.610  0.00  0.00    +0.120 C 
BRANCH   7  22
ATOM     22  C   UNL     1      -6.990  -8.740   7.294  0.00  0.00    +0.030 A 
ATOM     24  C   UNL     1      -7.967  -7.743   7.287  0.00  0.00    +0.023 A 
ATOM     25  C   UNL     1      -6.637  -9.377   6.104  0.00  0.00    +0.023 A 
ATOM     28  C   UNL     1      -8.589  -7.384   6.091  0.00  0.00    +0.002 A 
ATOM     29  C   UNL     1      -7.259  -9.017   4.909  0.00  0.00    +0.002 A 
ATOM     30  C   UNL     1      -8.235  -8.021   4.902  0.00  0.00    +0.000 A 
ENDBRANCH   7  22
ENDBRANCH  15   5
ENDBRANCH   9  15
BRANCH  10  16
ATOM     16  C   UNL     1      -2.880 -10.669  16.110  0.00  0.00    +0.123 C 
BRANCH  16   6
ATOM      1  O   UNL     1      -4.189 -11.401  18.559  0.00  0.00    -0.270 OA
ATOM      6  N   UNL     1      -4.288 -10.426  16.460  0.00  0.00    -0.310 N 
ATOM     21  C   UNL     1      -4.804 -10.823  17.667  0.00  0.00    +0.244 C 
ATOM     35  H   UNL     1      -4.870 -10.013  15.741  0.00  0.00    +0.149 HD
BRANCH  21  23
ATOM      2  O   UNL     1      -9.085 -11.188  20.088  0.00  0.00    -0.453 OA
ATOM      3  O   UNL     1     -10.234  -9.787  18.500  0.00  0.00    -0.453 OA
ATOM     23  C   UNL     1      -6.249 -10.528  17.857  0.00  0.00    +0.040 A 
ATOM     26  C   UNL     1      -6.927 -11.062  18.954  0.00  0.00    +0.062 A 
ATOM     27  C   UNL     1      -6.919  -9.710  16.931  0.00  0.00    +0.017 A 
ATOM     31  C   UNL     1      -8.266 -10.759  19.090  0.00  0.00    +0.167 A 
ATOM     32  C   UNL     1      -8.276  -9.418  17.090  0.00  0.00    +0.050 A 
ATOM     33  C   UNL     1      -8.922  -9.959  18.182  0.00  0.00    +0.166 A 
ATOM     34  C   UNL     1     -10.330 -10.567  19.708  0.00  0.00    +0.466 C 
ENDBRANCH  21  23
ENDBRANCH  16   6
ENDBRANCH  10  16
TORSDOF 6
ENDMDL
MODEL 6
REMARK VINA RESULT:      -6.7     29.209     32.338
REMARK  Name = 40777224
REMARK  6 active torsions:
REMARK  status: ('A' for Active; 'I' for Inactive)
REMARK    1  A    between atoms: N_5  and  C_15
REMARK    2  A    between atoms: N_6  and  C_16
REMARK    3  A    between atoms: N_7  and  C_22
REMARK    4  A    between atoms: C_9  and  C_15
REMARK    5  A    between atoms: C_10  and  C_16
REMARK    6  A    between atoms: C_21  and  C_23
REMARK                            x       y       z     vdW  Elec       q    Type
REMARK                         _______ _______ _______ _____ _____    ______ ____
ROOT
ATOM      4  N   UNL     1     -13.665  10.308  35.310  0.00  0.00    -0.298 NA
ATOM      8  C   UNL     1     -11.546   8.915  35.891  0.00  0.00    -0.003 C 
ATOM      9  C   UNL     1     -11.166  10.205  35.128  0.00  0.00    +0.020 C 
ATOM     10  C   UNL     1     -13.835   8.904  34.845  0.00  0.00    +0.074 C 
ATOM     11  C   UNL     1     -12.535   8.093  35.043  0.00  0.00    +0.024 C 
ATOM     12  C   UNL     1     -12.465  10.915  34.685  0.00  0.00    +0.089 C 
ATOM     13  C   UNL     1     -12.292   9.352  37.166  0.00  0.00    +0.019 C 
ATOM     14  C   UNL     1     -13.457  10.281  36.778  0.00  0.00    +0.085 C 
ENDROOT
BRANCH   9  15
ATOM     15  C   UNL     1     -10.231   9.953  33.949  0.00  0.00    +0.089 C 
BRANCH  15   5
ATOM      5  N   UNL     1     -10.900  10.349  32.709  0.00  0.00    -0.299 NA
ATOM      7  N   UNL     1     -11.158  10.717  29.888  0.00  0.00    -0.327 N 
ATOM     17  C   UNL     1     -11.063   9.191  31.820  0.00  0.00    +0.103 C 
ATOM     18  C   UNL     1     -10.136  11.400  32.025  0.00  0.00    +0.103 C 
ATOM     19  C   UNL     1     -11.812   9.580  30.543  0.00  0.00    +0.120 C 
ATOM     20  C   UNL     1     -10.855  11.863  30.756  0.00  0.00    +0.120 C 
BRANCH   7  22
ATOM     22  C   UNL     1     -11.389  10.964  28.531  0.00  0.00    +0.030 A 
ATOM     24  C   UNL     1     -12.104  12.097  28.140  0.00  0.00    +0.023 A 
ATOM     25  C   UNL     1     -10.904  10.080  27.568  0.00  0.00    +0.023 A 
ATOM     28  C   UNL     1     -12.332  12.345  26.787  0.00  0.00    +0.002 A 
ATOM     29  C   UNL     1     -11.133  10.328  26.214  0.00  0.00    +0.002 A 
ATOM     30  C   UNL     1     -11.847  11.461  25.823  0.00  0.00    +0.000 A 
ENDBRANCH   7  22
ENDBRANCH  15   5
ENDBRANCH   9  15
BRANCH  10  16
ATOM     16  C   UNL     1     -14.341   8.824  33.403  0.00  0.00    +0.123 C 
BRANCH  16   6
ATOM      1  O   UNL     1     -16.296   6.839  32.706  0.00  0.00    -0.270 OA
ATOM      6  N   UNL     1     -14.075   7.477  32.873  0.00  0.00    -0.310 N 
ATOM     21  C   UNL     1     -15.097   6.611  32.575  0.00  0.00    +0.244 C 
ATOM     35  H   UNL     1     -13.103   7.200  32.803  0.00  0.00    +0.149 HD
BRANCH  21  23
ATOM      2  O   UNL     1     -15.627   2.574  29.792  0.00  0.00    -0.453 OA
ATOM      3  O   UNL     1     -13.575   1.606  30.605  0.00  0.00    -0.453 OA
ATOM     23  C   UNL     1     -14.662   5.281  32.073  0.00  0.00    +0.040 A 
ATOM     26  C   UNL     1     -15.445   4.605  31.135  0.00  0.00    +0.062 A 
ATOM     27  C   UNL     1     -13.465   4.716  32.546  0.00  0.00    +0.017 A 
ATOM     31  C   UNL     1     -15.001   3.374  30.697  0.00  0.00    +0.167 A 
ATOM     32  C   UNL     1     -13.037   3.468  32.088  0.00  0.00    +0.050 A 
ATOM     33  C   UNL     1     -13.828   2.822  31.162  0.00  0.00    +0.166 A 
ATOM     34  C   UNL     1     -14.718   1.456  29.738  0.00  0.00    +0.466 C 
ENDBRANCH  21  23
ENDBRANCH  16   6
ENDBRANCH  10  16
TORSDOF 6
ENDMDL
MODEL 7
REMARK VINA RESULT:      -6.6     28.299     31.173
REMARK  Name = 40777224
REMARK  6 active torsions:
REMARK  status: ('A' for Active; 'I' for Inactive)
REMARK    1  A    between atoms: N_5  and  C_15
REMARK    2  A    between atoms: N_6  and  C_16
REMARK    3  A    between atoms: N_7  and  C_22
REMARK    4  A    between atoms: C_9  and  C_15
REMARK    5  A    between atoms: C_10  and  C_16
REMARK    6  A    between atoms: C_21  and  C_23
REMARK                            x       y       z     vdW  Elec       q    Type
REMARK                         _______ _______ _______ _____ _____    ______ ____
ROOT
ATOM      4  N   UNL     1      -6.501 -12.557  18.307  0.00  0.00    -0.298 NA
ATOM      8  C   UNL     1      -6.270  -9.988  17.969  0.00  0.00    -0.003 C 
ATOM      9  C   UNL     1      -7.573 -10.514  17.326  0.00  0.00    +0.020 C 
ATOM     10  C   UNL     1      -5.172 -12.239  17.717  0.00  0.00    +0.074 C 
ATOM     11  C   UNL     1      -5.066 -10.737  17.367  0.00  0.00    +0.024 C 
ATOM     12  C   UNL     1      -7.586 -12.056  17.430  0.00  0.00    +0.089 C 
ATOM     13  C   UNL     1      -6.331 -10.350  19.465  0.00  0.00    +0.019 C 
ATOM     14  C   UNL     1      -6.601 -11.859  19.611  0.00  0.00    +0.085 C 
ENDROOT
BRANCH   9  15
ATOM     15  C   UNL     1      -7.766 -10.046  15.886  0.00  0.00    +0.089 C 
BRANCH  15   5
ATOM      5  N   UNL     1      -9.148  -9.603  15.702  0.00  0.00    -0.299 NA
ATOM      7  N   UNL     1     -11.230  -7.831  14.877  0.00  0.00    -0.327 N 
ATOM     17  C   UNL     1      -9.443  -9.417  14.276  0.00  0.00    +0.103 C 
ATOM     18  C   UNL     1      -9.388  -8.351  16.430  0.00  0.00    +0.103 C 
ATOM     19  C   UNL     1     -10.903  -9.008  14.066  0.00  0.00    +0.120 C 
ATOM     20  C   UNL     1     -10.847  -7.908  16.292  0.00  0.00    +0.120 C 
BRANCH   7  22
ATOM     22  C   UNL     1     -12.331  -7.037  14.537  0.00  0.00    +0.030 A 
ATOM     24  C   UNL     1     -12.135  -5.743  14.051  0.00  0.00    +0.023 A 
ATOM     25  C   UNL     1     -13.624  -7.539  14.680  0.00  0.00    +0.023 A 
ATOM     28  C   UNL     1     -13.232  -4.953  13.709  0.00  0.00    +0.002 A 
ATOM     29  C   UNL     1     -14.721  -6.748  14.338  0.00  0.00    +0.002 A 
ATOM     30  C   UNL     1     -14.525  -5.455  13.853  0.00  0.00    +0.000 A 
ENDBRANCH   7  22
ENDBRANCH  15   5
ENDBRANCH   9  15
BRANCH  10  16
ATOM     16  C   UNL     1      -4.838 -13.127  16.516  0.00  0.00    +0.123 C 
BRANCH  16   6
ATOM      1  O   UNL     1      -2.749 -13.318  14.555  0.00  0.00    -0.270 OA
ATOM      6  N   UNL     1      -4.673 -12.282  15.322  0.00  0.00    -0.310 N 
ATOM     21  C   UNL     1      -3.629 -12.468  14.452  0.00  0.00    +0.244 C 
ATOM     35  H   UNL     1      -5.328 -11.516  15.214  0.00  0.00    +0.149 HD
BRANCH  21  23
ATOM      2  O   UNL     1      -5.601  -9.014  11.536  0.00  0.00    -0.453 OA
ATOM      3  O   UNL     1      -3.609  -8.850  10.191  0.00  0.00    -0.453 OA
ATOM     23  C   UNL     1      -3.589 -11.517  13.310  0.00  0.00    +0.040 A 
ATOM     26  C   UNL     1      -4.705 -10.726  13.028  0.00  0.00    +0.062 A 
ATOM     27  C   UNL     1      -2.427 -11.421  12.526  0.00  0.00    +0.017 A 
ATOM     31  C   UNL     1      -4.621  -9.857  11.960  0.00  0.00    +0.167 A 
ATOM     32  C   UNL     1      -2.367 -10.533  11.449  0.00  0.00    +0.050 A 
ATOM     33  C   UNL     1      -3.482  -9.764  11.192  0.00  0.00    +0.166 A 
ATOM     34  C   UNL     1      -4.953  -8.378  10.416  0.00  0.00    +0.466 C 
ENDBRANCH  21  23
ENDBRANCH  16   6
ENDBRANCH  10  16
TORSDOF 6
ENDMDL
MODEL 8
REMARK VINA RESULT:      -6.5     28.284     31.137
REMARK  Name = 40777224
REMARK  6 active torsions:
REMARK  status: ('A' for Active; 'I' for Inactive)
REMARK    1  A    between atoms: N_5  and  C_15
REMARK    2  A    between atoms: N_6  and  C_16
REMARK    3  A    between atoms: N_7  and  C_22
REMARK    4  A    between atoms: C_9  and  C_15
REMARK    5  A    between atoms: C_10  and  C_16
REMARK    6  A    between atoms: C_21  and  C_23
REMARK                            x       y       z     vdW  Elec       q    Type
REMARK                         _______ _______ _______ _____ _____    ______ ____
ROOT
ATOM      4  N   UNL     1     -11.614  -9.571  16.825  0.00  0.00    -0.298 NA
ATOM      8  C   UNL     1     -10.025  -7.906  15.614  0.00  0.00    -0.003 C 
ATOM      9  C   UNL     1     -10.130  -9.235  14.833  0.00  0.00    +0.020 C 
ATOM     10  C   UNL     1     -10.585  -9.067  17.775  0.00  0.00    +0.074 C 
ATOM     11  C   UNL     1      -9.539  -8.193  17.048  0.00  0.00    +0.024 C 
ATOM     12  C   UNL     1     -10.965 -10.232  15.667  0.00  0.00    +0.089 C 
ATOM     13  C   UNL     1     -11.452  -7.336  15.722  0.00  0.00    +0.019 C 
ATOM     14  C   UNL     1     -12.381  -8.405  16.322  0.00  0.00    +0.085 C 
ENDROOT
BRANCH   9  15
ATOM     15  C   UNL     1      -8.772  -9.819  14.453  0.00  0.00    +0.089 C 
BRANCH  15   5
ATOM      5  N   UNL     1      -8.423  -9.391  13.099  0.00  0.00    -0.299 NA
ATOM      7  N   UNL     1      -7.431  -9.706  10.439  0.00  0.00    -0.327 N 
ATOM     17  C   UNL     1      -9.190 -10.152  12.105  0.00  0.00    +0.103 C 
ATOM     18  C   UNL     1      -6.985  -9.563  12.859  0.00  0.00    +0.103 C 
ATOM     19  C   UNL     1      -8.876  -9.674  10.685  0.00  0.00    +0.120 C 
ATOM     20  C   UNL     1      -6.597  -9.065  11.464  0.00  0.00    +0.120 C 
BRANCH   7  22
ATOM     22  C   UNL     1      -6.950  -9.733   9.125  0.00  0.00    +0.030 A 
ATOM     24  C   UNL     1      -7.675  -9.117   8.104  0.00  0.00    +0.023 A 
ATOM     25  C   UNL     1      -5.746 -10.374   8.836  0.00  0.00    +0.023 A 
ATOM     28  C   UNL     1      -7.194  -9.142   6.795  0.00  0.00    +0.002 A 
ATOM     29  C   UNL     1      -5.265 -10.399   7.526  0.00  0.00    +0.002 A 
ATOM     30  C   UNL     1      -5.990  -9.783   6.506  0.00  0.00    +0.000 A 
ENDBRANCH   7  22
ENDBRANCH  15   5
ENDBRANCH   9  15
BRANCH  10  16
ATOM     16  C   UNL     1      -9.927 -10.194  18.575  0.00  0.00    +0.123 C 
BRANCH  16   6
ATOM      1  O   UNL     1      -7.687 -11.125  20.112  0.00  0.00    -0.270 OA
ATOM      6  N   UNL     1      -8.549 -10.386  18.094  0.00  0.00    -0.310 N 
ATOM     21  C   UNL     1      -7.557 -10.838  18.925  0.00  0.00    +0.244 C 
ATOM     35  H   UNL     1      -8.358 -10.103  17.139  0.00  0.00    +0.149 HD
BRANCH  21  23
ATOM      2  O   UNL     1      -4.419 -10.366  15.150  0.00  0.00    -0.453 OA
ATOM      3  O   UNL     1      -2.567 -11.218  16.435  0.00  0.00    -0.453 OA
ATOM     23  C   UNL     1      -6.216 -10.954  18.294  0.00  0.00    +0.040 A 
ATOM     26  C   UNL     1      -6.040 -10.566  16.965  0.00  0.00    +0.062 A 
ATOM     27  C   UNL     1      -5.135 -11.450  19.044  0.00  0.00    +0.017 A 
ATOM     31  C   UNL     1      -4.778 -10.690  16.422  0.00  0.00    +0.167 A 
ATOM     32  C   UNL     1      -3.866 -11.566  18.472  0.00  0.00    +0.050 A 
ATOM     33  C   UNL     1      -3.720 -11.177  17.156  0.00  0.00    +0.166 A 
ATOM     34  C   UNL     1      -3.017 -10.702  15.166  0.00  0.00    +0.466 C 
ENDBRANCH  21  23
ENDBRANCH  16   6
ENDBRANCH  10  16
TORSDOF 6
ENDMDL
MODEL 9
REMARK VINA RESULT:      -6.5     28.636     31.711
REMARK  Name = 40777224
REMARK  6 active torsions:
REMARK  status: ('A' for Active; 'I' for Inactive)
REMARK    1  A    between atoms: N_5  and  C_15
REMARK    2  A    between atoms: N_6  and  C_16
REMARK    3  A    between atoms: N_7  and  C_22
REMARK    4  A    between atoms: C_9  and  C_15
REMARK    5  A    between atoms: C_10  and  C_16
REMARK    6  A    between atoms: C_21  and  C_23
REMARK                            x       y       z     vdW  Elec       q    Type
REMARK                         _______ _______ _______ _____ _____    ______ ____
ROOT
ATOM      4  N   UNL     1      -4.615  -8.801  10.777  0.00  0.00    -0.298 NA
ATOM      8  C   UNL     1      -5.236 -10.912   9.388  0.00  0.00    -0.003 C 
ATOM      9  C   UNL     1      -5.487  -9.622   8.574  0.00  0.00    +0.020 C 
ATOM     10  C   UNL     1      -5.541  -9.669  11.555  0.00  0.00    +0.074 C 
ATOM     11  C   UNL     1      -6.043 -10.853  10.699  0.00  0.00    +0.024 C 
ATOM     12  C   UNL     1      -5.241  -8.404   9.492  0.00  0.00    +0.089 C 
ATOM     13  C   UNL     1      -3.744 -10.916   9.771  0.00  0.00    +0.019 C 
ATOM     14  C   UNL     1      -3.397  -9.590  10.473  0.00  0.00    +0.085 C 
ENDROOT
BRANCH   9  15
ATOM     15  C   UNL     1      -6.872  -9.575   7.935  0.00  0.00    +0.089 C 
BRANCH  15   5
ATOM      5  N   UNL     1      -7.621  -8.446   8.487  0.00  0.00    -0.299 NA
ATOM      7  N   UNL     1      -9.785  -6.590   8.668  0.00  0.00    -0.327 N 
ATOM     17  C   UNL     1      -8.940  -8.885   8.961  0.00  0.00    +0.103 C 
ATOM     18  C   UNL     1      -7.779  -7.390   7.480  0.00  0.00    +0.103 C 
ATOM     19  C   UNL     1      -9.712  -7.725   9.593  0.00  0.00    +0.120 C 
ATOM     20  C   UNL     1      -8.511  -6.179   8.063  0.00  0.00    +0.120 C 
BRANCH   7  22
ATOM     22  C   UNL     1     -10.775  -5.616   8.840  0.00  0.00    +0.030 A 
ATOM     24  C   UNL     1     -12.122  -5.968   8.753  0.00  0.00    +0.023 A 
ATOM     25  C   UNL     1     -10.415  -4.294   9.100  0.00  0.00    +0.023 A 
ATOM     28  C   UNL     1     -13.109  -4.997   8.928  0.00  0.00    +0.002 A 
ATOM     29  C   UNL     1     -11.402  -3.324   9.274  0.00  0.00    +0.002 A 
ATOM     30  C   UNL     1     -12.749  -3.676   9.188  0.00  0.00    +0.000 A 
ENDBRANCH   7  22
ENDBRANCH  15   5
ENDBRANCH   9  15
BRANCH  10  16
ATOM     16  C   UNL     1      -6.700  -8.882  12.171  0.00  0.00    +0.123 C 
BRANCH  16   6
ATOM      1  O   UNL     1      -8.583 -10.606  13.486  0.00  0.00    -0.270 OA
ATOM      6  N   UNL     1      -6.768  -9.172  13.612  0.00  0.00    -0.310 N 
ATOM     21  C   UNL     1      -7.717 -10.017  14.128  0.00  0.00    +0.244 C 
ATOM     35  H   UNL     1      -6.124  -8.665  14.209  0.00  0.00    +0.149 HD
BRANCH  21  23
ATOM      2  O   UNL     1      -5.347 -10.669  18.404  0.00  0.00    -0.453 OA
ATOM      3  O   UNL     1      -7.395 -10.657  19.672  0.00  0.00    -0.453 OA
ATOM     23  C   UNL     1      -7.668 -10.186  15.604  0.00  0.00    +0.040 A 
ATOM     26  C   UNL     1      -6.438 -10.348  16.243  0.00  0.00    +0.062 A 
ATOM     27  C   UNL     1      -8.863 -10.179  16.345  0.00  0.00    +0.017 A 
ATOM     31  C   UNL     1      -6.442 -10.499  17.615  0.00  0.00    +0.167 A 
ATOM     32  C   UNL     1      -8.842 -10.334  17.733  0.00  0.00    +0.050 A 
ATOM     33  C   UNL     1      -7.613 -10.492  18.339  0.00  0.00    +0.166 A 
ATOM     34  C   UNL     1      -5.958 -10.767  19.706  0.00  0.00    +0.466 C 
ENDBRANCH  21  23
ENDBRANCH  16   6
ENDBRANCH  10  16
TORSDOF 6
ENDMDL
MODEL 10
REMARK VINA RESULT:      -6.4     28.634     30.836
REMARK  Name = 40777224
REMARK  6 active torsions:
REMARK  status: ('A' for Active; 'I' for Inactive)
REMARK    1  A    between atoms: N_5  and  C_15
REMARK    2  A    between atoms: N_6  and  C_16
REMARK    3  A    between atoms: N_7  and  C_22
REMARK    4  A    between atoms: C_9  and  C_15
REMARK    5  A    between atoms: C_10  and  C_16
REMARK    6  A    between atoms: C_21  and  C_23
REMARK                            x       y       z     vdW  Elec       q    Type
REMARK                         _______ _______ _______ _____ _____    ______ ____
ROOT
ATOM      4  N   UNL     1      -6.466 -11.973   8.524  0.00  0.00    -0.298 NA
ATOM      8  C   UNL     1      -5.087  -9.888   7.805  0.00  0.00    -0.003 C 
ATOM      9  C   UNL     1      -4.475 -10.548   9.061  0.00  0.00    +0.020 C 
ATOM     10  C   UNL     1      -7.365 -10.797   8.371  0.00  0.00    +0.074 C 
ATOM     11  C   UNL     1      -6.554  -9.512   8.090  0.00  0.00    +0.024 C 
ATOM     12  C   UNL     1      -5.411 -11.687   9.525  0.00  0.00    +0.089 C 
ATOM     13  C   UNL     1      -5.098 -10.958   6.697  0.00  0.00    +0.019 C 
ATOM     14  C   UNL     1      -5.809 -12.220   7.218  0.00  0.00    +0.085 C 
ENDROOT
BRANCH   9  15
ATOM     15  C   UNL     1      -4.195  -9.556  10.187  0.00  0.00    +0.089 C 
BRANCH  15   5
ATOM      5  N   UNL     1      -4.540 -10.169  11.469  0.00  0.00    -0.299 NA
ATOM      7  N   UNL     1      -4.795 -10.303  14.311  0.00  0.00    -0.327 N 
ATOM     17  C   UNL     1      -5.561  -9.373  12.162  0.00  0.00    +0.103 C 
ATOM     18  C   UNL     1      -3.348 -10.298  12.316  0.00  0.00    +0.103 C 
ATOM     19  C   UNL     1      -5.973 -10.034  13.480  0.00  0.00    +0.120 C 
ATOM     20  C   UNL     1      -3.686 -10.991  13.638  0.00  0.00    +0.120 C 
BRANCH   7  22
ATOM     22  C   UNL     1      -4.946 -10.492  15.689  0.00  0.00    +0.030 A 
ATOM     24  C   UNL     1      -6.088 -10.019  16.337  0.00  0.00    +0.023 A 
ATOM     25  C   UNL     1      -3.958 -11.156  16.415  0.00  0.00    +0.023 A 
ATOM     28  C   UNL     1      -6.239 -10.211  17.710  0.00  0.00    +0.002 A 
ATOM     29  C   UNL     1      -4.110 -11.347  17.788  0.00  0.00    +0.002 A 
ATOM     30  C   UNL     1      -5.251 -10.874  18.436  0.00  0.00    +0.000 A 
ENDBRANCH   7  22
ENDBRANCH  15   5
ENDBRANCH   9  15
BRANCH  10  16
ATOM     16  C   UNL     1      -8.309 -10.624   9.563  0.00  0.00    +0.123 C 
BRANCH  16   6
ATOM      1  O   UNL     1     -10.442  -9.454   8.037  0.00  0.00    -0.270 OA
ATOM      6  N   UNL     1      -8.765  -9.226   9.618  0.00  0.00    -0.310 N 
ATOM     21  C   UNL     1      -9.801  -8.779   8.837  0.00  0.00    +0.244 C 
ATOM     35  H   UNL     1      -8.233  -8.597  10.210  0.00  0.00    +0.149 HD
BRANCH  21  23
ATOM      2  O   UNL     1     -12.540  -5.041  10.525  0.00  0.00    -0.453 OA
ATOM      3  O   UNL     1     -11.121  -3.387   9.496  0.00  0.00    -0.453 OA
ATOM     23  C   UNL     1     -10.123  -7.336   8.991  0.00  0.00    +0.040 A 
ATOM     26  C   UNL     1     -11.242  -6.951   9.731  0.00  0.00    +0.062 A 
ATOM     27  C   UNL     1      -9.296  -6.371   8.391  0.00  0.00    +0.017 A 
ATOM     31  C   UNL     1     -11.501  -5.601   9.848  0.00  0.00    +0.167 A 
ATOM     32  C   UNL     1      -9.578  -5.010   8.524  0.00  0.00    +0.050 A 
ATOM     33  C   UNL     1     -10.690  -4.656   9.260  0.00  0.00    +0.166 A 
ATOM     34  C   UNL     1     -12.292  -3.639  10.299  0.00  0.00    +0.466 C 
ENDBRANCH  21  23
ENDBRANCH  16   6
ENDBRANCH  10  16
TORSDOF 6
ENDMDL
