MODEL 1
REMARK VINA RESULT:      -7.0      0.000      0.000
REMARK  Name = 51136648
REMARK  10 active torsions:
REMARK  status: ('A' for Active; 'I' for Inactive)
REMARK    1  A    between atoms: O_2  and  C_19
REMARK    2  A    between atoms: O_5  and  C_29
REMARK    3  A    between atoms: O_5  and  C_32
REMARK    4  A    between atoms: C_9  and  C_14
REMARK    5  A    between atoms: C_10  and  C_15
REMARK    6  A    between atoms: C_14  and  C_16
REMARK    7  A    between atoms: C_15  and  C_19
REMARK    8  A    between atoms: C_17  and  C_21
REMARK    9  A    between atoms: C_26  and  C_30
REMARK   10  A    between atoms: C_27  and  C_31
REMARK                            x       y       z     vdW  Elec       q    Type
REMARK                         _______ _______ _______ _____ _____    ______ ____
ROOT
ATOM      1  O   UNL     1      10.712  11.375  24.575  0.00  0.00    -0.270 OA
ATOM      6  N   UNL     1      11.511  10.683  22.489  0.00  0.00    -0.297 N 
ATOM      9  C   UNL     1      13.185   9.577  21.047  0.00  0.00    +0.016 C 
ATOM     10  C   UNL     1      12.245   8.353  20.889  0.00  0.00    +0.006 C 
ATOM     11  C   UNL     1      11.302   8.264  22.105  0.00  0.00    +0.023 C 
ATOM     12  C   UNL     1      12.395  10.864  21.329  0.00  0.00    +0.112 C 
ATOM     13  C   UNL     1      10.565   9.575  22.372  0.00  0.00    +0.108 C 
ATOM     17  C   UNL     1      11.482  11.498  23.623  0.00  0.00    +0.252 C 
ENDROOT
BRANCH  17  21
ATOM      4  O   UNL     1      13.333  14.643  23.709  0.00  0.00    -0.359 OA
ATOM      8  N   UNL     1      14.383  13.776  23.986  0.00  0.00    -0.083 NA
ATOM     21  C   UNL     1      12.455  12.594  23.716  0.00  0.00    +0.101 A 
ATOM     26  C   UNL     1      12.190  13.928  23.551  0.00  0.00    +0.147 A 
ATOM     27  C   UNL     1      13.834  12.558  23.985  0.00  0.00    +0.093 A 
ATOM     30  C   UNL     1      10.977  14.699  23.251  0.00  0.00    +0.090 C 
ATOM     31  C   UNL     1      14.677  11.379  24.247  0.00  0.00    +0.070 C 
ENDBRANCH  17  21
BRANCH   9  14
ATOM     14  C   UNL     1      14.124   9.770  19.857  0.00  0.00    +0.061 C 
BRANCH  14  16
ATOM      7  N   UNL     1      15.064   7.627  19.315  0.00  0.00    -0.287 NA
ATOM     16  C   UNL     1      15.241   8.757  19.917  0.00  0.00    +0.044 C 
ATOM     18  C   UNL     1      16.478   9.100  20.665  0.00  0.00    -0.001 A 
ATOM     20  C   UNL     1      17.311   8.035  21.030  0.00  0.00    -0.033 A 
ATOM     22  C   UNL     1      16.901   6.641  20.660  0.00  0.00    +0.059 C 
ATOM     23  C   UNL     1      16.173   6.668  19.322  0.00  0.00    +0.146 C 
ATOM     24  C   UNL     1      16.810  10.410  21.014  0.00  0.00    +0.013 A 
ATOM     25  C   UNL     1      18.470   8.286  21.770  0.00  0.00    +0.050 A 
ATOM     28  C   UNL     1      17.977  10.654  21.740  0.00  0.00    +0.046 A 
ATOM     29  C   UNL     1      18.804   9.595  22.119  0.00  0.00    +0.120 A 
BRANCH  29   5
ATOM      5  O   UNL     1      19.936   9.840  22.834  0.00  0.00    -0.495 OA
ATOM     32  C   UNL     1      20.414   8.788  23.672  0.00  0.00    +0.277 C 
ENDBRANCH  29   5
ENDBRANCH  14  16
ENDBRANCH   9  14
BRANCH  10  15
ATOM     15  C   UNL     1      11.447   8.343  19.580  0.00  0.00    +0.124 C 
BRANCH  15  19
ATOM      3  O   UNL     1      11.965   7.307  17.436  0.00  0.00    -0.251 OA
ATOM     19  C   UNL     1      11.909   7.251  18.655  0.00  0.00    +0.305 C 
BRANCH  19   2
ATOM      2  O   UNL     1      12.267   6.160  19.379  0.00  0.00    -0.481 OA
ATOM     33  H   UNL     1      12.236   6.335  20.343  0.00  0.00    +0.295 HD
ENDBRANCH  19   2
ENDBRANCH  15  19
ENDBRANCH  10  15
TORSDOF 7
ENDMDL
MODEL 2
REMARK VINA RESULT:      -6.9      2.830      6.498
REMARK  Name = 51136648
REMARK  10 active torsions:
REMARK  status: ('A' for Active; 'I' for Inactive)
REMARK    1  A    between atoms: O_2  and  C_19
REMARK    2  A    between atoms: O_5  and  C_29
REMARK    3  A    between atoms: O_5  and  C_32
REMARK    4  A    between atoms: C_9  and  C_14
REMARK    5  A    between atoms: C_10  and  C_15
REMARK    6  A    between atoms: C_14  and  C_16
REMARK    7  A    between atoms: C_15  and  C_19
REMARK    8  A    between atoms: C_17  and  C_21
REMARK    9  A    between atoms: C_26  and  C_30
REMARK   10  A    between atoms: C_27  and  C_31
REMARK                            x       y       z     vdW  Elec       q    Type
REMARK                         _______ _______ _______ _____ _____    ______ ____
ROOT
ATOM      1  O   UNL     1      11.838   6.296  20.070  0.00  0.00    -0.270 OA
ATOM      6  N   UNL     1      12.291   8.456  20.843  0.00  0.00    -0.297 N 
ATOM      9  C   UNL     1      11.919  10.898  20.846  0.00  0.00    +0.016 C 
ATOM     10  C   UNL     1      11.138  10.782  22.182  0.00  0.00    +0.006 C 
ATOM     11  C   UNL     1      10.540   9.367  22.309  0.00  0.00    +0.023 C 
ATOM     12  C   UNL     1      12.942   9.764  20.688  0.00  0.00    +0.112 C 
ATOM     13  C   UNL     1      11.584   8.269  22.108  0.00  0.00    +0.108 C 
ATOM     17  C   UNL     1      12.345   7.407  19.922  0.00  0.00    +0.252 C 
ENDROOT
BRANCH  17  21
ATOM      4  O   UNL     1      14.670   7.697  17.123  0.00  0.00    -0.359 OA
ATOM      8  N   UNL     1      13.533   8.205  16.504  0.00  0.00    -0.083 NA
ATOM     21  C   UNL     1      13.051   7.632  18.654  0.00  0.00    +0.101 A 
ATOM     26  C   UNL     1      14.370   7.359  18.403  0.00  0.00    +0.147 A 
ATOM     27  C   UNL     1      12.580   8.155  17.438  0.00  0.00    +0.093 A 
ATOM     30  C   UNL     1      15.469   6.803  19.202  0.00  0.00    +0.090 C 
ATOM     31  C   UNL     1      11.222   8.627  17.118  0.00  0.00    +0.070 C 
ENDBRANCH  17  21
BRANCH   9  14
ATOM     14  C   UNL     1      12.589  12.259  20.661  0.00  0.00    +0.061 C 
BRANCH  14  16
ATOM      7  N   UNL     1      14.840  11.971  21.448  0.00  0.00    -0.287 NA
ATOM     16  C   UNL     1      14.067  12.073  20.417  0.00  0.00    +0.044 C 
ATOM     18  C   UNL     1      14.560  12.025  19.016  0.00  0.00    -0.001 A 
ATOM     20  C   UNL     1      15.931  12.241  18.822  0.00  0.00    -0.033 A 
ATOM     22  C   UNL     1      16.792  12.518  20.017  0.00  0.00    +0.059 C 
ATOM     23  C   UNL     1      16.267  11.730  21.210  0.00  0.00    +0.146 C 
ATOM     24  C   UNL     1      13.719  11.791  17.927  0.00  0.00    +0.013 A 
ATOM     25  C   UNL     1      16.451  12.248  17.525  0.00  0.00    +0.050 A 
ATOM     28  C   UNL     1      14.250  11.784  16.637  0.00  0.00    +0.046 A 
ATOM     29  C   UNL     1      15.611  12.015  16.435  0.00  0.00    +0.120 A 
BRANCH  29   5
ATOM      5  O   UNL     1      16.121  12.015  15.173  0.00  0.00    -0.495 OA
ATOM     32  C   UNL     1      15.633  11.018  14.276  0.00  0.00    +0.277 C 
ENDBRANCH  29   5
ENDBRANCH  14  16
ENDBRANCH   9  14
BRANCH  10  15
ATOM     15  C   UNL     1      11.966  11.136  23.422  0.00  0.00    +0.124 C 
BRANCH  15  19
ATOM      3  O   UNL     1      10.251  12.273  24.727  0.00  0.00    -0.251 OA
ATOM     19  C   UNL     1      11.093  11.394  24.618  0.00  0.00    +0.305 C 
BRANCH  19   2
ATOM      2  O   UNL     1      11.373  10.491  25.593  0.00  0.00    -0.481 OA
ATOM     33  H   UNL     1      11.836   9.702  25.238  0.00  0.00    +0.295 HD
ENDBRANCH  19   2
ENDBRANCH  15  19
ENDBRANCH  10  15
TORSDOF 7
ENDMDL
MODEL 3
REMARK VINA RESULT:      -6.8      1.511      2.651
REMARK  Name = 51136648
REMARK  10 active torsions:
REMARK  status: ('A' for Active; 'I' for Inactive)
REMARK    1  A    between atoms: O_2  and  C_19
REMARK    2  A    between atoms: O_5  and  C_29
REMARK    3  A    between atoms: O_5  and  C_32
REMARK    4  A    between atoms: C_9  and  C_14
REMARK    5  A    between atoms: C_10  and  C_15
REMARK    6  A    between atoms: C_14  and  C_16
REMARK    7  A    between atoms: C_15  and  C_19
REMARK    8  A    between atoms: C_17  and  C_21
REMARK    9  A    between atoms: C_26  and  C_30
REMARK   10  A    between atoms: C_27  and  C_31
REMARK                            x       y       z     vdW  Elec       q    Type
REMARK                         _______ _______ _______ _____ _____    ______ ____
ROOT
ATOM      1  O   UNL     1      10.346  11.376  24.424  0.00  0.00    -0.270 OA
ATOM      6  N   UNL     1      11.449  10.732  22.465  0.00  0.00    -0.297 N 
ATOM      9  C   UNL     1      13.349   9.709  21.263  0.00  0.00    +0.016 C 
ATOM     10  C   UNL     1      12.496   8.445  20.980  0.00  0.00    +0.006 C 
ATOM     11  C   UNL     1      11.402   8.308  22.058  0.00  0.00    +0.023 C 
ATOM     12  C   UNL     1      12.472  10.958  21.436  0.00  0.00    +0.112 C 
ATOM     13  C   UNL     1      10.578   9.583  22.223  0.00  0.00    +0.108 C 
ATOM     17  C   UNL     1      11.231  11.538  23.585  0.00  0.00    +0.252 C 
ENDROOT
BRANCH  17  21
ATOM      4  O   UNL     1      13.943  13.861  24.343  0.00  0.00    -0.359 OA
ATOM      8  N   UNL     1      12.987  14.783  23.933  0.00  0.00    -0.083 NA
ATOM     21  C   UNL     1      12.132  12.676  23.807  0.00  0.00    +0.101 A 
ATOM     26  C   UNL     1      13.423  12.610  24.263  0.00  0.00    +0.147 A 
ATOM     27  C   UNL     1      11.915  14.051  23.618  0.00  0.00    +0.093 A 
ATOM     30  C   UNL     1      14.310  11.510  24.664  0.00  0.00    +0.090 C 
ATOM     31  C   UNL     1      10.694  14.719  23.137  0.00  0.00    +0.070 C 
ENDBRANCH  17  21
BRANCH   9  14
ATOM     14  C   UNL     1      14.431   9.950  20.211  0.00  0.00    +0.061 C 
BRANCH  14  16
ATOM      7  N   UNL     1      16.181  10.945  21.520  0.00  0.00    -0.287 NA
ATOM     16  C   UNL     1      15.794   9.905  20.858  0.00  0.00    +0.044 C 
ATOM     18  C   UNL     1      16.622   8.682  20.697  0.00  0.00    -0.001 A 
ATOM     20  C   UNL     1      17.992   8.809  20.960  0.00  0.00    -0.033 A 
ATOM     22  C   UNL     1      18.526  10.150  21.365  0.00  0.00    +0.059 C 
ATOM     23  C   UNL     1      17.480  10.878  22.199  0.00  0.00    +0.146 C 
ATOM     24  C   UNL     1      16.090   7.458  20.290  0.00  0.00    +0.013 A 
ATOM     25  C   UNL     1      18.833   7.706  20.789  0.00  0.00    +0.050 A 
ATOM     28  C   UNL     1      16.934   6.357  20.138  0.00  0.00    +0.046 A 
ATOM     29  C   UNL     1      18.302   6.481  20.383  0.00  0.00    +0.120 A 
BRANCH  29   5
ATOM      5  O   UNL     1      19.121   5.405  20.223  0.00  0.00    -0.495 OA
ATOM     32  C   UNL     1      20.484   5.563  20.618  0.00  0.00    +0.277 C 
ENDBRANCH  29   5
ENDBRANCH  14  16
ENDBRANCH   9  14
BRANCH  10  15
ATOM     15  C   UNL     1      11.883   8.407  19.576  0.00  0.00    +0.124 C 
BRANCH  15  19
ATOM      3  O   UNL     1      12.736   7.248  17.610  0.00  0.00    -0.251 OA
ATOM     19  C   UNL     1      12.387   7.235  18.780  0.00  0.00    +0.305 C 
BRANCH  19   2
ATOM      2  O   UNL     1      12.404   6.125  19.562  0.00  0.00    -0.481 OA
ATOM     33  H   UNL     1      11.603   6.063  20.125  0.00  0.00    +0.295 HD
ENDBRANCH  19   2
ENDBRANCH  15  19
ENDBRANCH  10  15
TORSDOF 7
ENDMDL
MODEL 4
REMARK VINA RESULT:      -6.7      2.227      5.729
REMARK  Name = 51136648
REMARK  10 active torsions:
REMARK  status: ('A' for Active; 'I' for Inactive)
REMARK    1  A    between atoms: O_2  and  C_19
REMARK    2  A    between atoms: O_5  and  C_29
REMARK    3  A    between atoms: O_5  and  C_32
REMARK    4  A    between atoms: C_9  and  C_14
REMARK    5  A    between atoms: C_10  and  C_15
REMARK    6  A    between atoms: C_14  and  C_16
REMARK    7  A    between atoms: C_15  and  C_19
REMARK    8  A    between atoms: C_17  and  C_21
REMARK    9  A    between atoms: C_26  and  C_30
REMARK   10  A    between atoms: C_27  and  C_31
REMARK                            x       y       z     vdW  Elec       q    Type
REMARK                         _______ _______ _______ _____ _____    ______ ____
ROOT
ATOM      1  O   UNL     1      11.686   6.296  20.030  0.00  0.00    -0.270 OA
ATOM      6  N   UNL     1      12.147   8.398  20.947  0.00  0.00    -0.297 N 
ATOM      9  C   UNL     1      11.748  10.827  21.152  0.00  0.00    +0.016 C 
ATOM     10  C   UNL     1      11.025  10.598  22.506  0.00  0.00    +0.006 C 
ATOM     11  C   UNL     1      10.449   9.169  22.549  0.00  0.00    +0.023 C 
ATOM     12  C   UNL     1      12.776   9.723  20.866  0.00  0.00    +0.112 C 
ATOM     13  C   UNL     1      11.495   8.105  22.222  0.00  0.00    +0.108 C 
ATOM     17  C   UNL     1      12.174   7.423  19.947  0.00  0.00    +0.252 C 
ENDROOT
BRANCH  17  21
ATOM      4  O   UNL     1      14.389   8.011  17.105  0.00  0.00    -0.359 OA
ATOM      8  N   UNL     1      13.198   8.446  16.535  0.00  0.00    -0.083 NA
ATOM     21  C   UNL     1      12.824   7.754  18.673  0.00  0.00    +0.101 A 
ATOM     26  C   UNL     1      14.153   7.601  18.378  0.00  0.00    +0.147 A 
ATOM     27  C   UNL     1      12.278   8.282  17.490  0.00  0.00    +0.093 A 
ATOM     30  C   UNL     1      15.316   7.108  19.127  0.00  0.00    +0.090 C 
ATOM     31  C   UNL     1      10.877   8.650  17.223  0.00  0.00    +0.070 C 
ENDBRANCH  17  21
BRANCH   9  14
ATOM     14  C   UNL     1      12.394  12.208  21.044  0.00  0.00    +0.061 C 
BRANCH  14  16
ATOM      7  N   UNL     1      13.242  12.242  18.797  0.00  0.00    -0.287 NA
ATOM     16  C   UNL     1      13.533  12.164  20.054  0.00  0.00    +0.044 C 
ATOM     18  C   UNL     1      14.920  12.025  20.566  0.00  0.00    -0.001 A 
ATOM     20  C   UNL     1      15.892  11.603  19.649  0.00  0.00    -0.033 A 
ATOM     22  C   UNL     1      15.472  11.310  18.240  0.00  0.00    +0.059 C 
ATOM     23  C   UNL     1      14.352  12.261  17.839  0.00  0.00    +0.146 C 
ATOM     24  C   UNL     1      15.264  12.282  21.894  0.00  0.00    +0.013 A 
ATOM     25  C   UNL     1      17.209  11.415  20.077  0.00  0.00    +0.050 A 
ATOM     28  C   UNL     1      16.585  12.107  22.309  0.00  0.00    +0.046 A 
ATOM     29  C   UNL     1      17.555  11.672  21.404  0.00  0.00    +0.120 A 
BRANCH  29   5
ATOM      5  O   UNL     1      18.839  11.495  21.818  0.00  0.00    -0.495 OA
ATOM     32  C   UNL     1      19.388  10.184  21.685  0.00  0.00    +0.277 C 
ENDBRANCH  29   5
ENDBRANCH  14  16
ENDBRANCH   9  14
BRANCH  10  15
ATOM     15  C   UNL     1      11.900  10.869  23.735  0.00  0.00    +0.124 C 
BRANCH  15  19
ATOM      3  O   UNL     1      10.135  12.333  24.559  0.00  0.00    -0.251 OA
ATOM     19  C   UNL     1      11.231  11.810  24.697  0.00  0.00    +0.305 C 
BRANCH  19   2
ATOM      2  O   UNL     1      12.031  12.008  25.776  0.00  0.00    -0.481 OA
ATOM     33  H   UNL     1      12.980  11.895  25.552  0.00  0.00    +0.295 HD
ENDBRANCH  19   2
ENDBRANCH  15  19
ENDBRANCH  10  15
TORSDOF 7
ENDMDL
MODEL 5
REMARK VINA RESULT:      -6.4     14.493     18.350
REMARK  Name = 51136648
REMARK  10 active torsions:
REMARK  status: ('A' for Active; 'I' for Inactive)
REMARK    1  A    between atoms: O_2  and  C_19
REMARK    2  A    between atoms: O_5  and  C_29
REMARK    3  A    between atoms: O_5  and  C_32
REMARK    4  A    between atoms: C_9  and  C_14
REMARK    5  A    between atoms: C_10  and  C_15
REMARK    6  A    between atoms: C_14  and  C_16
REMARK    7  A    between atoms: C_15  and  C_19
REMARK    8  A    between atoms: C_17  and  C_21
REMARK    9  A    between atoms: C_26  and  C_30
REMARK   10  A    between atoms: C_27  and  C_31
REMARK                            x       y       z     vdW  Elec       q    Type
REMARK                         _______ _______ _______ _____ _____    ______ ____
ROOT
ATOM      1  O   UNL     1      14.854   9.261   3.586  0.00  0.00    -0.270 OA
ATOM      6  N   UNL     1      13.351   7.476   3.434  0.00  0.00    -0.297 N 
ATOM      9  C   UNL     1      11.289   6.423   2.571  0.00  0.00    +0.016 C 
ATOM     10  C   UNL     1      12.134   5.555   1.601  0.00  0.00    +0.006 C 
ATOM     11  C   UNL     1      13.465   6.269   1.295  0.00  0.00    +0.023 C 
ATOM     12  C   UNL     1      12.092   6.822   3.818  0.00  0.00    +0.112 C 
ATOM     13  C   UNL     1      14.214   6.682   2.561  0.00  0.00    +0.108 C 
ATOM     17  C   UNL     1      13.780   8.732   3.870  0.00  0.00    +0.252 C 
ENDROOT
BRANCH  17  21
ATOM      4  O   UNL     1      11.416  11.043   5.417  0.00  0.00    -0.359 OA
ATOM      8  N   UNL     1      11.721  10.276   6.536  0.00  0.00    -0.083 NA
ATOM     21  C   UNL     1      12.884   9.510   4.734  0.00  0.00    +0.101 A 
ATOM     26  C   UNL     1      12.114  10.577   4.351  0.00  0.00    +0.147 A 
ATOM     27  C   UNL     1      12.599   9.368   6.103  0.00  0.00    +0.093 A 
ATOM     30  C   UNL     1      11.906  11.282   3.080  0.00  0.00    +0.090 C 
ATOM     31  C   UNL     1      13.144   8.375   7.045  0.00  0.00    +0.070 C 
ENDBRANCH  17  21
BRANCH   9  14
ATOM     14  C   UNL     1       9.968   5.765   2.968  0.00  0.00    +0.061 C 
BRANCH  14  16
ATOM      7  N   UNL     1       8.776   7.615   3.931  0.00  0.00    -0.287 NA
ATOM     16  C   UNL     1       9.371   6.489   4.150  0.00  0.00    +0.044 C 
ATOM     18  C   UNL     1       9.501   5.881   5.500  0.00  0.00    -0.001 A 
ATOM     20  C   UNL     1       9.295   6.729   6.596  0.00  0.00    -0.033 A 
ATOM     22  C   UNL     1       8.978   8.172   6.340  0.00  0.00    +0.059 C 
ATOM     23  C   UNL     1       8.144   8.287   5.071  0.00  0.00    +0.146 C 
ATOM     24  C   UNL     1       9.825   4.538   5.695  0.00  0.00    +0.013 A 
ATOM     25  C   UNL     1       9.441   6.229   7.892  0.00  0.00    +0.050 A 
ATOM     28  C   UNL     1       9.954   4.043   6.994  0.00  0.00    +0.046 A 
ATOM     29  C   UNL     1       9.766   4.886   8.090  0.00  0.00    +0.120 A 
BRANCH  29   5
ATOM      5  O   UNL     1       9.901   4.398   9.353  0.00  0.00    -0.495 OA
ATOM     32  C   UNL     1       8.848   4.681  10.274  0.00  0.00    +0.277 C 
ENDBRANCH  29   5
ENDBRANCH  14  16
ENDBRANCH   9  14
BRANCH  10  15
ATOM     15  C   UNL     1      12.383   4.127   2.097  0.00  0.00    +0.124 C 
BRANCH  15  19
ATOM      3  O   UNL     1      13.236   3.124   0.046  0.00  0.00    -0.251 OA
ATOM     19  C   UNL     1      13.373   3.401   1.228  0.00  0.00    +0.305 C 
BRANCH  19   2
ATOM      2  O   UNL     1      14.476   3.087   1.955  0.00  0.00    -0.481 OA
ATOM     33  H   UNL     1      15.203   2.751   1.388  0.00  0.00    +0.295 HD
ENDBRANCH  19   2
ENDBRANCH  15  19
ENDBRANCH  10  15
TORSDOF 7
ENDMDL
MODEL 6
REMARK VINA RESULT:      -6.3     14.445     18.399
REMARK  Name = 51136648
REMARK  10 active torsions:
REMARK  status: ('A' for Active; 'I' for Inactive)
REMARK    1  A    between atoms: O_2  and  C_19
REMARK    2  A    between atoms: O_5  and  C_29
REMARK    3  A    between atoms: O_5  and  C_32
REMARK    4  A    between atoms: C_9  and  C_14
REMARK    5  A    between atoms: C_10  and  C_15
REMARK    6  A    between atoms: C_14  and  C_16
REMARK    7  A    between atoms: C_15  and  C_19
REMARK    8  A    between atoms: C_17  and  C_21
REMARK    9  A    between atoms: C_26  and  C_30
REMARK   10  A    between atoms: C_27  and  C_31
REMARK                            x       y       z     vdW  Elec       q    Type
REMARK                         _______ _______ _______ _____ _____    ______ ____
ROOT
ATOM      1  O   UNL     1      15.213   8.343   3.728  0.00  0.00    -0.270 OA
ATOM      6  N   UNL     1      13.331   7.003   3.364  0.00  0.00    -0.297 N 
ATOM      9  C   UNL     1      10.996   6.669   2.629  0.00  0.00    +0.016 C 
ATOM     10  C   UNL     1      11.499   5.998   1.324  0.00  0.00    +0.006 C 
ATOM     11  C   UNL     1      12.915   6.509   0.992  0.00  0.00    +0.023 C 
ATOM     12  C   UNL     1      12.009   6.510   3.773  0.00  0.00    +0.112 C 
ATOM     13  C   UNL     1      13.880   6.367   2.168  0.00  0.00    +0.108 C 
ATOM     17  C   UNL     1      14.087   7.962   4.044  0.00  0.00    +0.252 C 
ENDROOT
BRANCH  17  21
ATOM      4  O   UNL     1      12.789   8.902   7.324  0.00  0.00    -0.359 OA
ATOM      8  N   UNL     1      12.512  10.083   6.644  0.00  0.00    -0.083 NA
ATOM     21  C   UNL     1      13.501   8.592   5.234  0.00  0.00    +0.101 A 
ATOM     26  C   UNL     1      13.378   8.022   6.475  0.00  0.00    +0.147 A 
ATOM     27  C   UNL     1      12.947   9.873   5.398  0.00  0.00    +0.093 A 
ATOM     30  C   UNL     1      13.737   6.715   7.039  0.00  0.00    +0.090 C 
ATOM     31  C   UNL     1      12.808  10.937   4.390  0.00  0.00    +0.070 C 
ENDBRANCH  17  21
BRANCH   9  14
ATOM     14  C   UNL     1       9.614   6.180   3.060  0.00  0.00    +0.061 C 
BRANCH  14  16
ATOM      7  N   UNL     1       8.712   8.057   4.258  0.00  0.00    -0.287 NA
ATOM     16  C   UNL     1       9.206   6.865   4.342  0.00  0.00    +0.044 C 
ATOM     18  C   UNL     1       9.396   6.146   5.628  0.00  0.00    -0.001 A 
ATOM     20  C   UNL     1       9.380   6.924   6.793  0.00  0.00    -0.033 A 
ATOM     22  C   UNL     1       9.190   8.406   6.668  0.00  0.00    +0.059 C 
ATOM     23  C   UNL     1       8.260   8.697   5.497  0.00  0.00    +0.146 C 
ATOM     24  C   UNL     1       9.597   4.767   5.700  0.00  0.00    +0.013 A 
ATOM     25  C   UNL     1       9.592   6.314   8.033  0.00  0.00    +0.050 A 
ATOM     28  C   UNL     1       9.793   4.164   6.943  0.00  0.00    +0.046 A 
ATOM     29  C   UNL     1       9.793   4.935   8.106  0.00  0.00    +0.120 A 
BRANCH  29   5
ATOM      5  O   UNL     1       9.994   4.341   9.315  0.00  0.00    -0.495 OA
ATOM     32  C   UNL     1       9.037   4.614  10.338  0.00  0.00    +0.277 C 
ENDBRANCH  29   5
ENDBRANCH  14  16
ENDBRANCH   9  14
BRANCH  10  15
ATOM     15  C   UNL     1      11.468   4.466   1.357  0.00  0.00    +0.124 C 
BRANCH  15  19
ATOM      3  O   UNL     1      12.664   3.302  -0.419  0.00  0.00    -0.251 OA
ATOM     19  C   UNL     1      11.665   3.877  -0.012  0.00  0.00    +0.305 C 
BRANCH  19   2
ATOM      2  O   UNL     1      10.549   4.073  -0.760  0.00  0.00    -0.481 OA
ATOM     33  H   UNL     1      10.075   4.891  -0.501  0.00  0.00    +0.295 HD
ENDBRANCH  19   2
ENDBRANCH  15  19
ENDBRANCH  10  15
TORSDOF 7
ENDMDL
MODEL 7
REMARK VINA RESULT:      -6.2     26.850     30.773
REMARK  Name = 51136648
REMARK  10 active torsions:
REMARK  status: ('A' for Active; 'I' for Inactive)
REMARK    1  A    between atoms: O_2  and  C_19
REMARK    2  A    between atoms: O_5  and  C_29
REMARK    3  A    between atoms: O_5  and  C_32
REMARK    4  A    between atoms: C_9  and  C_14
REMARK    5  A    between atoms: C_10  and  C_15
REMARK    6  A    between atoms: C_14  and  C_16
REMARK    7  A    between atoms: C_15  and  C_19
REMARK    8  A    between atoms: C_17  and  C_21
REMARK    9  A    between atoms: C_26  and  C_30
REMARK   10  A    between atoms: C_27  and  C_31
REMARK                            x       y       z     vdW  Elec       q    Type
REMARK                         _______ _______ _______ _____ _____    ______ ____
ROOT
ATOM      1  O   UNL     1      -6.857 -12.445  11.329  0.00  0.00    -0.270 OA
ATOM      6  N   UNL     1      -5.670 -11.283  12.974  0.00  0.00    -0.297 N 
ATOM      9  C   UNL     1      -5.024 -10.873  15.323  0.00  0.00    +0.016 C 
ATOM     10  C   UNL     1      -3.649 -11.545  15.066  0.00  0.00    +0.006 C 
ATOM     11  C   UNL     1      -3.772 -12.542  13.898  0.00  0.00    +0.023 C 
ATOM     12  C   UNL     1      -5.608 -10.270  14.037  0.00  0.00    +0.112 C 
ATOM     13  C   UNL     1      -4.392 -11.913  12.651  0.00  0.00    +0.108 C 
ATOM     17  C   UNL     1      -6.813 -11.630  12.249  0.00  0.00    +0.252 C 
ENDROOT
BRANCH  17  21
ATOM      4  O   UNL     1      -9.883  -9.674  12.524  0.00  0.00    -0.359 OA
ATOM      8  N   UNL     1      -9.998 -10.410  13.698  0.00  0.00    -0.083 NA
ATOM     21  C   UNL     1      -8.084 -10.989  12.608  0.00  0.00    +0.101 A 
ATOM     26  C   UNL     1      -8.740 -10.029  11.883  0.00  0.00    +0.147 A 
ATOM     27  C   UNL     1      -8.913 -11.188  13.725  0.00  0.00    +0.093 A 
ATOM     30  C   UNL     1      -8.465  -9.340  10.616  0.00  0.00    +0.090 C 
ATOM     31  C   UNL     1      -8.708 -12.113  14.854  0.00  0.00    +0.070 C 
ENDBRANCH  17  21
BRANCH   9  14
ATOM     14  C   UNL     1      -4.981  -9.828  16.437  0.00  0.00    +0.061 C 
BRANCH  14  16
ATOM      7  N   UNL     1      -4.919 -10.991  18.538  0.00  0.00    -0.287 NA
ATOM     16  C   UNL     1      -5.654 -10.371  17.675  0.00  0.00    +0.044 C 
ATOM     18  C   UNL     1      -7.118 -10.177  17.835  0.00  0.00    -0.001 A 
ATOM     20  C   UNL     1      -7.766 -11.003  18.764  0.00  0.00    -0.033 A 
ATOM     22  C   UNL     1      -6.956 -12.021  19.509  0.00  0.00    +0.059 C 
ATOM     23  C   UNL     1      -5.562 -11.465  19.768  0.00  0.00    +0.146 C 
ATOM     24  C   UNL     1      -7.840  -9.236  17.101  0.00  0.00    +0.013 A 
ATOM     25  C   UNL     1      -9.149 -10.898  18.933  0.00  0.00    +0.050 A 
ATOM     28  C   UNL     1      -9.219  -9.126  17.289  0.00  0.00    +0.046 A 
ATOM     29  C   UNL     1      -9.872  -9.957  18.200  0.00  0.00    +0.120 A 
BRANCH  29   5
ATOM      5  O   UNL     1     -11.219  -9.851  18.371  0.00  0.00    -0.495 OA
ATOM     32  C   UNL     1     -11.901  -8.889  17.568  0.00  0.00    +0.277 C 
ENDBRANCH  29   5
ENDBRANCH  14  16
ENDBRANCH   9  14
BRANCH  10  15
ATOM     15  C   UNL     1      -2.506 -10.554  14.817  0.00  0.00    +0.124 C 
BRANCH  15  19
ATOM      3  O   UNL     1      -0.347 -10.140  15.868  0.00  0.00    -0.251 OA
ATOM     19  C   UNL     1      -1.474 -10.611  15.908  0.00  0.00    +0.305 C 
BRANCH  19   2
ATOM      2  O   UNL     1      -1.976 -11.276  16.980  0.00  0.00    -0.481 OA
ATOM     33  H   UNL     1      -2.914 -11.041  17.149  0.00  0.00    +0.295 HD
ENDBRANCH  19   2
ENDBRANCH  15  19
ENDBRANCH  10  15
TORSDOF 7
ENDMDL
MODEL 8
REMARK VINA RESULT:      -6.2     28.002     30.734
REMARK  Name = 51136648
REMARK  10 active torsions:
REMARK  status: ('A' for Active; 'I' for Inactive)
REMARK    1  A    between atoms: O_2  and  C_19
REMARK    2  A    between atoms: O_5  and  C_29
REMARK    3  A    between atoms: O_5  and  C_32
REMARK    4  A    between atoms: C_9  and  C_14
REMARK    5  A    between atoms: C_10  and  C_15
REMARK    6  A    between atoms: C_14  and  C_16
REMARK    7  A    between atoms: C_15  and  C_19
REMARK    8  A    between atoms: C_17  and  C_21
REMARK    9  A    between atoms: C_26  and  C_30
REMARK   10  A    between atoms: C_27  and  C_31
REMARK                            x       y       z     vdW  Elec       q    Type
REMARK                         _______ _______ _______ _____ _____    ______ ____
ROOT
ATOM      1  O   UNL     1      -2.979 -12.544  11.862  0.00  0.00    -0.270 OA
ATOM      6  N   UNL     1      -3.695 -11.522  13.839  0.00  0.00    -0.297 N 
ATOM      9  C   UNL     1      -5.442 -10.919  15.479  0.00  0.00    +0.016 C 
ATOM     10  C   UNL     1      -4.912 -12.007  16.449  0.00  0.00    +0.006 C 
ATOM     11  C   UNL     1      -4.195 -13.110  15.647  0.00  0.00    +0.023 C 
ATOM     12  C   UNL     1      -4.336 -10.404  14.547  0.00  0.00    +0.112 C 
ATOM     13  C   UNL     1      -3.128 -12.553  14.706  0.00  0.00    +0.108 C 
ATOM     17  C   UNL     1      -3.555 -11.632  12.453  0.00  0.00    +0.252 C 
ENDROOT
BRANCH  17  21
ATOM      4  O   UNL     1      -4.346  -8.823  10.260  0.00  0.00    -0.359 OA
ATOM      8  N   UNL     1      -5.638  -9.282  10.486  0.00  0.00    -0.083 NA
ATOM     21  C   UNL     1      -4.148 -10.586  11.610  0.00  0.00    +0.101 A 
ATOM     26  C   UNL     1      -3.467  -9.608  10.934  0.00  0.00    +0.147 A 
ATOM     27  C   UNL     1      -5.494 -10.336  11.294  0.00  0.00    +0.093 A 
ATOM     30  C   UNL     1      -2.047  -9.256  10.801  0.00  0.00    +0.090 C 
ATOM     31  C   UNL     1      -6.685 -11.077  11.745  0.00  0.00    +0.070 C 
ENDBRANCH  17  21
BRANCH   9  14
ATOM     14  C   UNL     1      -6.127  -9.757  16.197  0.00  0.00    +0.061 C 
BRANCH  14  16
ATOM      7  N   UNL     1      -8.065  -9.655  14.783  0.00  0.00    -0.287 NA
ATOM     16  C   UNL     1      -7.619  -9.831  15.983  0.00  0.00    +0.044 C 
ATOM     18  C   UNL     1      -8.498 -10.090  17.153  0.00  0.00    -0.001 A 
ATOM     20  C   UNL     1      -9.854  -9.772  17.006  0.00  0.00    -0.033 A 
ATOM     22  C   UNL     1     -10.320  -9.186  15.707  0.00  0.00    +0.059 C 
ATOM     23  C   UNL     1      -9.510  -9.787  14.565  0.00  0.00    +0.146 C 
ATOM     24  C   UNL     1      -8.019 -10.611  18.355  0.00  0.00    +0.013 A 
ATOM     25  C   UNL     1     -10.726  -9.955  18.082  0.00  0.00    +0.050 A 
ATOM     28  C   UNL     1      -8.900 -10.806  19.420  0.00  0.00    +0.046 A 
ATOM     29  C   UNL     1     -10.249 -10.476  19.286  0.00  0.00    +0.120 A 
BRANCH  29   5
ATOM      5  O   UNL     1     -11.101 -10.661  20.331  0.00  0.00    -0.495 OA
ATOM     32  C   UNL     1     -12.321  -9.920  20.313  0.00  0.00    +0.277 C 
ENDBRANCH  29   5
ENDBRANCH  14  16
ENDBRANCH   9  14
BRANCH  10  15
ATOM     15  C   UNL     1      -4.004 -11.464  17.559  0.00  0.00    +0.124 C 
BRANCH  15  19
ATOM      3  O   UNL     1      -3.456 -12.197  19.818  0.00  0.00    -0.251 OA
ATOM     19  C   UNL     1      -4.205 -12.204  18.853  0.00  0.00    +0.305 C 
BRANCH  19   2
ATOM      2  O   UNL     1      -5.367 -12.904  18.804  0.00  0.00    -0.481 OA
ATOM     33  H   UNL     1      -5.308 -13.745  19.306  0.00  0.00    +0.295 HD
ENDBRANCH  19   2
ENDBRANCH  15  19
ENDBRANCH  10  15
TORSDOF 7
ENDMDL
MODEL 9
REMARK VINA RESULT:      -6.2     30.883     32.330
REMARK  Name = 51136648
REMARK  10 active torsions:
REMARK  status: ('A' for Active; 'I' for Inactive)
REMARK    1  A    between atoms: O_2  and  C_19
REMARK    2  A    between atoms: O_5  and  C_29
REMARK    3  A    between atoms: O_5  and  C_32
REMARK    4  A    between atoms: C_9  and  C_14
REMARK    5  A    between atoms: C_10  and  C_15
REMARK    6  A    between atoms: C_14  and  C_16
REMARK    7  A    between atoms: C_15  and  C_19
REMARK    8  A    between atoms: C_17  and  C_21
REMARK    9  A    between atoms: C_26  and  C_30
REMARK   10  A    between atoms: C_27  and  C_31
REMARK                            x       y       z     vdW  Elec       q    Type
REMARK                         _______ _______ _______ _____ _____    ______ ____
ROOT
ATOM      1  O   UNL     1     -14.067   4.879  34.097  0.00  0.00    -0.270 OA
ATOM      6  N   UNL     1     -15.266   3.738  32.445  0.00  0.00    -0.297 N 
ATOM      9  C   UNL     1     -15.975   3.395  30.103  0.00  0.00    +0.016 C 
ATOM     10  C   UNL     1     -15.015   2.183  29.985  0.00  0.00    +0.006 C 
ATOM     11  C   UNL     1     -13.859   2.339  30.993  0.00  0.00    +0.023 C 
ATOM     12  C   UNL     1     -16.428   3.620  31.554  0.00  0.00    +0.112 C 
ATOM     13  C   UNL     1     -14.352   2.597  32.416  0.00  0.00    +0.108 C 
ATOM     17  C   UNL     1     -15.016   4.800  33.317  0.00  0.00    +0.252 C 
ENDROOT
BRANCH  17  21
ATOM      4  O   UNL     1     -16.820   7.946  32.905  0.00  0.00    -0.359 OA
ATOM      8  N   UNL     1     -17.756   7.268  33.677  0.00  0.00    -0.083 NA
ATOM     21  C   UNL     1     -15.945   5.936  33.312  0.00  0.00    +0.101 A 
ATOM     26  C   UNL     1     -15.746   7.143  32.694  0.00  0.00    +0.147 A 
ATOM     27  C   UNL     1     -17.212   6.070  33.906  0.00  0.00    +0.093 A 
ATOM     30  C   UNL     1     -14.656   7.712  31.891  0.00  0.00    +0.090 C 
ATOM     31  C   UNL     1     -17.947   5.078  34.710  0.00  0.00    +0.070 C 
ENDBRANCH  17  21
BRANCH   9  14
ATOM     14  C   UNL     1     -17.181   3.297  29.171  0.00  0.00    +0.061 C 
BRANCH  14  16
ATOM      7  N   UNL     1     -17.602   5.626  28.759  0.00  0.00    -0.287 NA
ATOM     16  C   UNL     1     -17.221   4.498  28.256  0.00  0.00    +0.044 C 
ATOM     18  C   UNL     1     -16.831   4.325  26.833  0.00  0.00    -0.001 A 
ATOM     20  C   UNL     1     -17.239   5.326  25.942  0.00  0.00    -0.033 A 
ATOM     22  C   UNL     1     -18.042   6.477  26.470  0.00  0.00    +0.059 C 
ATOM     23  C   UNL     1     -17.582   6.804  27.885  0.00  0.00    +0.146 C 
ATOM     24  C   UNL     1     -16.107   3.223  26.377  0.00  0.00    +0.013 A 
ATOM     25  C   UNL     1     -16.939   5.204  24.582  0.00  0.00    +0.050 A 
ATOM     28  C   UNL     1     -15.797   3.117  25.020  0.00  0.00    +0.046 A 
ATOM     29  C   UNL     1     -16.215   4.103  24.124  0.00  0.00    +0.120 A 
BRANCH  29   5
ATOM      5  O   UNL     1     -15.917   3.988  22.801  0.00  0.00    -0.495 OA
ATOM     32  C   UNL     1     -16.746   4.704  21.885  0.00  0.00    +0.277 C 
ENDBRANCH  29   5
ENDBRANCH  14  16
ENDBRANCH   9  14
BRANCH  10  15
ATOM     15  C   UNL     1     -15.702   0.823  30.153  0.00  0.00    +0.124 C 
BRANCH  15  19
ATOM      3  O   UNL     1     -14.019  -0.646  29.180  0.00  0.00    -0.251 OA
ATOM     19  C   UNL     1     -14.711  -0.308  30.128  0.00  0.00    +0.305 C 
BRANCH  19   2
ATOM      2  O   UNL     1     -14.686  -0.922  31.338  0.00  0.00    -0.481 OA
ATOM     33  H   UNL     1     -15.066  -1.825  31.297  0.00  0.00    +0.295 HD
ENDBRANCH  19   2
ENDBRANCH  15  19
ENDBRANCH  10  15
TORSDOF 7
ENDMDL
MODEL 10
REMARK VINA RESULT:      -6.2     28.799     31.113
REMARK  Name = 51136648
REMARK  10 active torsions:
REMARK  status: ('A' for Active; 'I' for Inactive)
REMARK    1  A    between atoms: O_2  and  C_19
REMARK    2  A    between atoms: O_5  and  C_29
REMARK    3  A    between atoms: O_5  and  C_32
REMARK    4  A    between atoms: C_9  and  C_14
REMARK    5  A    between atoms: C_10  and  C_15
REMARK    6  A    between atoms: C_14  and  C_16
REMARK    7  A    between atoms: C_15  and  C_19
REMARK    8  A    between atoms: C_17  and  C_21
REMARK    9  A    between atoms: C_26  and  C_30
REMARK   10  A    between atoms: C_27  and  C_31
REMARK                            x       y       z     vdW  Elec       q    Type
REMARK                         _______ _______ _______ _____ _____    ______ ____
ROOT
ATOM      1  O   UNL     1      -4.917 -12.474  12.183  0.00  0.00    -0.270 OA
ATOM      6  N   UNL     1      -5.061 -11.407  14.259  0.00  0.00    -0.297 N 
ATOM      9  C   UNL     1      -6.277 -10.790  16.319  0.00  0.00    +0.016 C 
ATOM     10  C   UNL     1      -5.462 -11.838  17.120  0.00  0.00    +0.006 C 
ATOM     11  C   UNL     1      -4.977 -12.951  16.170  0.00  0.00    +0.023 C 
ATOM     12  C   UNL     1      -5.499 -10.282  15.096  0.00  0.00    +0.112 C 
ATOM     13  C   UNL     1      -4.241 -12.402  14.949  0.00  0.00    +0.108 C 
ATOM     17  C   UNL     1      -5.322 -11.555  12.895  0.00  0.00    +0.252 C 
ENDROOT
BRANCH  17  21
ATOM      4  O   UNL     1      -6.783  -8.826  10.960  0.00  0.00    -0.359 OA
ATOM      8  N   UNL     1      -7.944  -9.304  11.558  0.00  0.00    -0.083 NA
ATOM     21  C   UNL     1      -6.159 -10.546  12.235  0.00  0.00    +0.101 A 
ATOM     26  C   UNL     1      -5.727  -9.574  11.371  0.00  0.00    +0.147 A 
ATOM     27  C   UNL     1      -7.546 -10.331  12.313  0.00  0.00    +0.093 A 
ATOM     30  C   UNL     1      -4.415  -9.199  10.829  0.00  0.00    +0.090 C 
ATOM     31  C   UNL     1      -8.538 -11.082  13.102  0.00  0.00    +0.070 C 
ENDBRANCH  17  21
BRANCH   9  14
ATOM     14  C   UNL     1      -6.756  -9.620  17.177  0.00  0.00    +0.061 C 
BRANCH  14  16
ATOM      7  N   UNL     1      -8.026 -10.901  18.764  0.00  0.00    -0.287 NA
ATOM     16  C   UNL     1      -8.055  -9.981  17.857  0.00  0.00    +0.044 C 
ATOM     18  C   UNL     1      -9.296  -9.274  17.447  0.00  0.00    -0.001 A 
ATOM     20  C   UNL     1     -10.511  -9.879  17.795  0.00  0.00    -0.033 A 
ATOM     22  C   UNL     1     -10.480 -11.185  18.531  0.00  0.00    +0.059 C 
ATOM     23  C   UNL     1      -9.277 -11.208  19.465  0.00  0.00    +0.146 C 
ATOM     24  C   UNL     1      -9.281  -8.072  16.738  0.00  0.00    +0.013 A 
ATOM     25  C   UNL     1     -11.714  -9.285  17.405  0.00  0.00    +0.050 A 
ATOM     28  C   UNL     1     -10.488  -7.477  16.367  0.00  0.00    +0.046 A 
ATOM     29  C   UNL     1     -11.701  -8.083  16.697  0.00  0.00    +0.120 A 
BRANCH  29   5
ATOM      5  O   UNL     1     -12.874  -7.502  16.323  0.00  0.00    -0.495 OA
ATOM     32  C   UNL     1     -12.790  -6.348  15.488  0.00  0.00    +0.277 C 
ENDBRANCH  29   5
ENDBRANCH  14  16
ENDBRANCH   9  14
BRANCH  10  15
ATOM     15  C   UNL     1      -4.288 -11.247  17.908  0.00  0.00    +0.124 C 
BRANCH  15  19
ATOM      3  O   UNL     1      -3.265 -12.247  19.881  0.00  0.00    -0.251 OA
ATOM     19  C   UNL     1      -4.240 -11.777  19.315  0.00  0.00    +0.305 C 
BRANCH  19   2
ATOM      2  O   UNL     1      -5.463 -11.657  19.891  0.00  0.00    -0.481 OA
ATOM     33  H   UNL     1      -5.459 -11.960  20.824  0.00  0.00    +0.295 HD
ENDBRANCH  19   2
ENDBRANCH  15  19
ENDBRANCH  10  15
TORSDOF 7
ENDMDL
