MODEL 1
REMARK VINA RESULT:      -5.6      0.000      0.000
REMARK  Name = 75537028
REMARK  6 active torsions:
REMARK  status: ('A' for Active; 'I' for Inactive)
REMARK    1  A    between atoms: S_1  and  N_7
REMARK    2  A    between atoms: S_1  and  C_16
REMARK    3  A    between atoms: O_5  and  C_17
REMARK    4  A    between atoms: O_5  and  C_23
REMARK    5  A    between atoms: N_8  and  C_15
REMARK    6  A    between atoms: C_15  and  C_17
REMARK                            x       y       z     vdW  Elec       q    Type
REMARK                         _______ _______ _______ _____ _____    ______ ____
ROOT
ATOM      2  O   UNL     1      19.441   8.453  22.606  0.00  0.00    -0.252 OA
ATOM      6  N   UNL     1      17.568   8.196  21.210  0.00  0.00    -0.278 N 
ATOM      7  N   UNL     1      14.873   8.133  20.474  0.00  0.00    -0.173 NA
ATOM      8  N   UNL     1      19.204   6.661  21.092  0.00  0.00    -0.281 N 
ATOM      9  C   UNL     1      17.169   7.322  20.124  0.00  0.00    +0.111 C 
ATOM     10  C   UNL     1      15.712   6.903  20.287  0.00  0.00    +0.133 C 
ATOM     11  C   UNL     1      18.173   6.173  20.193  0.00  0.00    +0.133 C 
ATOM     12  C   UNL     1      16.746   9.340  21.550  0.00  0.00    +0.127 C 
ATOM     13  C   UNL     1      15.288   8.913  21.687  0.00  0.00    +0.128 C 
ATOM     14  C   UNL     1      18.817   7.849  21.743  0.00  0.00    +0.305 C 
ENDROOT
BRANCH   7   1
ATOM      1  S   UNL     1      13.183   7.895  20.303  0.00  0.00    +0.061 S 
ATOM      3  O   UNL     1      12.487   8.791  21.201  0.00  0.00    -0.153 OA
ATOM      4  O   UNL     1      12.908   6.475  20.305  0.00  0.00    -0.153 OA
BRANCH   1  16
ATOM     16  C   UNL     1      12.954   8.492  18.657  0.00  0.00    +0.105 A 
ATOM     18  C   UNL     1      14.027   9.050  17.963  0.00  0.00    +0.028 A 
ATOM     19  C   UNL     1      11.700   8.409  18.053  0.00  0.00    +0.028 A 
ATOM     20  C   UNL     1      13.847   9.525  16.664  0.00  0.00    +0.002 A 
ATOM     21  C   UNL     1      11.519   8.884  16.755  0.00  0.00    +0.002 A 
ATOM     22  C   UNL     1      12.592   9.442  16.060  0.00  0.00    +0.000 A 
ENDBRANCH   1  16
ENDBRANCH   7   1
BRANCH   8  15
ATOM     15  C   UNL     1      20.410   5.907  21.354  0.00  0.00    +0.137 C 
BRANCH  15  17
ATOM     17  C   UNL     1      20.508   4.683  20.462  0.00  0.00    +0.178 C 
BRANCH  17   5
ATOM      5  O   UNL     1      21.597   3.876  20.885  0.00  0.00    -0.381 OA
ATOM     23  C   UNL     1      21.910   4.096  22.253  0.00  0.00    +0.194 C 
ENDBRANCH  17   5
ENDBRANCH  15  17
ENDBRANCH   8  15
TORSDOF 5
ENDMDL
MODEL 2
REMARK VINA RESULT:      -5.6     26.657     29.386
REMARK  Name = 75537028
REMARK  6 active torsions:
REMARK  status: ('A' for Active; 'I' for Inactive)
REMARK    1  A    between atoms: S_1  and  N_7
REMARK    2  A    between atoms: S_1  and  C_16
REMARK    3  A    between atoms: O_5  and  C_17
REMARK    4  A    between atoms: O_5  and  C_23
REMARK    5  A    between atoms: N_8  and  C_15
REMARK    6  A    between atoms: C_15  and  C_17
REMARK                            x       y       z     vdW  Elec       q    Type
REMARK                         _______ _______ _______ _____ _____    ______ ____
ROOT
ATOM      2  O   UNL     1      -7.284 -13.770  17.641  0.00  0.00    -0.252 OA
ATOM      6  N   UNL     1      -5.882 -12.402  16.342  0.00  0.00    -0.278 N 
ATOM      7  N   UNL     1      -3.628 -11.660  14.866  0.00  0.00    -0.173 NA
ATOM      8  N   UNL     1      -6.867 -11.507  18.152  0.00  0.00    -0.281 N 
ATOM      9  C   UNL     1      -5.516 -11.000  16.298  0.00  0.00    +0.111 C 
ATOM     10  C   UNL     1      -4.016 -10.848  16.067  0.00  0.00    +0.133 C 
ATOM     11  C   UNL     1      -6.013 -10.452  17.634  0.00  0.00    +0.133 C 
ATOM     12  C   UNL     1      -5.438 -13.293  15.288  0.00  0.00    +0.127 C 
ATOM     13  C   UNL     1      -3.942 -13.116  15.050  0.00  0.00    +0.128 C 
ATOM     14  C   UNL     1      -6.748 -12.695  17.405  0.00  0.00    +0.305 C 
ENDROOT
BRANCH   7   1
ATOM      1  S   UNL     1      -2.069 -11.325  14.234  0.00  0.00    +0.061 S 
ATOM      3  O   UNL     1      -1.420 -12.572  13.893  0.00  0.00    -0.153 OA
ATOM      4  O   UNL     1      -1.419 -10.352  15.083  0.00  0.00    -0.153 OA
BRANCH   1  16
ATOM     16  C   UNL     1      -2.516 -10.519  12.727  0.00  0.00    +0.105 A 
ATOM     18  C   UNL     1      -1.533  -9.927  11.936  0.00  0.00    +0.028 A 
ATOM     19  C   UNL     1      -3.853 -10.473  12.331  0.00  0.00    +0.028 A 
ATOM     20  C   UNL     1      -1.885  -9.287  10.747  0.00  0.00    +0.002 A 
ATOM     21  C   UNL     1      -4.205  -9.833  11.143  0.00  0.00    +0.002 A 
ATOM     22  C   UNL     1      -3.222  -9.240  10.352  0.00  0.00    +0.000 A 
ENDBRANCH   1  16
ENDBRANCH   7   1
BRANCH   8  15
ATOM     15  C   UNL     1      -7.628 -11.346  19.371  0.00  0.00    +0.137 C 
BRANCH  15  17
ATOM     17  C   UNL     1      -9.027 -10.830  19.091  0.00  0.00    +0.178 C 
BRANCH  17   5
ATOM      5  O   UNL     1      -9.739 -10.707  20.315  0.00  0.00    -0.381 OA
ATOM     23  C   UNL     1     -11.059 -10.224  20.106  0.00  0.00    +0.194 C 
ENDBRANCH  17   5
ENDBRANCH  15  17
ENDBRANCH   8  15
TORSDOF 5
ENDMDL
MODEL 3
REMARK VINA RESULT:      -5.6     27.477     29.043
REMARK  Name = 75537028
REMARK  6 active torsions:
REMARK  status: ('A' for Active; 'I' for Inactive)
REMARK    1  A    between atoms: S_1  and  N_7
REMARK    2  A    between atoms: S_1  and  C_16
REMARK    3  A    between atoms: O_5  and  C_17
REMARK    4  A    between atoms: O_5  and  C_23
REMARK    5  A    between atoms: N_8  and  C_15
REMARK    6  A    between atoms: C_15  and  C_17
REMARK                            x       y       z     vdW  Elec       q    Type
REMARK                         _______ _______ _______ _____ _____    ______ ____
ROOT
ATOM      2  O   UNL     1      -7.535 -11.321  16.415  0.00  0.00    -0.252 OA
ATOM      6  N   UNL     1      -5.549 -10.711  15.317  0.00  0.00    -0.278 N 
ATOM      7  N   UNL     1      -3.611 -10.658  13.303  0.00  0.00    -0.173 NA
ATOM      8  N   UNL     1      -5.446 -11.220  17.502  0.00  0.00    -0.281 N 
ATOM      9  C   UNL     1      -4.175 -10.439  15.689  0.00  0.00    +0.111 C 
ATOM     10  C   UNL     1      -3.216 -11.079  14.689  0.00  0.00    +0.133 C 
ATOM     11  C   UNL     1      -4.067 -10.984  17.111  0.00  0.00    +0.133 C 
ATOM     12  C   UNL     1      -5.989 -10.459  13.959  0.00  0.00    +0.127 C 
ATOM     13  C   UNL     1      -5.011 -11.083  12.969  0.00  0.00    +0.128 C 
ATOM     14  C   UNL     1      -6.329 -11.107  16.412  0.00  0.00    +0.305 C 
ENDROOT
BRANCH   7   1
ATOM      1  S   UNL     1      -2.443 -10.971  12.087  0.00  0.00    +0.061 S 
ATOM      3  O   UNL     1      -2.193 -12.394  12.029  0.00  0.00    -0.153 OA
ATOM      4  O   UNL     1      -1.357 -10.026  12.227  0.00  0.00    -0.153 OA
BRANCH   1  16
ATOM     16  C   UNL     1      -3.370 -10.525  10.651  0.00  0.00    +0.105 A 
ATOM     18  C   UNL     1      -3.503  -9.183  10.297  0.00  0.00    +0.028 A 
ATOM     19  C   UNL     1      -3.970 -11.516   9.873  0.00  0.00    +0.028 A 
ATOM     20  C   UNL     1      -4.237  -8.830   9.165  0.00  0.00    +0.002 A 
ATOM     21  C   UNL     1      -4.704 -11.163   8.741  0.00  0.00    +0.002 A 
ATOM     22  C   UNL     1      -4.838  -9.821   8.387  0.00  0.00    +0.000 A 
ENDBRANCH   1  16
ENDBRANCH   7   1
BRANCH   8  15
ATOM     15  C   UNL     1      -5.799 -11.649  18.837  0.00  0.00    +0.137 C 
BRANCH  15  17
ATOM     17  C   UNL     1      -6.475 -10.538  19.620  0.00  0.00    +0.178 C 
BRANCH  17   5
ATOM      5  O   UNL     1      -7.753 -10.978  20.058  0.00  0.00    -0.381 OA
ATOM     23  C   UNL     1      -7.954 -12.357  19.779  0.00  0.00    +0.194 C 
ENDBRANCH  17   5
ENDBRANCH  15  17
ENDBRANCH   8  15
TORSDOF 5
ENDMDL
MODEL 4
REMARK VINA RESULT:      -5.6      3.475      7.521
REMARK  Name = 75537028
REMARK  6 active torsions:
REMARK  status: ('A' for Active; 'I' for Inactive)
REMARK    1  A    between atoms: S_1  and  N_7
REMARK    2  A    between atoms: S_1  and  C_16
REMARK    3  A    between atoms: O_5  and  C_17
REMARK    4  A    between atoms: O_5  and  C_23
REMARK    5  A    between atoms: N_8  and  C_15
REMARK    6  A    between atoms: C_15  and  C_17
REMARK                            x       y       z     vdW  Elec       q    Type
REMARK                         _______ _______ _______ _____ _____    ______ ____
ROOT
ATOM      2  O   UNL     1      16.156  12.683  16.719  0.00  0.00    -0.252 OA
ATOM      6  N   UNL     1      14.860  11.036  17.782  0.00  0.00    -0.278 N 
ATOM      7  N   UNL     1      14.250   8.954  19.544  0.00  0.00    -0.173 NA
ATOM      8  N   UNL     1      14.744  11.206  15.545  0.00  0.00    -0.281 N 
ATOM      9  C   UNL     1      13.837  10.082  17.397  0.00  0.00    +0.111 C 
ATOM     10  C   UNL     1      14.086   8.735  18.068  0.00  0.00    +0.133 C 
ATOM     11  C   UNL     1      13.916  10.057  15.872  0.00  0.00    +0.133 C 
ATOM     12  C   UNL     1      15.181  11.218  19.183  0.00  0.00    +0.127 C 
ATOM     13  C   UNL     1      15.404   9.864  19.848  0.00  0.00    +0.128 C 
ATOM     14  C   UNL     1      15.352  11.760  16.687  0.00  0.00    +0.305 C 
ENDROOT
BRANCH   7   1
ATOM      1  S   UNL     1      14.168   7.535  20.504  0.00  0.00    +0.061 S 
ATOM      3  O   UNL     1      13.273   6.590  19.872  0.00  0.00    -0.153 OA
ATOM      4  O   UNL     1      13.994   7.915  21.888  0.00  0.00    -0.153 OA
BRANCH   1  16
ATOM     16  C   UNL     1      15.816   6.934  20.306  0.00  0.00    +0.105 A 
ATOM     18  C   UNL     1      16.180   6.269  19.136  0.00  0.00    +0.028 A 
ATOM     19  C   UNL     1      16.753   7.123  21.322  0.00  0.00    +0.028 A 
ATOM     20  C   UNL     1      17.481   5.791  18.981  0.00  0.00    +0.002 A 
ATOM     21  C   UNL     1      18.054   6.645  21.167  0.00  0.00    +0.002 A 
ATOM     22  C   UNL     1      18.418   5.979  19.997  0.00  0.00    +0.000 A 
ENDBRANCH   1  16
ENDBRANCH   7   1
BRANCH   8  15
ATOM     15  C   UNL     1      14.987  11.607  14.177  0.00  0.00    +0.137 C 
BRANCH  15  17
ATOM     17  C   UNL     1      13.815  12.384  13.606  0.00  0.00    +0.178 C 
BRANCH  17   5
ATOM      5  O   UNL     1      13.478  11.860  12.329  0.00  0.00    -0.381 OA
ATOM     23  C   UNL     1      12.324  12.493  11.793  0.00  0.00    +0.194 C 
ENDBRANCH  17   5
ENDBRANCH  15  17
ENDBRANCH   8  15
TORSDOF 5
ENDMDL
MODEL 5
REMARK VINA RESULT:      -5.3      4.455      7.210
REMARK  Name = 75537028
REMARK  6 active torsions:
REMARK  status: ('A' for Active; 'I' for Inactive)
REMARK    1  A    between atoms: S_1  and  N_7
REMARK    2  A    between atoms: S_1  and  C_16
REMARK    3  A    between atoms: O_5  and  C_17
REMARK    4  A    between atoms: O_5  and  C_23
REMARK    5  A    between atoms: N_8  and  C_15
REMARK    6  A    between atoms: C_15  and  C_17
REMARK                            x       y       z     vdW  Elec       q    Type
REMARK                         _______ _______ _______ _____ _____    ______ ____
ROOT
ATOM      2  O   UNL     1      16.160  13.242  16.857  0.00  0.00    -0.252 OA
ATOM      6  N   UNL     1      14.533  11.547  16.817  0.00  0.00    -0.278 N 
ATOM      7  N   UNL     1      12.898   9.499  17.789  0.00  0.00    -0.173 NA
ATOM      8  N   UNL     1      16.043  11.616  15.155  0.00  0.00    -0.281 N 
ATOM      9  C   UNL     1      14.113  10.505  15.900  0.00  0.00    +0.111 C 
ATOM     10  C   UNL     1      13.840   9.209  16.657  0.00  0.00    +0.133 C 
ATOM     11  C   UNL     1      15.257  10.423  14.891  0.00  0.00    +0.133 C 
ATOM     12  C   UNL     1      13.754  11.810  18.010  0.00  0.00    +0.127 C 
ATOM     13  C   UNL     1      13.468  10.505  18.745  0.00  0.00    +0.128 C 
ATOM     14  C   UNL     1      15.641  12.261  16.340  0.00  0.00    +0.305 C 
ENDROOT
BRANCH   7   1
ATOM      1  S   UNL     1      12.189   8.118  18.518  0.00  0.00    +0.061 S 
ATOM      3  O   UNL     1      12.097   7.061  17.536  0.00  0.00    -0.153 OA
ATOM      4  O   UNL     1      11.031   8.533  19.279  0.00  0.00    -0.153 OA
BRANCH   1  16
ATOM     16  C   UNL     1      13.464   7.686  19.661  0.00  0.00    +0.105 A 
ATOM     18  C   UNL     1      13.345   8.040  21.005  0.00  0.00    +0.028 A 
ATOM     19  C   UNL     1      14.591   6.994  19.219  0.00  0.00    +0.028 A 
ATOM     20  C   UNL     1      14.353   7.703  21.907  0.00  0.00    +0.002 A 
ATOM     21  C   UNL     1      15.599   6.656  20.122  0.00  0.00    +0.002 A 
ATOM     22  C   UNL     1      15.481   7.011  21.465  0.00  0.00    +0.000 A 
ENDBRANCH   1  16
ENDBRANCH   7   1
BRANCH   8  15
ATOM     15  C   UNL     1      17.179  11.979  14.337  0.00  0.00    +0.137 C 
BRANCH  15  17
ATOM     17  C   UNL     1      16.925  13.259  13.564  0.00  0.00    +0.178 C 
BRANCH  17   5
ATOM      5  O   UNL     1      15.830  13.067  12.678  0.00  0.00    -0.381 OA
ATOM     23  C   UNL     1      16.207  12.303  11.541  0.00  0.00    +0.194 C 
ENDBRANCH  17   5
ENDBRANCH  15  17
ENDBRANCH   8  15
TORSDOF 5
ENDMDL
MODEL 6
REMARK VINA RESULT:      -5.2     27.145     29.676
REMARK  Name = 75537028
REMARK  6 active torsions:
REMARK  status: ('A' for Active; 'I' for Inactive)
REMARK    1  A    between atoms: S_1  and  N_7
REMARK    2  A    between atoms: S_1  and  C_16
REMARK    3  A    between atoms: O_5  and  C_17
REMARK    4  A    between atoms: O_5  and  C_23
REMARK    5  A    between atoms: N_8  and  C_15
REMARK    6  A    between atoms: C_15  and  C_17
REMARK                            x       y       z     vdW  Elec       q    Type
REMARK                         _______ _______ _______ _____ _____    ______ ____
ROOT
ATOM      2  O   UNL     1      -3.869 -11.828  19.117  0.00  0.00    -0.252 OA
ATOM      6  N   UNL     1      -5.917 -10.878  18.464  0.00  0.00    -0.278 N 
ATOM      7  N   UNL     1      -8.680 -10.675  18.096  0.00  0.00    -0.173 NA
ATOM      8  N   UNL     1      -4.189 -10.777  17.032  0.00  0.00    -0.281 N 
ATOM      9  C   UNL     1      -6.409 -10.083  17.356  0.00  0.00    +0.111 C 
ATOM     10  C   UNL     1      -7.774 -10.590  16.902  0.00  0.00    +0.133 C 
ATOM     11  C   UNL     1      -5.307 -10.198  16.306  0.00  0.00    +0.133 C 
ATOM     12  C   UNL     1      -6.773 -11.125  19.607  0.00  0.00    +0.127 C 
ATOM     13  C   UNL     1      -8.142 -11.609  19.140  0.00  0.00    +0.128 C 
ATOM     14  C   UNL     1      -4.570 -11.233  18.308  0.00  0.00    +0.305 C 
ENDROOT
BRANCH   7   1
ATOM      1  S   UNL     1     -10.345 -10.867  17.734  0.00  0.00    +0.061 S 
ATOM      3  O   UNL     1     -11.110 -10.751  18.957  0.00  0.00    -0.153 OA
ATOM      4  O   UNL     1     -10.506 -12.007  16.858  0.00  0.00    -0.153 OA
BRANCH   1  16
ATOM     16  C   UNL     1     -10.623  -9.406  16.782  0.00  0.00    +0.105 A 
ATOM     18  C   UNL     1     -10.492  -8.151  17.377  0.00  0.00    +0.028 A 
ATOM     19  C   UNL     1     -10.976  -9.507  15.436  0.00  0.00    +0.028 A 
ATOM     20  C   UNL     1     -10.714  -6.997  16.627  0.00  0.00    +0.002 A 
ATOM     21  C   UNL     1     -11.198  -8.352  14.686  0.00  0.00    +0.002 A 
ATOM     22  C   UNL     1     -11.068  -7.098  15.281  0.00  0.00    +0.000 A 
ENDBRANCH   1  16
ENDBRANCH   7   1
BRANCH   8  15
ATOM     15  C   UNL     1      -2.893 -10.961  16.419  0.00  0.00    +0.137 C 
BRANCH  15  17
ATOM     17  C   UNL     1      -2.981 -10.933  14.904  0.00  0.00    +0.178 C 
BRANCH  17   5
ATOM      5  O   UNL     1      -1.891 -10.188  14.381  0.00  0.00    -0.381 OA
ATOM     23  C   UNL     1      -0.943  -9.870  15.390  0.00  0.00    +0.194 C 
ENDBRANCH  17   5
ENDBRANCH  15  17
ENDBRANCH   8  15
TORSDOF 5
ENDMDL
MODEL 7
REMARK VINA RESULT:      -5.1      5.251      7.668
REMARK  Name = 75537028
REMARK  6 active torsions:
REMARK  status: ('A' for Active; 'I' for Inactive)
REMARK    1  A    between atoms: S_1  and  N_7
REMARK    2  A    between atoms: S_1  and  C_16
REMARK    3  A    between atoms: O_5  and  C_17
REMARK    4  A    between atoms: O_5  and  C_23
REMARK    5  A    between atoms: N_8  and  C_15
REMARK    6  A    between atoms: C_15  and  C_17
REMARK                            x       y       z     vdW  Elec       q    Type
REMARK                         _______ _______ _______ _____ _____    ______ ____
ROOT
ATOM      2  O   UNL     1      12.126   6.634  19.414  0.00  0.00    -0.252 OA
ATOM      6  N   UNL     1      12.562   8.505  20.767  0.00  0.00    -0.278 N 
ATOM      7  N   UNL     1      12.037  10.601  22.540  0.00  0.00    -0.173 NA
ATOM      8  N   UNL     1      13.436   8.458  18.698  0.00  0.00    -0.281 N 
ATOM      9  C   UNL     1      13.388   9.695  20.693  0.00  0.00    +0.111 C 
ATOM     10  C   UNL     1      12.613  10.912  21.189  0.00  0.00    +0.133 C 
ATOM     11  C   UNL     1      13.804   9.760  19.225  0.00  0.00    +0.133 C 
ATOM     12  C   UNL     1      11.859   8.194  21.995  0.00  0.00    +0.127 C 
ATOM     13  C   UNL     1      11.108   9.424  22.493  0.00  0.00    +0.128 C 
ATOM     14  C   UNL     1      12.645   7.726  19.604  0.00  0.00    +0.305 C 
ENDROOT
BRANCH   7   1
ATOM      1  S   UNL     1      11.454  11.958  23.412  0.00  0.00    +0.061 S 
ATOM      3  O   UNL     1      10.296  11.561  24.182  0.00  0.00    -0.153 OA
ATOM      4  O   UNL     1      11.405  13.099  22.525  0.00  0.00    -0.153 OA
BRANCH   1  16
ATOM     16  C   UNL     1      12.794  12.199  24.536  0.00  0.00    +0.105 A 
ATOM     18  C   UNL     1      12.601  12.938  25.702  0.00  0.00    +0.028 A 
ATOM     19  C   UNL     1      14.047  11.653  24.255  0.00  0.00    +0.028 A 
ATOM     20  C   UNL     1      13.660  13.132  26.589  0.00  0.00    +0.002 A 
ATOM     21  C   UNL     1      15.106  11.847  25.142  0.00  0.00    +0.002 A 
ATOM     22  C   UNL     1      14.913  12.587  26.308  0.00  0.00    +0.000 A 
ENDBRANCH   1  16
ENDBRANCH   7   1
BRANCH   8  15
ATOM     15  C   UNL     1      13.756   8.063  17.344  0.00  0.00    +0.137 C 
BRANCH  15  17
ATOM     17  C   UNL     1      13.223   9.060  16.331  0.00  0.00    +0.178 C 
BRANCH  17   5
ATOM      5  O   UNL     1      14.309   9.750  15.730  0.00  0.00    -0.381 OA
ATOM     23  C   UNL     1      13.946  11.072  15.356  0.00  0.00    +0.194 C 
ENDBRANCH  17   5
ENDBRANCH  15  17
ENDBRANCH   8  15
TORSDOF 5
ENDMDL
MODEL 8
REMARK VINA RESULT:      -5.1     29.110     31.726
REMARK  Name = 75537028
REMARK  6 active torsions:
REMARK  status: ('A' for Active; 'I' for Inactive)
REMARK    1  A    between atoms: S_1  and  N_7
REMARK    2  A    between atoms: S_1  and  C_16
REMARK    3  A    between atoms: O_5  and  C_17
REMARK    4  A    between atoms: O_5  and  C_23
REMARK    5  A    between atoms: N_8  and  C_15
REMARK    6  A    between atoms: C_15  and  C_17
REMARK                            x       y       z     vdW  Elec       q    Type
REMARK                         _______ _______ _______ _____ _____    ______ ____
ROOT
ATOM      2  O   UNL     1     -12.229  -8.878  13.927  0.00  0.00    -0.252 OA
ATOM      6  N   UNL     1     -10.506  -9.259  15.479  0.00  0.00    -0.278 N 
ATOM      7  N   UNL     1      -8.980 -10.637  17.372  0.00  0.00    -0.173 NA
ATOM      8  N   UNL     1     -11.594  -7.294  15.554  0.00  0.00    -0.281 N 
ATOM      9  C   UNL     1      -9.805  -8.493  16.491  0.00  0.00    +0.111 C 
ATOM     10  C   UNL     1      -9.611  -9.329  17.752  0.00  0.00    +0.133 C 
ATOM     11  C   UNL     1     -10.675  -7.252  16.679  0.00  0.00    +0.133 C 
ATOM     12  C   UNL     1     -10.046 -10.590  15.139  0.00  0.00    +0.127 C 
ATOM     13  C   UNL     1      -9.833 -11.409  16.409  0.00  0.00    +0.128 C 
ATOM     14  C   UNL     1     -11.528  -8.521  14.866  0.00  0.00    +0.305 C 
ENDROOT
BRANCH   7   1
ATOM      1  S   UNL     1      -8.350 -11.549  18.681  0.00  0.00    +0.061 S 
ATOM      3  O   UNL     1      -8.731 -12.935  18.516  0.00  0.00    -0.153 OA
ATOM      4  O   UNL     1      -8.618 -10.843  19.915  0.00  0.00    -0.153 OA
BRANCH   1  16
ATOM     16  C   UNL     1      -6.623 -11.418  18.342  0.00  0.00    +0.105 A 
ATOM     18  C   UNL     1      -5.707 -12.153  19.096  0.00  0.00    +0.028 A 
ATOM     19  C   UNL     1      -6.173 -10.578  17.324  0.00  0.00    +0.028 A 
ATOM     20  C   UNL     1      -4.342 -12.048  18.831  0.00  0.00    +0.002 A 
ATOM     21  C   UNL     1      -4.808 -10.473  17.059  0.00  0.00    +0.002 A 
ATOM     22  C   UNL     1      -3.892 -11.207  17.813  0.00  0.00    +0.000 A 
ENDBRANCH   1  16
ENDBRANCH   7   1
BRANCH   8  15
ATOM     15  C   UNL     1     -12.537  -6.229  15.296  0.00  0.00    +0.137 C 
BRANCH  15  17
ATOM     17  C   UNL     1     -12.080  -5.343  14.151  0.00  0.00    +0.178 C 
BRANCH  17   5
ATOM      5  O   UNL     1     -13.176  -4.568  13.687  0.00  0.00    -0.381 OA
ATOM     23  C   UNL     1     -12.836  -3.829  12.522  0.00  0.00    +0.194 C 
ENDBRANCH  17   5
ENDBRANCH  15  17
ENDBRANCH   8  15
TORSDOF 5
ENDMDL
MODEL 9
REMARK VINA RESULT:      -5.1      2.847      7.558
REMARK  Name = 75537028
REMARK  6 active torsions:
REMARK  status: ('A' for Active; 'I' for Inactive)
REMARK    1  A    between atoms: S_1  and  N_7
REMARK    2  A    between atoms: S_1  and  C_16
REMARK    3  A    between atoms: O_5  and  C_17
REMARK    4  A    between atoms: O_5  and  C_23
REMARK    5  A    between atoms: N_8  and  C_15
REMARK    6  A    between atoms: C_15  and  C_17
REMARK                            x       y       z     vdW  Elec       q    Type
REMARK                         _______ _______ _______ _____ _____    ______ ____
ROOT
ATOM      2  O   UNL     1      13.926   6.592  19.243  0.00  0.00    -0.252 OA
ATOM      6  N   UNL     1      15.956   7.549  19.937  0.00  0.00    -0.278 N 
ATOM      7  N   UNL     1      18.499   7.683  21.091  0.00  0.00    -0.173 NA
ATOM      8  N   UNL     1      14.055   8.678  20.334  0.00  0.00    -0.281 N 
ATOM      9  C   UNL     1      16.393   8.812  20.500  0.00  0.00    +0.111 C 
ATOM     10  C   UNL     1      17.410   8.575  21.613  0.00  0.00    +0.133 C 
ATOM     11  C   UNL     1      15.096   9.477  20.956  0.00  0.00    +0.133 C 
ATOM     12  C   UNL     1      16.940   6.568  19.526  0.00  0.00    +0.127 C 
ATOM     13  C   UNL     1      17.964   6.357  20.637  0.00  0.00    +0.128 C 
ATOM     14  C   UNL     1      14.566   7.493  19.768  0.00  0.00    +0.305 C 
ENDROOT
BRANCH   7   1
ATOM      1  S   UNL     1      19.907   7.607  22.067  0.00  0.00    +0.061 S 
ATOM      3  O   UNL     1      20.402   6.248  22.075  0.00  0.00    -0.153 OA
ATOM      4  O   UNL     1      19.661   8.319  23.301  0.00  0.00    -0.153 OA
BRANCH   1  16
ATOM     16  C   UNL     1      21.011   8.578  21.089  0.00  0.00    +0.105 A 
ATOM     18  C   UNL     1      22.054   7.963  20.397  0.00  0.00    +0.028 A 
ATOM     19  C   UNL     1      20.841   9.960  21.011  0.00  0.00    +0.028 A 
ATOM     20  C   UNL     1      22.928   8.730  19.627  0.00  0.00    +0.002 A 
ATOM     21  C   UNL     1      21.715  10.727  20.241  0.00  0.00    +0.002 A 
ATOM     22  C   UNL     1      22.759  10.113  19.550  0.00  0.00    +0.000 A 
ENDBRANCH   1  16
ENDBRANCH   7   1
BRANCH   8  15
ATOM     15  C   UNL     1      12.657   9.035  20.430  0.00  0.00    +0.137 C 
BRANCH  15  17
ATOM     17  C   UNL     1      11.950   8.238  21.511  0.00  0.00    +0.178 C 
BRANCH  17   5
ATOM      5  O   UNL     1      11.083   7.288  20.908  0.00  0.00    -0.381 OA
ATOM     23  C   UNL     1      11.225   6.003  21.499  0.00  0.00    +0.194 C 
ENDBRANCH  17   5
ENDBRANCH  15  17
ENDBRANCH   8  15
TORSDOF 5
ENDMDL
MODEL 10
REMARK VINA RESULT:      -5.0     30.135     32.296
REMARK  Name = 75537028
REMARK  6 active torsions:
REMARK  status: ('A' for Active; 'I' for Inactive)
REMARK    1  A    between atoms: S_1  and  N_7
REMARK    2  A    between atoms: S_1  and  C_16
REMARK    3  A    between atoms: O_5  and  C_17
REMARK    4  A    between atoms: O_5  and  C_23
REMARK    5  A    between atoms: N_8  and  C_15
REMARK    6  A    between atoms: C_15  and  C_17
REMARK                            x       y       z     vdW  Elec       q    Type
REMARK                         _______ _______ _______ _____ _____    ______ ____
ROOT
ATOM      2  O   UNL     1     -12.236  -9.310  16.523  0.00  0.00    -0.252 OA
ATOM      6  N   UNL     1     -12.824  -7.203  15.664  0.00  0.00    -0.278 N 
ATOM      7  N   UNL     1     -14.050  -5.342  13.977  0.00  0.00    -0.173 NA
ATOM      8  N   UNL     1     -10.674  -7.576  16.196  0.00  0.00    -0.281 N 
ATOM      9  C   UNL     1     -12.172  -5.925  15.456  0.00  0.00    +0.111 C 
ATOM     10  C   UNL     1     -12.554  -5.347  14.097  0.00  0.00    +0.133 C 
ATOM     11  C   UNL     1     -10.687  -6.243  15.617  0.00  0.00    +0.133 C 
ATOM     12  C   UNL     1     -14.252  -7.325  15.443  0.00  0.00    +0.127 C 
ATOM     13  C   UNL     1     -14.624  -6.723  14.092  0.00  0.00    +0.128 C 
ATOM     14  C   UNL     1     -11.949  -8.172  16.174  0.00  0.00    +0.305 C 
ENDROOT
BRANCH   7   1
ATOM      1  S   UNL     1     -14.674  -4.397  12.689  0.00  0.00    +0.061 S 
ATOM      3  O   UNL     1     -14.703  -3.008  13.094  0.00  0.00    -0.153 OA
ATOM      4  O   UNL     1     -15.854  -5.046  12.161  0.00  0.00    -0.153 OA
BRANCH   1  16
ATOM     16  C   UNL     1     -13.373  -4.589  11.510  0.00  0.00    +0.105 A 
ATOM     18  C   UNL     1     -12.561  -3.503  11.186  0.00  0.00    +0.028 A 
ATOM     19  C   UNL     1     -13.161  -5.826  10.901  0.00  0.00    +0.028 A 
ATOM     20  C   UNL     1     -11.536  -3.653  10.252  0.00  0.00    +0.002 A 
ATOM     21  C   UNL     1     -12.136  -5.976   9.968  0.00  0.00    +0.002 A 
ATOM     22  C   UNL     1     -11.324  -4.890   9.642  0.00  0.00    +0.000 A 
ENDBRANCH   1  16
ENDBRANCH   7   1
BRANCH   8  15
ATOM     15  C   UNL     1      -9.446  -8.219  16.606  0.00  0.00    +0.137 C 
BRANCH  15  17
ATOM     17  C   UNL     1      -8.927  -9.165  15.539  0.00  0.00    +0.178 C 
BRANCH  17   5
ATOM      5  O   UNL     1      -7.782  -9.848  16.029  0.00  0.00    -0.381 OA
ATOM     23  C   UNL     1      -7.501  -9.497  17.377  0.00  0.00    +0.194 C 
ENDBRANCH  17   5
ENDBRANCH  15  17
ENDBRANCH   8  15
TORSDOF 5
ENDMDL
