REMARK  Name = 45784226
REMARK  6 active torsions:
REMARK  status: ('A' for Active; 'I' for Inactive)
REMARK    1  A    between atoms: S_1  and  C_23
REMARK    2  A    between atoms: S_1  and  C_26
REMARK    3  A    between atoms: N_4  and  C_12
REMARK    4  A    between atoms: C_7  and  C_11
REMARK    5  A    between atoms: C_12  and  C_13
REMARK    6  A    between atoms: C_20  and  C_25
REMARK                            x       y       z     vdW  Elec       q    Type
REMARK                         _______ _______ _______ _____ _____    ______ ____
ROOT
ATOM      4  N   UNL     1      -0.653  -0.170  -0.323  0.00  0.00    -0.297 NA
ATOM      7  C   UNL     1       1.512  -0.821   0.299  0.00  0.00    +0.070 C 
ATOM      8  C   UNL     1       0.765  -0.277   1.530  0.00  0.00    +0.028 C 
ATOM      9  C   UNL     1       0.680  -0.349  -0.901  0.00  0.00    +0.096 C 
ATOM     10  C   UNL     1      -0.422   0.491   0.962  0.00  0.00    +0.085 C 
ENDROOT
BRANCH   7  11
ATOM      5  N   UNL     1       3.964  -1.346   0.185  0.00  0.00    -0.342 N 
ATOM      6  N   UNL     1       3.434   0.811   0.139  0.00  0.00    -0.232 NA
ATOM     11  C   UNL     1       2.964  -0.414   0.207  0.00  0.00    +0.113 A 
ATOM     14  C   UNL     1       5.158  -0.678   0.097  0.00  0.00    +0.066 A 
ATOM     15  C   UNL     1       4.801   0.667   0.070  0.00  0.00    +0.089 A 
ATOM     18  C   UNL     1       6.480  -1.121   0.041  0.00  0.00    +0.031 A 
ATOM     19  C   UNL     1       5.809   1.642  -0.019  0.00  0.00    +0.030 A 
ATOM     20  C   UNL     1       7.470  -0.138  -0.047  0.00  0.00    -0.048 A 
ATOM     24  C   UNL     1       7.143   1.220  -0.077  0.00  0.00    +0.005 A 
ATOM     25  C   UNL     1       8.905  -0.549  -0.111  0.00  0.00    +0.044 C 
ATOM     27  H   UNL     1       3.848  -2.350   0.227  0.00  0.00    +0.167 HD
ENDBRANCH   7  11
BRANCH   4  12
ATOM     12  C   UNL     1      -1.536   0.598  -1.189  0.00  0.00    +0.119 C 
BRANCH  12  13
ATOM     13  C   UNL     1      -2.983   0.412  -0.821  0.00  0.00    -0.033 A 
ATOM     16  C   UNL     1      -3.648  -0.762  -1.175  0.00  0.00    +0.007 A 
ATOM     17  C   UNL     1      -3.660   1.414  -0.125  0.00  0.00    +0.007 A 
ATOM     21  C   UNL     1      -4.990  -0.934  -0.833  0.00  0.00    +0.027 A 
ATOM     22  C   UNL     1      -5.001   1.242   0.216  0.00  0.00    +0.027 A 
ATOM     23  C   UNL     1      -5.666   0.069  -0.138  0.00  0.00    +0.088 A 
BRANCH  23   1
ATOM      1  S   UNL     1      -7.345  -0.148   0.292  0.00  0.00    -0.006 S 
ATOM      2  O   UNL     1      -7.959   1.160   0.470  0.00  0.00    -0.170 OA
ATOM      3  O   UNL     1      -7.928  -1.100  -0.643  0.00  0.00    -0.170 OA
ATOM     26  C   UNL     1      -7.294  -0.919   1.895  0.00  0.00    +0.200 C 
ENDBRANCH  23   1
ENDBRANCH  12  13
ENDBRANCH   4  12
TORSDOF 4
