REMARK  Name = 75536096
REMARK  9 active torsions:
REMARK  status: ('A' for Active; 'I' for Inactive)
REMARK    1  A    between atoms: S_1  and  N_10
REMARK    2  A    between atoms: S_1  and  C_19
REMARK    3  A    between atoms: O_5  and  C_13
REMARK    4  A    between atoms: O_6  and  C_15
REMARK    5  A    between atoms: O_9  and  C_22
REMARK    6  A    between atoms: O_9  and  C_29
REMARK    7  A    between atoms: N_10  and  C_11
REMARK    8  A    between atoms: C_12  and  C_16
REMARK    9  A    between atoms: C_27  and  C_28
REMARK                            x       y       z     vdW  Elec       q    Type
REMARK                         _______ _______ _______ _____ _____    ______ ____
ROOT
ATOM     11  C   UNL     1      -2.571   0.223   0.160  0.00  0.00    +0.115 C 
ATOM     12  C   UNL     1      -2.081  -0.783  -0.918  0.00  0.00    +0.043 C 
ATOM     13  C   UNL     1      -3.989  -0.227   0.538  0.00  0.00    +0.162 C 
ATOM     14  C   UNL     1      -3.188  -1.845  -1.020  0.00  0.00    +0.043 C 
ATOM     15  C   UNL     1      -4.443  -1.071  -0.649  0.00  0.00    +0.145 C 
ENDROOT
BRANCH  12  16
ATOM     16  C   UNL     1      -0.717  -1.373  -0.634  0.00  0.00    -0.042 A 
ATOM     17  C   UNL     1       0.319  -1.209  -1.553  0.00  0.00    +0.007 A 
ATOM     18  C   UNL     1      -0.496  -2.080   0.548  0.00  0.00    +0.007 A 
ATOM     20  C   UNL     1       1.577  -1.753  -1.291  0.00  0.00    +0.046 A 
ATOM     21  C   UNL     1       0.761  -2.624   0.810  0.00  0.00    +0.046 A 
ATOM     22  C   UNL     1       1.798  -2.461  -0.109  0.00  0.00    +0.120 A 
BRANCH  22   9
ATOM      9  O   UNL     1       3.025  -2.991   0.147  0.00  0.00    -0.495 OA
ATOM     29  C   UNL     1       3.181  -3.702   1.374  0.00  0.00    +0.277 C 
ENDBRANCH  22   9
ENDBRANCH  12  16
BRANCH  13   5
ATOM      5  O   UNL     1      -3.900  -1.023   1.718  0.00  0.00    -0.388 OA
ATOM     31  H   UNL     1      -3.604  -0.443   2.441  0.00  0.00    +0.210 HD
ENDBRANCH  13   5
BRANCH  15   6
ATOM      6  O   UNL     1      -5.510  -1.939  -0.325  0.00  0.00    -0.389 OA
ATOM     32  H   UNL     1      -5.679  -2.498  -1.102  0.00  0.00    +0.210 HD
ENDBRANCH  15   6
BRANCH  11  10
ATOM     10  N   UNL     1      -2.627   1.586  -0.430  0.00  0.00    -0.184 NA
ATOM     30  H   UNL     1      -3.019   1.684  -1.374  0.00  0.00    +0.148 HD
BRANCH  10   1
ATOM      1  S   UNL     1      -1.753   2.854   0.285  0.00  0.00    +0.059 S 
ATOM      7  O   UNL     1      -2.105   2.952   1.689  0.00  0.00    -0.153 OA
ATOM      8  O   UNL     1      -1.837   4.022  -0.571  0.00  0.00    -0.153 OA
BRANCH   1  19
ATOM     19  C   UNL     1      -0.092   2.257   0.180  0.00  0.00    +0.105 A 
ATOM     23  C   UNL     1       0.441   1.495   1.220  0.00  0.00    +0.029 A 
ATOM     24  C   UNL     1       0.685   2.550  -0.941  0.00  0.00    +0.029 A 
ATOM     25  C   UNL     1       1.752   1.026   1.138  0.00  0.00    +0.014 A 
ATOM     26  C   UNL     1       1.996   2.080  -1.022  0.00  0.00    +0.014 A 
ATOM     27  C   UNL     1       2.530   1.318   0.018  0.00  0.00    +0.055 A 
BRANCH  27  28
ATOM      2  F   UNL     1       4.298   0.090   1.027  0.00  0.00    -0.166 F 
ATOM      3  F   UNL     1       4.155  -0.000  -1.141  0.00  0.00    -0.166 F 
ATOM      4  F   UNL     1       4.862   1.810  -0.178  0.00  0.00    -0.166 F 
ATOM     28  C   UNL     1       3.931   0.816  -0.069  0.00  0.00    +0.417 C 
ENDBRANCH  27  28
ENDBRANCH   1  19
ENDBRANCH  10   1
ENDBRANCH  11  10
TORSDOF 8
