MODEL 1
REMARK VINA RESULT:      -6.5      0.000      0.000
REMARK  Name = 75537036
REMARK  4 active torsions:
REMARK  status: ('A' for Active; 'I' for Inactive)
REMARK    1  A    between atoms: O_2  and  C_16
REMARK    2  A    between atoms: O_2  and  C_19
REMARK    3  A    between atoms: N_4  and  C_12
REMARK    4  A    between atoms: C_12  and  C_13
REMARK                            x       y       z     vdW  Elec       q    Type
REMARK                         _______ _______ _______ _____ _____    ______ ____
ROOT
ATOM      1  O   UNL     1      10.396   8.702  18.509  0.00  0.00    -0.253 OA
ATOM      3  N   UNL     1      12.498   8.166  19.421  0.00  0.00    -0.279 N 
ATOM      4  N   UNL     1      15.129   7.182  19.566  0.00  0.00    -0.295 NA
ATOM      5  N   UNL     1      10.655   7.700  20.616  0.00  0.00    -0.297 N 
ATOM      6  C   UNL     1      12.999   7.686  20.692  0.00  0.00    +0.109 C 
ATOM      7  C   UNL     1      14.094   6.643  20.471  0.00  0.00    +0.109 C 
ATOM      8  C   UNL     1      13.438   8.582  18.400  0.00  0.00    +0.125 C 
ATOM      9  C   UNL     1      11.749   7.167  21.397  0.00  0.00    +0.129 C 
ATOM     10  C   UNL     1      14.549   7.539  18.256  0.00  0.00    +0.104 C 
ATOM     11  C   UNL     1      11.103   8.252  19.401  0.00  0.00    +0.303 C 
ATOM     20  H   UNL     1       9.675   7.614  20.869  0.00  0.00    +0.150 HD
ENDROOT
BRANCH   4  12
ATOM     12  C   UNL     1      16.212   6.213  19.396  0.00  0.00    +0.119 C 
BRANCH  12  13
ATOM     13  C   UNL     1      17.454   6.624  20.141  0.00  0.00    -0.030 A 
ATOM     14  C   UNL     1      18.595   5.825  20.088  0.00  0.00    +0.050 A 
ATOM     15  C   UNL     1      17.463   7.804  20.886  0.00  0.00    +0.005 A 
ATOM     16  C   UNL     1      19.746   6.206  20.779  0.00  0.00    +0.120 A 
ATOM     17  C   UNL     1      18.612   8.185  21.576  0.00  0.00    +0.004 A 
ATOM     18  C   UNL     1      19.755   7.386  21.523  0.00  0.00    +0.045 A 
BRANCH  16   2
ATOM      2  O   UNL     1      20.859   5.424  20.729  0.00  0.00    -0.495 OA
ATOM     19  C   UNL     1      21.427   5.023  21.974  0.00  0.00    +0.277 C 
ENDBRANCH  16   2
ENDBRANCH  12  13
ENDBRANCH   4  12
TORSDOF 3
ENDMDL
MODEL 2
REMARK VINA RESULT:      -5.8      5.242      8.803
REMARK  Name = 75537036
REMARK  4 active torsions:
REMARK  status: ('A' for Active; 'I' for Inactive)
REMARK    1  A    between atoms: O_2  and  C_16
REMARK    2  A    between atoms: O_2  and  C_19
REMARK    3  A    between atoms: N_4  and  C_12
REMARK    4  A    between atoms: C_12  and  C_13
REMARK                            x       y       z     vdW  Elec       q    Type
REMARK                         _______ _______ _______ _____ _____    ______ ____
ROOT
ATOM      1  O   UNL     1      12.473   6.608  19.193  0.00  0.00    -0.253 OA
ATOM      3  N   UNL     1      11.693   8.479  20.389  0.00  0.00    -0.279 N 
ATOM      4  N   UNL     1      11.737  10.960  21.711  0.00  0.00    -0.295 NA
ATOM      5  N   UNL     1      11.070   6.430  21.066  0.00  0.00    -0.297 N 
ATOM      6  C   UNL     1      10.751   8.719  21.461  0.00  0.00    +0.109 C 
ATOM      7  C   UNL     1      11.312   9.749  22.441  0.00  0.00    +0.109 C 
ATOM      8  C   UNL     1      12.287   9.606  19.701  0.00  0.00    +0.125 C 
ATOM      9  C   UNL     1      10.516   7.331  22.051  0.00  0.00    +0.129 C 
ATOM     10  C   UNL     1      12.780  10.638  20.718  0.00  0.00    +0.104 C 
ATOM     11  C   UNL     1      11.825   7.118  20.097  0.00  0.00    +0.303 C 
ATOM     20  H   UNL     1      10.997   5.418  21.110  0.00  0.00    +0.150 HD
ENDROOT
BRANCH   4  12
ATOM     12  C   UNL     1      12.221  11.975  22.647  0.00  0.00    +0.119 C 
BRANCH  12  13
ATOM     13  C   UNL     1      11.191  13.045  22.896  0.00  0.00    -0.030 A 
ATOM     14  C   UNL     1      10.471  13.581  21.828  0.00  0.00    +0.050 A 
ATOM     15  C   UNL     1      10.957  13.501  24.194  0.00  0.00    +0.005 A 
ATOM     16  C   UNL     1       9.517  14.572  22.059  0.00  0.00    +0.120 A 
ATOM     17  C   UNL     1      10.004  14.491  24.424  0.00  0.00    +0.004 A 
ATOM     18  C   UNL     1       9.283  15.028  23.357  0.00  0.00    +0.045 A 
BRANCH  16   2
ATOM      2  O   UNL     1       8.815  15.098  21.017  0.00  0.00    -0.495 OA
ATOM     19  C   UNL     1       7.424  15.333  21.225  0.00  0.00    +0.277 C 
ENDBRANCH  16   2
ENDBRANCH  12  13
ENDBRANCH   4  12
TORSDOF 3
ENDMDL
MODEL 3
REMARK VINA RESULT:      -5.6      4.474      6.094
REMARK  Name = 75537036
REMARK  4 active torsions:
REMARK  status: ('A' for Active; 'I' for Inactive)
REMARK    1  A    between atoms: O_2  and  C_16
REMARK    2  A    between atoms: O_2  and  C_19
REMARK    3  A    between atoms: N_4  and  C_12
REMARK    4  A    between atoms: C_12  and  C_13
REMARK                            x       y       z     vdW  Elec       q    Type
REMARK                         _______ _______ _______ _____ _____    ______ ____
ROOT
ATOM      1  O   UNL     1      11.029   5.504  21.629  0.00  0.00    -0.253 OA
ATOM      3  N   UNL     1      11.752   7.420  20.469  0.00  0.00    -0.279 N 
ATOM      4  N   UNL     1      13.490   9.209  19.171  0.00  0.00    -0.295 NA
ATOM      5  N   UNL     1      10.366   7.678  22.217  0.00  0.00    -0.297 N 
ATOM      6  C   UNL     1      11.443   8.834  20.485  0.00  0.00    +0.109 C 
ATOM      7  C   UNL     1      12.723   9.659  20.350  0.00  0.00    +0.109 C 
ATOM      8  C   UNL     1      12.621   6.896  19.436  0.00  0.00    +0.125 C 
ATOM      9  C   UNL     1      10.692   9.023  21.800  0.00  0.00    +0.129 C 
ATOM     10  C   UNL     1      13.859   7.785  19.294  0.00  0.00    +0.104 C 
ATOM     11  C   UNL     1      11.049   6.715  21.450  0.00  0.00    +0.303 C 
ATOM     20  H   UNL     1       9.784   7.451  23.018  0.00  0.00    +0.150 HD
ENDROOT
BRANCH   4  12
ATOM     12  C   UNL     1      14.687  10.032  18.998  0.00  0.00    +0.119 C 
BRANCH  12  13
ATOM     13  C   UNL     1      14.560  10.969  17.827  0.00  0.00    -0.030 A 
ATOM     14  C   UNL     1      14.696  10.483  16.527  0.00  0.00    +0.050 A 
ATOM     15  C   UNL     1      14.306  12.324  18.042  0.00  0.00    +0.005 A 
ATOM     16  C   UNL     1      14.578  11.352  15.442  0.00  0.00    +0.120 A 
ATOM     17  C   UNL     1      14.188  13.193  16.958  0.00  0.00    +0.004 A 
ATOM     18  C   UNL     1      14.324  12.707  15.657  0.00  0.00    +0.045 A 
BRANCH  16   2
ATOM      2  O   UNL     1      14.713  10.878  14.173  0.00  0.00    -0.495 OA
ATOM     19  C   UNL     1      15.566  11.610  13.294  0.00  0.00    +0.277 C 
ENDBRANCH  16   2
ENDBRANCH  12  13
ENDBRANCH   4  12
TORSDOF 3
ENDMDL
MODEL 4
REMARK VINA RESULT:      -5.5      2.849      3.417
REMARK  Name = 75537036
REMARK  4 active torsions:
REMARK  status: ('A' for Active; 'I' for Inactive)
REMARK    1  A    between atoms: O_2  and  C_16
REMARK    2  A    between atoms: O_2  and  C_19
REMARK    3  A    between atoms: N_4  and  C_12
REMARK    4  A    between atoms: C_12  and  C_13
REMARK                            x       y       z     vdW  Elec       q    Type
REMARK                         _______ _______ _______ _____ _____    ______ ____
ROOT
ATOM      1  O   UNL     1      11.234  13.122  22.273  0.00  0.00    -0.253 OA
ATOM      3  N   UNL     1      12.478  11.166  21.868  0.00  0.00    -0.279 N 
ATOM      4  N   UNL     1      14.029   9.276  20.479  0.00  0.00    -0.295 NA
ATOM      5  N   UNL     1      10.520  10.992  22.954  0.00  0.00    -0.297 N 
ATOM      6  C   UNL     1      12.396   9.773  22.252  0.00  0.00    +0.109 C 
ATOM      7  C   UNL     1      12.734   8.874  21.063  0.00  0.00    +0.109 C 
ATOM      8  C   UNL     1      13.647  11.637  21.154  0.00  0.00    +0.125 C 
ATOM      9  C   UNL     1      10.972   9.630  22.782  0.00  0.00    +0.129 C 
ATOM     10  C   UNL     1      13.985  10.676  20.012  0.00  0.00    +0.104 C 
ATOM     11  C   UNL     1      11.401  11.912  22.354  0.00  0.00    +0.303 C 
ATOM     20  H   UNL     1       9.636  11.253  23.379  0.00  0.00    +0.150 HD
ENDROOT
BRANCH   4  12
ATOM     12  C   UNL     1      14.390   8.384  19.377  0.00  0.00    +0.119 C 
BRANCH  12  13
ATOM     13  C   UNL     1      15.674   7.646  19.651  0.00  0.00    -0.030 A 
ATOM     14  C   UNL     1      16.528   8.084  20.664  0.00  0.00    +0.050 A 
ATOM     15  C   UNL     1      16.010   6.525  18.892  0.00  0.00    +0.005 A 
ATOM     16  C   UNL     1      17.717   7.400  20.917  0.00  0.00    +0.120 A 
ATOM     17  C   UNL     1      17.199   5.842  19.145  0.00  0.00    +0.004 A 
ATOM     18  C   UNL     1      18.053   6.279  20.158  0.00  0.00    +0.045 A 
BRANCH  16   2
ATOM      2  O   UNL     1      18.551   7.829  21.904  0.00  0.00    -0.495 OA
ATOM     19  C   UNL     1      19.684   7.013  22.196  0.00  0.00    +0.277 C 
ENDBRANCH  16   2
ENDBRANCH  12  13
ENDBRANCH   4  12
TORSDOF 3
ENDMDL
MODEL 5
REMARK VINA RESULT:      -5.5     31.334     32.846
REMARK  Name = 75537036
REMARK  4 active torsions:
REMARK  status: ('A' for Active; 'I' for Inactive)
REMARK    1  A    between atoms: O_2  and  C_16
REMARK    2  A    between atoms: O_2  and  C_19
REMARK    3  A    between atoms: N_4  and  C_12
REMARK    4  A    between atoms: C_12  and  C_13
REMARK                            x       y       z     vdW  Elec       q    Type
REMARK                         _______ _______ _______ _____ _____    ______ ____
ROOT
ATOM      1  O   UNL     1     -14.483  -0.731  29.372  0.00  0.00    -0.253 OA
ATOM      3  N   UNL     1     -14.772   1.442  30.226  0.00  0.00    -0.279 N 
ATOM      4  N   UNL     1     -14.981   3.523  32.105  0.00  0.00    -0.295 NA
ATOM      5  N   UNL     1     -16.176   0.715  28.631  0.00  0.00    -0.297 N 
ATOM      6  C   UNL     1     -15.594   2.592  29.911  0.00  0.00    +0.109 C 
ATOM      7  C   UNL     1     -16.110   3.243  31.194  0.00  0.00    +0.109 C 
ATOM      8  C   UNL     1     -13.727   1.569  31.220  0.00  0.00    +0.125 C 
ATOM      9  C   UNL     1     -16.678   2.020  29.001  0.00  0.00    +0.129 C 
ATOM     10  C   UNL     1     -14.270   2.280  32.462  0.00  0.00    +0.104 C 
ATOM     11  C   UNL     1     -15.063   0.346  29.409  0.00  0.00    +0.303 C 
ATOM     20  H   UNL     1     -16.621   0.102  27.954  0.00  0.00    +0.150 HD
ENDROOT
BRANCH   4  12
ATOM     12  C   UNL     1     -15.457   4.201  33.311  0.00  0.00    +0.119 C 
BRANCH  12  13
ATOM     13  C   UNL     1     -14.612   5.400  33.651  0.00  0.00    -0.030 A 
ATOM     14  C   UNL     1     -14.262   6.311  32.654  0.00  0.00    +0.050 A 
ATOM     15  C   UNL     1     -14.177   5.599  34.961  0.00  0.00    +0.005 A 
ATOM     16  C   UNL     1     -13.479   7.422  32.969  0.00  0.00    +0.120 A 
ATOM     17  C   UNL     1     -13.394   6.708  35.276  0.00  0.00    +0.004 A 
ATOM     18  C   UNL     1     -13.044   7.621  34.280  0.00  0.00    +0.045 A 
BRANCH  16   2
ATOM      2  O   UNL     1     -13.135   8.310  31.996  0.00  0.00    -0.495 OA
ATOM     19  C   UNL     1     -12.571   9.551  32.420  0.00  0.00    +0.277 C 
ENDBRANCH  16   2
ENDBRANCH  12  13
ENDBRANCH   4  12
TORSDOF 3
ENDMDL
MODEL 6
REMARK VINA RESULT:      -5.3     16.056     18.566
REMARK  Name = 75537036
REMARK  4 active torsions:
REMARK  status: ('A' for Active; 'I' for Inactive)
REMARK    1  A    between atoms: O_2  and  C_16
REMARK    2  A    between atoms: O_2  and  C_19
REMARK    3  A    between atoms: N_4  and  C_12
REMARK    4  A    between atoms: C_12  and  C_13
REMARK                            x       y       z     vdW  Elec       q    Type
REMARK                         _______ _______ _______ _____ _____    ______ ____
ROOT
ATOM      1  O   UNL     1      16.201   3.621  -0.024  0.00  0.00    -0.253 OA
ATOM      3  N   UNL     1      14.514   4.466   1.383  0.00  0.00    -0.279 N 
ATOM      4  N   UNL     1      11.946   4.906   2.440  0.00  0.00    -0.295 NA
ATOM      5  N   UNL     1      16.078   5.879   0.605  0.00  0.00    -0.297 N 
ATOM      6  C   UNL     1      14.234   5.723   2.045  0.00  0.00    +0.109 C 
ATOM      7  C   UNL     1      12.744   6.050   1.954  0.00  0.00    +0.109 C 
ATOM      8  C   UNL     1      13.693   3.311   1.677  0.00  0.00    +0.125 C 
ATOM      9  C   UNL     1      15.154   6.715   1.339  0.00  0.00    +0.129 C 
ATOM     10  C   UNL     1      12.212   3.697   1.635  0.00  0.00    +0.104 C 
ATOM     11  C   UNL     1      15.660   4.534   0.586  0.00  0.00    +0.303 C 
ATOM     20  H   UNL     1      16.883   6.227   0.093  0.00  0.00    +0.150 HD
ENDROOT
BRANCH   4  12
ATOM     12  C   UNL     1      10.520   5.231   2.412  0.00  0.00    +0.119 C 
BRANCH  12  13
ATOM     13  C   UNL     1      10.013   5.643   3.769  0.00  0.00    -0.030 A 
ATOM     14  C   UNL     1      10.212   4.811   4.870  0.00  0.00    +0.050 A 
ATOM     15  C   UNL     1       9.343   6.857   3.924  0.00  0.00    +0.005 A 
ATOM     16  C   UNL     1       9.741   5.193   6.127  0.00  0.00    +0.120 A 
ATOM     17  C   UNL     1       8.872   7.239   5.180  0.00  0.00    +0.004 A 
ATOM     18  C   UNL     1       9.071   6.407   6.282  0.00  0.00    +0.045 A 
BRANCH  16   2
ATOM      2  O   UNL     1       9.934   4.380   7.201  0.00  0.00    -0.495 OA
ATOM     19  C   UNL     1       9.612   4.914   8.485  0.00  0.00    +0.277 C 
ENDBRANCH  16   2
ENDBRANCH  12  13
ENDBRANCH   4  12
TORSDOF 3
ENDMDL
MODEL 7
REMARK VINA RESULT:      -5.3     26.824     29.688
REMARK  Name = 75537036
REMARK  4 active torsions:
REMARK  status: ('A' for Active; 'I' for Inactive)
REMARK    1  A    between atoms: O_2  and  C_16
REMARK    2  A    between atoms: O_2  and  C_19
REMARK    3  A    between atoms: N_4  and  C_12
REMARK    4  A    between atoms: C_12  and  C_13
REMARK                            x       y       z     vdW  Elec       q    Type
REMARK                         _______ _______ _______ _____ _____    ______ ____
ROOT
ATOM      1  O   UNL     1     -18.364   3.928  22.479  0.00  0.00    -0.253 OA
ATOM      3  N   UNL     1     -16.284   5.006  22.700  0.00  0.00    -0.279 N 
ATOM      4  N   UNL     1     -13.822   6.147  21.964  0.00  0.00    -0.295 NA
ATOM      5  N   UNL     1     -16.805   3.363  24.140  0.00  0.00    -0.297 N 
ATOM      6  C   UNL     1     -15.193   4.995  23.652  0.00  0.00    +0.109 C 
ATOM      7  C   UNL     1     -13.851   5.023  22.922  0.00  0.00    +0.109 C 
ATOM      8  C   UNL     1     -16.278   5.978  21.626  0.00  0.00    +0.125 C 
ATOM      9  C   UNL     1     -15.450   3.737  24.478  0.00  0.00    +0.129 C 
ATOM     10  C   UNL     1     -14.899   6.016  20.964  0.00  0.00    +0.104 C 
ATOM     11  C   UNL     1     -17.285   4.089  23.033  0.00  0.00    +0.303 C 
ATOM     20  H   UNL     1     -17.320   2.611  24.587  0.00  0.00    +0.150 HD
ENDROOT
BRANCH   4  12
ATOM     12  C   UNL     1     -12.519   6.219  21.303  0.00  0.00    +0.119 C 
BRANCH  12  13
ATOM     13  C   UNL     1     -12.158   7.631  20.927  0.00  0.00    -0.030 A 
ATOM     14  C   UNL     1     -11.228   7.867  19.914  0.00  0.00    +0.050 A 
ATOM     15  C   UNL     1     -12.752   8.705  21.592  0.00  0.00    +0.005 A 
ATOM     16  C   UNL     1     -10.894   9.176  19.566  0.00  0.00    +0.120 A 
ATOM     17  C   UNL     1     -12.417  10.012  21.244  0.00  0.00    +0.004 A 
ATOM     18  C   UNL     1     -11.488  10.249  20.231  0.00  0.00    +0.045 A 
BRANCH  16   2
ATOM      2  O   UNL     1      -9.985   9.406  18.578  0.00  0.00    -0.495 OA
ATOM     19  C   UNL     1     -10.220   8.775  17.320  0.00  0.00    +0.277 C 
ENDBRANCH  16   2
ENDBRANCH  12  13
ENDBRANCH   4  12
TORSDOF 3
ENDMDL
MODEL 8
REMARK VINA RESULT:      -5.2      2.820      7.117
REMARK  Name = 75537036
REMARK  4 active torsions:
REMARK  status: ('A' for Active; 'I' for Inactive)
REMARK    1  A    between atoms: O_2  and  C_16
REMARK    2  A    between atoms: O_2  and  C_19
REMARK    3  A    between atoms: N_4  and  C_12
REMARK    4  A    between atoms: C_12  and  C_13
REMARK                            x       y       z     vdW  Elec       q    Type
REMARK                         _______ _______ _______ _____ _____    ______ ____
ROOT
ATOM      1  O   UNL     1      18.916   5.687  20.088  0.00  0.00    -0.253 OA
ATOM      3  N   UNL     1      16.996   7.023  20.340  0.00  0.00    -0.279 N 
ATOM      4  N   UNL     1      14.644   8.404  19.654  0.00  0.00    -0.295 NA
ATOM      5  N   UNL     1      18.917   7.708  21.281  0.00  0.00    -0.297 N 
ATOM      6  C   UNL     1      16.633   8.207  21.090  0.00  0.00    +0.109 C 
ATOM      7  C   UNL     1      15.787   9.143  20.228  0.00  0.00    +0.109 C 
ATOM      8  C   UNL     1      15.971   6.303  19.613  0.00  0.00    +0.125 C 
ATOM      9  C   UNL     1      17.978   8.779  21.531  0.00  0.00    +0.129 C 
ATOM     10  C   UNL     1      15.110   7.283  18.813  0.00  0.00    +0.104 C 
ATOM     11  C   UNL     1      18.339   6.677  20.516  0.00  0.00    +0.303 C 
ATOM     20  H   UNL     1      19.896   7.731  21.549  0.00  0.00    +0.150 HD
ENDROOT
BRANCH   4  12
ATOM     12  C   UNL     1      13.794   9.304  18.876  0.00  0.00    +0.119 C 
BRANCH  12  13
ATOM     13  C   UNL     1      13.087  10.304  19.752  0.00  0.00    -0.030 A 
ATOM     14  C   UNL     1      12.258   9.864  20.783  0.00  0.00    +0.050 A 
ATOM     15  C   UNL     1      13.260  11.671  19.531  0.00  0.00    +0.005 A 
ATOM     16  C   UNL     1      11.602  10.790  21.595  0.00  0.00    +0.120 A 
ATOM     17  C   UNL     1      12.604  12.597  20.342  0.00  0.00    +0.004 A 
ATOM     18  C   UNL     1      11.775  12.157  21.374  0.00  0.00    +0.045 A 
BRANCH  16   2
ATOM      2  O   UNL     1      10.791  10.361  22.600  0.00  0.00    -0.495 OA
ATOM     19  C   UNL     1      10.891  11.041  23.850  0.00  0.00    +0.277 C 
ENDBRANCH  16   2
ENDBRANCH  12  13
ENDBRANCH   4  12
TORSDOF 3
ENDMDL
MODEL 9
REMARK VINA RESULT:      -5.2     27.393     30.045
REMARK  Name = 75537036
REMARK  4 active torsions:
REMARK  status: ('A' for Active; 'I' for Inactive)
REMARK    1  A    between atoms: O_2  and  C_16
REMARK    2  A    between atoms: O_2  and  C_19
REMARK    3  A    between atoms: N_4  and  C_12
REMARK    4  A    between atoms: C_12  and  C_13
REMARK                            x       y       z     vdW  Elec       q    Type
REMARK                         _______ _______ _______ _____ _____    ______ ____
ROOT
ATOM      1  O   UNL     1      -3.344 -12.266  19.923  0.00  0.00    -0.253 OA
ATOM      3  N   UNL     1      -5.129 -11.172  18.850  0.00  0.00    -0.279 N 
ATOM      4  N   UNL     1      -7.769 -10.567  18.092  0.00  0.00    -0.295 NA
ATOM      5  N   UNL     1      -3.307 -11.696  17.647  0.00  0.00    -0.297 N 
ATOM      6  C   UNL     1      -5.369 -10.583  17.549  0.00  0.00    +0.109 C 
ATOM      7  C   UNL     1      -6.775 -10.927  17.061  0.00  0.00    +0.109 C 
ATOM      8  C   UNL     1      -6.116 -11.005  19.896  0.00  0.00    +0.125 C 
ATOM      9  C   UNL     1      -4.236 -11.138  16.690  0.00  0.00    +0.129 C 
ATOM     10  C   UNL     1      -7.515 -11.300  19.348  0.00  0.00    +0.104 C 
ATOM     11  C   UNL     1      -3.868 -11.767  18.936  0.00  0.00    +0.303 C 
ATOM     20  H   UNL     1      -2.393 -12.070  17.407  0.00  0.00    +0.150 HD
ENDROOT
BRANCH   4  12
ATOM     12  C   UNL     1      -9.124 -10.837  17.611  0.00  0.00    +0.119 C 
BRANCH  12  13
ATOM     13  C   UNL     1      -9.702  -9.659  16.873  0.00  0.00    -0.030 A 
ATOM     14  C   UNL     1     -10.036  -9.777  15.524  0.00  0.00    +0.050 A 
ATOM     15  C   UNL     1      -9.903  -8.449  17.538  0.00  0.00    +0.005 A 
ATOM     16  C   UNL     1     -10.571  -8.685  14.841  0.00  0.00    +0.120 A 
ATOM     17  C   UNL     1     -10.438  -7.358  16.856  0.00  0.00    +0.004 A 
ATOM     18  C   UNL     1     -10.773  -7.475  15.506  0.00  0.00    +0.045 A 
BRANCH  16   2
ATOM      2  O   UNL     1     -10.895  -8.799  13.523  0.00  0.00    -0.495 OA
ATOM     19  C   UNL     1     -10.609 -10.045  12.890  0.00  0.00    +0.277 C 
ENDBRANCH  16   2
ENDBRANCH  12  13
ENDBRANCH   4  12
TORSDOF 3
ENDMDL
MODEL 10
REMARK VINA RESULT:      -5.2     27.036     29.416
REMARK  Name = 75537036
REMARK  4 active torsions:
REMARK  status: ('A' for Active; 'I' for Inactive)
REMARK    1  A    between atoms: O_2  and  C_16
REMARK    2  A    between atoms: O_2  and  C_19
REMARK    3  A    between atoms: N_4  and  C_12
REMARK    4  A    between atoms: C_12  and  C_13
REMARK                            x       y       z     vdW  Elec       q    Type
REMARK                         _______ _______ _______ _____ _____    ______ ____
ROOT
ATOM      1  O   UNL     1     -12.460  -7.966  13.389  0.00  0.00    -0.253 OA
ATOM      3  N   UNL     1     -10.718  -8.213  14.951  0.00  0.00    -0.279 N 
ATOM      4  N   UNL     1      -9.116  -9.391  16.940  0.00  0.00    -0.295 NA
ATOM      5  N   UNL     1     -11.838  -6.268  14.885  0.00  0.00    -0.297 N 
ATOM      6  C   UNL     1     -10.019  -7.358  15.888  0.00  0.00    +0.109 C 
ATOM      7  C   UNL     1      -9.777  -8.097  17.203  0.00  0.00    +0.109 C 
ATOM      8  C   UNL     1     -10.238  -9.561  14.729  0.00  0.00    +0.125 C 
ATOM      9  C   UNL     1     -10.922  -6.132  15.996  0.00  0.00    +0.129 C 
ATOM     10  C   UNL     1      -9.950 -10.242  16.069  0.00  0.00    +0.104 C 
ATOM     11  C   UNL     1     -11.753  -7.542  14.293  0.00  0.00    +0.303 C 
ATOM     20  H   UNL     1     -12.520  -5.565  14.616  0.00  0.00    +0.150 HD
ENDROOT
BRANCH   4  12
ATOM     12  C   UNL     1      -8.825 -10.079  18.197  0.00  0.00    +0.119 C 
BRANCH  12  13
ATOM     13  C   UNL     1      -7.373 -10.463  18.304  0.00  0.00    -0.030 A 
ATOM     14  C   UNL     1      -6.488 -10.135  17.277  0.00  0.00    +0.050 A 
ATOM     15  C   UNL     1      -6.913 -11.149  19.429  0.00  0.00    +0.005 A 
ATOM     16  C   UNL     1      -5.143 -10.492  17.376  0.00  0.00    +0.120 A 
ATOM     17  C   UNL     1      -5.569 -11.505  19.527  0.00  0.00    +0.004 A 
ATOM     18  C   UNL     1      -4.683 -11.177  18.501  0.00  0.00    +0.045 A 
BRANCH  16   2
ATOM      2  O   UNL     1      -4.279 -10.173  16.373  0.00  0.00    -0.495 OA
ATOM     19  C   UNL     1      -3.016 -10.836  16.369  0.00  0.00    +0.277 C 
ENDBRANCH  16   2
ENDBRANCH  12  13
ENDBRANCH   4  12
TORSDOF 3
ENDMDL
