MODEL 1
REMARK VINA RESULT:      -7.0      0.000      0.000
REMARK  Name = 45784174
REMARK  3 active torsions:
REMARK  status: ('A' for Active; 'I' for Inactive)
REMARK    1  A    between atoms: N_4  and  C_10
REMARK    2  A    between atoms: C_6  and  C_11
REMARK    3  A    between atoms: C_10  and  C_12
REMARK                            x       y       z     vdW  Elec       q    Type
REMARK                         _______ _______ _______ _____ _____    ______ ____
ROOT
ATOM      4  N   UNL     1      -2.131 -11.081  13.479  0.00  0.00    -0.297 NA
ATOM      6  C   UNL     1      -3.078 -10.267  15.464  0.00  0.00    +0.090 C 
ATOM      7  C   UNL     1      -1.823 -11.095  15.794  0.00  0.00    +0.029 C 
ATOM      8  C   UNL     1      -3.420 -10.642  14.016  0.00  0.00    +0.097 C 
ATOM      9  C   UNL     1      -1.543 -11.905  14.536  0.00  0.00    +0.085 C 
ENDROOT
BRANCH   6  11
ATOM      1 CL   UNL     1      -9.332 -10.856  19.729  0.00  0.00    -0.083 Cl
ATOM      3  O   UNL     1      -3.965 -11.172  17.546  0.00  0.00    -0.439 OA
ATOM      5  N   UNL     1      -5.477 -10.045  16.289  0.00  0.00    -0.213 NA
ATOM     11  C   UNL     1      -4.237 -10.466  16.413  0.00  0.00    +0.201 A 
ATOM     13  C   UNL     1      -6.083 -10.507  17.433  0.00  0.00    +0.111 A 
ATOM     14  C   UNL     1      -5.160 -11.197  18.204  0.00  0.00    +0.155 A 
ATOM     17  C   UNL     1      -7.401 -10.390  17.896  0.00  0.00    +0.051 A 
ATOM     18  C   UNL     1      -5.440 -11.796  19.427  0.00  0.00    +0.050 A 
ATOM     21  C   UNL     1      -7.722 -10.980  19.127  0.00  0.00    +0.043 A 
ATOM     22  C   UNL     1      -6.759 -11.670  19.875  0.00  0.00    +0.024 A 
ENDBRANCH   6  11
BRANCH   4  10
ATOM     10  C   UNL     1      -2.268 -11.804  12.224  0.00  0.00    +0.122 C 
BRANCH  10  12
ATOM      2  F   UNL     1      -1.420  -9.280  11.259  0.00  0.00    -0.205 F 
ATOM     12  C   UNL     1      -3.040 -11.014  11.202  0.00  0.00    +0.002 A 
ATOM     15  C   UNL     1      -2.565  -9.775  10.771  0.00  0.00    +0.128 A 
ATOM     16  C   UNL     1      -4.233 -11.522  10.687  0.00  0.00    +0.008 A 
ATOM     19  C   UNL     1      -3.282  -9.045   9.823  0.00  0.00    +0.038 A 
ATOM     20  C   UNL     1      -4.950 -10.791   9.740  0.00  0.00    +0.000 A 
ATOM     23  C   UNL     1      -4.476  -9.553   9.308  0.00  0.00    +0.003 A 
ENDBRANCH  10  12
ENDBRANCH   4  10
TORSDOF 3
ENDMDL
MODEL 2
REMARK VINA RESULT:      -6.9      1.031      1.402
REMARK  Name = 45784174
REMARK  3 active torsions:
REMARK  status: ('A' for Active; 'I' for Inactive)
REMARK    1  A    between atoms: N_4  and  C_10
REMARK    2  A    between atoms: C_6  and  C_11
REMARK    3  A    between atoms: C_10  and  C_12
REMARK                            x       y       z     vdW  Elec       q    Type
REMARK                         _______ _______ _______ _____ _____    ______ ____
ROOT
ATOM      4  N   UNL     1      -2.060 -10.830  13.891  0.00  0.00    -0.297 NA
ATOM      6  C   UNL     1      -3.311 -10.257  15.790  0.00  0.00    +0.090 C 
ATOM      7  C   UNL     1      -1.927 -10.774  16.222  0.00  0.00    +0.029 C 
ATOM      8  C   UNL     1      -3.451 -10.700  14.328  0.00  0.00    +0.097 C 
ATOM      9  C   UNL     1      -1.378 -11.497  15.000  0.00  0.00    +0.085 C 
ENDROOT
BRANCH   6  11
ATOM      1 CL   UNL     1      -8.665 -13.210  20.292  0.00  0.00    -0.083 Cl
ATOM      3  O   UNL     1      -5.527  -9.874  16.728  0.00  0.00    -0.439 OA
ATOM      5  N   UNL     1      -4.565 -11.828  17.353  0.00  0.00    -0.213 NA
ATOM     11  C   UNL     1      -4.460 -10.718  16.657  0.00  0.00    +0.201 A 
ATOM     13  C   UNL     1      -5.804 -11.719  17.938  0.00  0.00    +0.111 A 
ATOM     14  C   UNL     1      -6.396 -10.524  17.557  0.00  0.00    +0.155 A 
ATOM     17  C   UNL     1      -6.503 -12.577  18.798  0.00  0.00    +0.051 A 
ATOM     18  C   UNL     1      -7.653 -10.096  17.968  0.00  0.00    +0.050 A 
ATOM     21  C   UNL     1      -7.775 -12.181  19.234  0.00  0.00    +0.043 A 
ATOM     22  C   UNL     1      -8.337 -10.964  18.826  0.00  0.00    +0.024 A 
ENDBRANCH   6  11
BRANCH   4  10
ATOM     10  C   UNL     1      -1.935 -11.565  12.641  0.00  0.00    +0.122 C 
BRANCH  10  12
ATOM      2  F   UNL     1      -1.203  -9.102  11.450  0.00  0.00    -0.205 F 
ATOM     12  C   UNL     1      -2.723 -10.922  11.531  0.00  0.00    +0.002 A 
ATOM     15  C   UNL     1      -2.306  -9.707  10.990  0.00  0.00    +0.128 A 
ATOM     16  C   UNL     1      -3.873 -11.545  11.046  0.00  0.00    +0.008 A 
ATOM     19  C   UNL     1      -3.039  -9.114   9.961  0.00  0.00    +0.038 A 
ATOM     20  C   UNL     1      -4.606 -10.952  10.017  0.00  0.00    +0.000 A 
ATOM     23  C   UNL     1      -4.190  -9.737   9.475  0.00  0.00    +0.003 A 
ENDBRANCH  10  12
ENDBRANCH   4  10
TORSDOF 3
ENDMDL
MODEL 3
REMARK VINA RESULT:      -6.8      1.982      2.659
REMARK  Name = 45784174
REMARK  3 active torsions:
REMARK  status: ('A' for Active; 'I' for Inactive)
REMARK    1  A    between atoms: N_4  and  C_10
REMARK    2  A    between atoms: C_6  and  C_11
REMARK    3  A    between atoms: C_10  and  C_12
REMARK                            x       y       z     vdW  Elec       q    Type
REMARK                         _______ _______ _______ _____ _____    ______ ____
ROOT
ATOM      4  N   UNL     1      -4.338 -10.583  14.635  0.00  0.00    -0.297 NA
ATOM      6  C   UNL     1      -5.660  -9.582  16.293  0.00  0.00    +0.090 C 
ATOM      7  C   UNL     1      -4.499 -10.346  16.953  0.00  0.00    +0.029 C 
ATOM      8  C   UNL     1      -5.707 -10.115  14.855  0.00  0.00    +0.097 C 
ATOM      9  C   UNL     1      -3.976 -11.280  15.870  0.00  0.00    +0.085 C 
ENDROOT
BRANCH   6  11
ATOM      1 CL   UNL     1     -12.585  -9.626  19.405  0.00  0.00    -0.083 Cl
ATOM      3  O   UNL     1      -7.033 -10.603  18.028  0.00  0.00    -0.439 OA
ATOM      5  N   UNL     1      -8.101  -9.044  16.776  0.00  0.00    -0.213 NA
ATOM     11  C   UNL     1      -6.986  -9.700  17.008  0.00  0.00    +0.201 A 
ATOM     13  C   UNL     1      -8.967  -9.549  17.718  0.00  0.00    +0.111 A 
ATOM     14  C   UNL     1      -8.316 -10.503  18.485  0.00  0.00    +0.155 A 
ATOM     17  C   UNL     1     -10.311  -9.260  17.992  0.00  0.00    +0.051 A 
ATOM     18  C   UNL     1      -8.899 -11.213  19.528  0.00  0.00    +0.050 A 
ATOM     21  C   UNL     1     -10.934  -9.955  19.038  0.00  0.00    +0.043 A 
ATOM     22  C   UNL     1     -10.240 -10.913  19.789  0.00  0.00    +0.024 A 
ENDBRANCH   6  11
BRANCH   4  10
ATOM     10  C   UNL     1      -4.223 -11.439  13.463  0.00  0.00    +0.122 C 
BRANCH  10  12
ATOM      2  F   UNL     1      -1.648 -10.530  12.715  0.00  0.00    -0.205 F 
ATOM     12  C   UNL     1      -3.964 -10.643  12.211  0.00  0.00    +0.002 A 
ATOM     15  C   UNL     1      -2.669 -10.226  11.903  0.00  0.00    +0.128 A 
ATOM     16  C   UNL     1      -5.022 -10.323  11.360  0.00  0.00    +0.008 A 
ATOM     19  C   UNL     1      -2.432  -9.490  10.742  0.00  0.00    +0.038 A 
ATOM     20  C   UNL     1      -4.784  -9.587  10.200  0.00  0.00    +0.000 A 
ATOM     23  C   UNL     1      -3.490  -9.169   9.890  0.00  0.00    +0.003 A 
ENDBRANCH  10  12
ENDBRANCH   4  10
TORSDOF 3
ENDMDL
MODEL 4
REMARK VINA RESULT:      -6.7     27.336     29.147
REMARK  Name = 45784174
REMARK  3 active torsions:
REMARK  status: ('A' for Active; 'I' for Inactive)
REMARK    1  A    between atoms: N_4  and  C_10
REMARK    2  A    between atoms: C_6  and  C_11
REMARK    3  A    between atoms: C_10  and  C_12
REMARK                            x       y       z     vdW  Elec       q    Type
REMARK                         _______ _______ _______ _____ _____    ______ ____
ROOT
ATOM      4  N   UNL     1      15.858   7.686  20.822  0.00  0.00    -0.297 NA
ATOM      6  C   UNL     1      17.979   6.929  20.168  0.00  0.00    +0.090 C 
ATOM      7  C   UNL     1      16.896   6.174  19.377  0.00  0.00    +0.029 C 
ATOM      8  C   UNL     1      17.225   7.578  21.336  0.00  0.00    +0.097 C 
ATOM      9  C   UNL     1      15.606   6.411  20.150  0.00  0.00    +0.085 C 
ENDROOT
BRANCH   6  11
ATOM      1 CL   UNL     1      23.649   2.171  21.858  0.00  0.00    -0.083 Cl
ATOM      3  O   UNL     1      19.847   6.552  21.687  0.00  0.00    -0.439 OA
ATOM      5  N   UNL     1      19.571   4.943  20.114  0.00  0.00    -0.213 NA
ATOM     11  C   UNL     1      19.145   6.080  20.618  0.00  0.00    +0.201 A 
ATOM     13  C   UNL     1      20.646   4.628  20.910  0.00  0.00    +0.111 A 
ATOM     14  C   UNL     1      20.817   5.610  21.874  0.00  0.00    +0.155 A 
ATOM     17  C   UNL     1      21.528   3.538  20.889  0.00  0.00    +0.051 A 
ATOM     18  C   UNL     1      21.814   5.604  22.842  0.00  0.00    +0.050 A 
ATOM     21  C   UNL     1      22.547   3.496  21.852  0.00  0.00    +0.043 A 
ATOM     22  C   UNL     1      22.685   4.510  22.808  0.00  0.00    +0.024 A 
ENDBRANCH   6  11
BRANCH   4  10
ATOM     10  C   UNL     1      14.889   7.960  21.873  0.00  0.00    +0.122 C 
BRANCH  10  12
ATOM      2  F   UNL     1      14.129  10.172  20.275  0.00  0.00    -0.205 F 
ATOM     12  C   UNL     1      13.499   8.137  21.322  0.00  0.00    +0.002 A 
ATOM     15  C   UNL     1      13.193   9.252  20.542  0.00  0.00    +0.128 A 
ATOM     16  C   UNL     1      12.517   7.184  21.594  0.00  0.00    +0.008 A 
ATOM     19  C   UNL     1      11.904   9.413  20.032  0.00  0.00    +0.038 A 
ATOM     20  C   UNL     1      11.229   7.346  21.084  0.00  0.00    +0.000 A 
ATOM     23  C   UNL     1      10.921   8.460  20.304  0.00  0.00    +0.003 A 
ENDBRANCH  10  12
ENDBRANCH   4  10
TORSDOF 3
ENDMDL
MODEL 5
REMARK VINA RESULT:      -6.7     28.338     30.133
REMARK  Name = 45784174
REMARK  3 active torsions:
REMARK  status: ('A' for Active; 'I' for Inactive)
REMARK    1  A    between atoms: N_4  and  C_10
REMARK    2  A    between atoms: C_6  and  C_11
REMARK    3  A    between atoms: C_10  and  C_12
REMARK                            x       y       z     vdW  Elec       q    Type
REMARK                         _______ _______ _______ _____ _____    ______ ____
ROOT
ATOM      4  N   UNL     1      21.662   4.809  21.296  0.00  0.00    -0.297 NA
ATOM      6  C   UNL     1      20.026   6.353  20.637  0.00  0.00    +0.090 C 
ATOM      7  C   UNL     1      20.561   6.733  22.029  0.00  0.00    +0.029 C 
ATOM      8  C   UNL     1      20.491   4.907  20.424  0.00  0.00    +0.097 C 
ATOM      9  C   UNL     1      21.268   5.482  22.534  0.00  0.00    +0.085 C 
ENDROOT
BRANCH   6  11
ATOM      1 CL   UNL     1      12.632   6.960  19.024  0.00  0.00    -0.083 Cl
ATOM      3  O   UNL     1      17.858   6.996  21.546  0.00  0.00    -0.439 OA
ATOM      5  N   UNL     1      17.804   6.279  19.396  0.00  0.00    -0.213 NA
ATOM     11  C   UNL     1      18.535   6.525  20.461  0.00  0.00    +0.201 A 
ATOM     13  C   UNL     1      16.533   6.613  19.801  0.00  0.00    +0.111 A 
ATOM     14  C   UNL     1      16.564   7.053  21.116  0.00  0.00    +0.155 A 
ATOM     17  C   UNL     1      15.305   6.577  19.126  0.00  0.00    +0.051 A 
ATOM     18  C   UNL     1      15.451   7.469  21.837  0.00  0.00    +0.050 A 
ATOM     21  C   UNL     1      14.159   6.990  19.821  0.00  0.00    +0.043 A 
ATOM     22  C   UNL     1      14.233   7.426  21.150  0.00  0.00    +0.024 A 
ENDBRANCH   6  11
BRANCH   4  10
ATOM     10  C   UNL     1      22.074   3.431  21.523  0.00  0.00    +0.122 C 
BRANCH  10  12
ATOM      2  F   UNL     1      23.636   1.325  22.593  0.00  0.00    -0.205 F 
ATOM     12  C   UNL     1      23.516   3.208  21.153  0.00  0.00    +0.002 A 
ATOM     15  C   UNL     1      24.227   2.150  21.720  0.00  0.00    +0.128 A 
ATOM     16  C   UNL     1      24.140   4.062  20.244  0.00  0.00    +0.008 A 
ATOM     19  C   UNL     1      25.564   1.946  21.375  0.00  0.00    +0.038 A 
ATOM     20  C   UNL     1      25.477   3.858  19.901  0.00  0.00    +0.000 A 
ATOM     23  C   UNL     1      26.189   2.801  20.466  0.00  0.00    +0.003 A 
ENDBRANCH  10  12
ENDBRANCH   4  10
TORSDOF 3
ENDMDL
MODEL 6
REMARK VINA RESULT:      -6.6     19.996     20.814
REMARK  Name = 45784174
REMARK  3 active torsions:
REMARK  status: ('A' for Active; 'I' for Inactive)
REMARK    1  A    between atoms: N_4  and  C_10
REMARK    2  A    between atoms: C_6  and  C_11
REMARK    3  A    between atoms: C_10  and  C_12
REMARK                            x       y       z     vdW  Elec       q    Type
REMARK                         _______ _______ _______ _____ _____    ______ ____
ROOT
ATOM      4  N   UNL     1     -13.241   7.115  20.860  0.00  0.00    -0.297 NA
ATOM      6  C   UNL     1     -14.897   5.582  21.500  0.00  0.00    +0.090 C 
ATOM      7  C   UNL     1     -15.500   6.997  21.441  0.00  0.00    +0.029 C 
ATOM      8  C   UNL     1     -13.379   5.807  21.505  0.00  0.00    +0.097 C 
ATOM      9  C   UNL     1     -14.302   7.936  21.444  0.00  0.00    +0.085 C 
ENDROOT
BRANCH   6  11
ATOM      1 CL   UNL     1     -16.801   1.759  27.777  0.00  0.00    -0.083 Cl
ATOM      3  O   UNL     1     -16.284   3.772  22.359  0.00  0.00    -0.439 OA
ATOM      5  N   UNL     1     -15.017   4.812  23.924  0.00  0.00    -0.213 NA
ATOM     11  C   UNL     1     -15.371   4.737  22.660  0.00  0.00    +0.201 A 
ATOM     13  C   UNL     1     -15.753   3.815  24.518  0.00  0.00    +0.111 A 
ATOM     14  C   UNL     1     -16.529   3.176  23.562  0.00  0.00    +0.155 A 
ATOM     17  C   UNL     1     -15.826   3.383  25.850  0.00  0.00    +0.051 A 
ATOM     18  C   UNL     1     -17.393   2.119  23.822  0.00  0.00    +0.050 A 
ATOM     21  C   UNL     1     -16.686   2.318  26.151  0.00  0.00    +0.043 A 
ATOM     22  C   UNL     1     -17.454   1.700  25.156  0.00  0.00    +0.024 A 
ENDBRANCH   6  11
BRANCH   4  10
ATOM     10  C   UNL     1     -11.920   7.695  21.055  0.00  0.00    +0.122 C 
BRANCH  10  12
ATOM      2  F   UNL     1     -11.006  10.352  20.702  0.00  0.00    -0.205 F 
ATOM     12  C   UNL     1     -11.331   8.196  19.764  0.00  0.00    +0.002 A 
ATOM     15  C   UNL     1     -10.901   9.518  19.659  0.00  0.00    +0.128 A 
ATOM     16  C   UNL     1     -11.217   7.335  18.672  0.00  0.00    +0.008 A 
ATOM     19  C   UNL     1     -10.355   9.980  18.460  0.00  0.00    +0.038 A 
ATOM     20  C   UNL     1     -10.671   7.798  17.475  0.00  0.00    +0.000 A 
ATOM     23  C   UNL     1     -10.241   9.119  17.368  0.00  0.00    +0.003 A 
ENDBRANCH  10  12
ENDBRANCH   4  10
TORSDOF 3
ENDMDL
MODEL 7
REMARK VINA RESULT:      -6.4     23.160     26.339
REMARK  Name = 45784174
REMARK  3 active torsions:
REMARK  status: ('A' for Active; 'I' for Inactive)
REMARK    1  A    between atoms: N_4  and  C_10
REMARK    2  A    between atoms: C_6  and  C_11
REMARK    3  A    between atoms: C_10  and  C_12
REMARK                            x       y       z     vdW  Elec       q    Type
REMARK                         _______ _______ _______ _____ _____    ______ ____
ROOT
ATOM      4  N   UNL     1      10.715   5.321   4.183  0.00  0.00    -0.297 NA
ATOM      6  C   UNL     1      11.997   4.495   2.402  0.00  0.00    +0.090 C 
ATOM      7  C   UNL     1      12.504   5.893   2.797  0.00  0.00    +0.029 C 
ATOM      8  C   UNL     1      10.618   4.382   3.064  0.00  0.00    +0.097 C 
ATOM      9  C   UNL     1      11.383   6.499   3.629  0.00  0.00    +0.085 C 
ENDROOT
BRANCH   6  11
ATOM      1 CL   UNL     1      12.505   2.818  -4.985  0.00  0.00    -0.083 Cl
ATOM      3  O   UNL     1      10.857   4.684   0.257  0.00  0.00    -0.439 OA
ATOM      5  N   UNL     1      12.855   3.617   0.171  0.00  0.00    -0.213 NA
ATOM     11  C   UNL     1      11.960   4.230   0.915  0.00  0.00    +0.201 A 
ATOM     13  C   UNL     1      12.306   3.665  -1.088  0.00  0.00    +0.111 A 
ATOM     14  C   UNL     1      11.083   4.318  -1.039  0.00  0.00    +0.155 A 
ATOM     17  C   UNL     1      12.769   3.186  -2.321  0.00  0.00    +0.051 A 
ATOM     18  C   UNL     1      10.260   4.541  -2.137  0.00  0.00    +0.050 A 
ATOM     21  C   UNL     1      11.967   3.393  -3.452  0.00  0.00    +0.043 A 
ATOM     22  C   UNL     1      10.738   4.057  -3.359  0.00  0.00    +0.024 A 
ENDBRANCH   6  11
BRANCH   4  10
ATOM     10  C   UNL     1       9.415   5.640   4.757  0.00  0.00    +0.122 C 
BRANCH  10  12
ATOM      2  F   UNL     1       8.630   7.776   6.442  0.00  0.00    -0.205 F 
ATOM     12  C   UNL     1       9.427   5.548   6.259  0.00  0.00    +0.002 A 
ATOM     15  C   UNL     1       9.028   6.640   7.030  0.00  0.00    +0.128 A 
ATOM     16  C   UNL     1       9.840   4.368   6.880  0.00  0.00    +0.008 A 
ATOM     19  C   UNL     1       9.040   6.551   8.422  0.00  0.00    +0.038 A 
ATOM     20  C   UNL     1       9.851   4.281   8.272  0.00  0.00    +0.000 A 
ATOM     23  C   UNL     1       9.452   5.372   9.044  0.00  0.00    +0.003 A 
ENDBRANCH  10  12
ENDBRANCH   4  10
TORSDOF 3
ENDMDL
MODEL 8
REMARK VINA RESULT:      -6.4      3.128      5.233
REMARK  Name = 45784174
REMARK  3 active torsions:
REMARK  status: ('A' for Active; 'I' for Inactive)
REMARK    1  A    between atoms: N_4  and  C_10
REMARK    2  A    between atoms: C_6  and  C_11
REMARK    3  A    between atoms: C_10  and  C_12
REMARK                            x       y       z     vdW  Elec       q    Type
REMARK                         _______ _______ _______ _____ _____    ______ ____
ROOT
ATOM      4  N   UNL     1      -4.916 -11.611  17.446  0.00  0.00    -0.297 NA
ATOM      6  C   UNL     1      -6.656 -10.254  18.237  0.00  0.00    +0.090 C 
ATOM      7  C   UNL     1      -6.546 -11.512  19.116  0.00  0.00    +0.029 C 
ATOM      8  C   UNL     1      -5.853 -10.590  16.975  0.00  0.00    +0.097 C 
ATOM      9  C   UNL     1      -5.716 -12.492  18.297  0.00  0.00    +0.085 C 
ENDROOT
BRANCH   6  11
ATOM      1 CL   UNL     1     -13.995  -8.667  17.110  0.00  0.00    -0.083 Cl
ATOM      3  O   UNL     1      -8.193  -8.666  17.209  0.00  0.00    -0.439 OA
ATOM      5  N   UNL     1      -9.199 -10.391  18.283  0.00  0.00    -0.213 NA
ATOM     11  C   UNL     1      -8.070  -9.812  17.936  0.00  0.00    +0.201 A 
ATOM     13  C   UNL     1     -10.156  -9.564  17.744  0.00  0.00    +0.111 A 
ATOM     14  C   UNL     1      -9.543  -8.508  17.086  0.00  0.00    +0.155 A 
ATOM     17  C   UNL     1     -11.556  -9.630  17.763  0.00  0.00    +0.051 A 
ATOM     18  C   UNL     1     -10.219  -7.487  16.428  0.00  0.00    +0.050 A 
ATOM     21  C   UNL     1     -12.273  -8.618  17.109  0.00  0.00    +0.043 A 
ATOM     22  C   UNL     1     -11.615  -7.568  16.456  0.00  0.00    +0.024 A 
ENDBRANCH   6  11
BRANCH   4  10
ATOM     10  C   UNL     1      -4.277 -12.328  16.353  0.00  0.00    +0.122 C 
BRANCH  10  12
ATOM      2  F   UNL     1      -4.388 -11.735  13.585  0.00  0.00    -0.205 F 
ATOM     12  C   UNL     1      -3.248 -11.481  15.652  0.00  0.00    +0.002 A 
ATOM     15  C   UNL     1      -3.364 -11.229  14.285  0.00  0.00    +0.128 A 
ATOM     16  C   UNL     1      -2.178 -10.950  16.372  0.00  0.00    +0.008 A 
ATOM     19  C   UNL     1      -2.409 -10.443  13.639  0.00  0.00    +0.038 A 
ATOM     20  C   UNL     1      -1.224 -10.165  15.725  0.00  0.00    +0.000 A 
ATOM     23  C   UNL     1      -1.338  -9.912  14.359  0.00  0.00    +0.003 A 
ENDBRANCH  10  12
ENDBRANCH   4  10
TORSDOF 3
ENDMDL
MODEL 9
REMARK VINA RESULT:      -6.3     28.808     30.651
REMARK  Name = 45784174
REMARK  3 active torsions:
REMARK  status: ('A' for Active; 'I' for Inactive)
REMARK    1  A    between atoms: N_4  and  C_10
REMARK    2  A    between atoms: C_6  and  C_11
REMARK    3  A    between atoms: C_10  and  C_12
REMARK                            x       y       z     vdW  Elec       q    Type
REMARK                         _______ _______ _______ _____ _____    ______ ____
ROOT
ATOM      4  N   UNL     1      22.167   4.404  21.283  0.00  0.00    -0.297 NA
ATOM      6  C   UNL     1      20.741   6.250  21.042  0.00  0.00    +0.090 C 
ATOM      7  C   UNL     1      21.253   6.181  22.492  0.00  0.00    +0.029 C 
ATOM      8  C   UNL     1      21.052   4.868  20.454  0.00  0.00    +0.097 C 
ATOM      9  C   UNL     1      21.795   4.767  22.651  0.00  0.00    +0.085 C 
ENDROOT
BRANCH   6  11
ATOM      1 CL   UNL     1      13.542   8.661  20.939  0.00  0.00    -0.083 Cl
ATOM      3  O   UNL     1      18.606   6.029  19.888  0.00  0.00    -0.439 OA
ATOM      5  N   UNL     1      18.591   7.484  21.626  0.00  0.00    -0.213 NA
ATOM     11  C   UNL     1      19.287   6.637  20.900  0.00  0.00    +0.201 A 
ATOM     13  C   UNL     1      17.342   7.440  21.053  0.00  0.00    +0.111 A 
ATOM     14  C   UNL     1      17.348   6.550  19.990  0.00  0.00    +0.155 A 
ATOM     17  C   UNL     1      16.154   8.114  21.366  0.00  0.00    +0.051 A 
ATOM     18  C   UNL     1      16.248   6.264  19.190  0.00  0.00    +0.050 A 
ATOM     21  C   UNL     1      15.021   7.852  20.583  0.00  0.00    +0.043 A 
ATOM     22  C   UNL     1      15.070   6.945  19.516  0.00  0.00    +0.024 A 
ENDBRANCH   6  11
BRANCH   4  10
ATOM     10  C   UNL     1      22.413   2.977  21.136  0.00  0.00    +0.122 C 
BRANCH  10  12
ATOM      2  F   UNL     1      24.462   3.889  19.406  0.00  0.00    -0.205 F 
ATOM     12  C   UNL     1      23.866   2.636  21.332  0.00  0.00    +0.002 A 
ATOM     15  C   UNL     1      24.824   3.119  20.440  0.00  0.00    +0.128 A 
ATOM     16  C   UNL     1      24.253   1.835  22.407  0.00  0.00    +0.008 A 
ATOM     19  C   UNL     1      26.170   2.801  20.625  0.00  0.00    +0.038 A 
ATOM     20  C   UNL     1      25.599   1.518  22.590  0.00  0.00    +0.000 A 
ATOM     23  C   UNL     1      26.558   2.000  21.699  0.00  0.00    +0.003 A 
ENDBRANCH  10  12
ENDBRANCH   4  10
TORSDOF 3
ENDMDL
MODEL 10
REMARK VINA RESULT:      -6.3     29.868     31.401
REMARK  Name = 45784174
REMARK  3 active torsions:
REMARK  status: ('A' for Active; 'I' for Inactive)
REMARK    1  A    between atoms: N_4  and  C_10
REMARK    2  A    between atoms: C_6  and  C_11
REMARK    3  A    between atoms: C_10  and  C_12
REMARK                            x       y       z     vdW  Elec       q    Type
REMARK                         _______ _______ _______ _____ _____    ______ ____
ROOT
ATOM      4  N   UNL     1      -2.209  10.043  37.331  0.00  0.00    -0.297 NA
ATOM      6  C   UNL     1      -0.906  11.816  36.519  0.00  0.00    +0.090 C 
ATOM      7  C   UNL     1      -2.287  12.345  36.944  0.00  0.00    +0.029 C 
ATOM      8  C   UNL     1      -1.085  10.295  36.427  0.00  0.00    +0.097 C 
ATOM      9  C   UNL     1      -3.170  11.109  37.042  0.00  0.00    +0.085 C 
ENDROOT
BRANCH   6  11
ATOM      1 CL   UNL     1       2.177  14.169  29.991  0.00  0.00    -0.083 Cl
ATOM      3  O   UNL     1      -0.678  13.727  35.024  0.00  0.00    -0.439 OA
ATOM      5  N   UNL     1       0.389  11.853  34.327  0.00  0.00    -0.213 NA
ATOM     11  C   UNL     1      -0.358  12.422  35.247  0.00  0.00    +0.201 A 
ATOM     13  C   UNL     1       0.586  12.861  33.412  0.00  0.00    +0.111 A 
ATOM     14  C   UNL     1      -0.066  14.009  33.837  0.00  0.00    +0.155 A 
ATOM     17  C   UNL     1       1.296  12.892  32.204  0.00  0.00    +0.051 A 
ATOM     18  C   UNL     1      -0.073  15.216  33.148  0.00  0.00    +0.050 A 
ATOM     21  C   UNL     1       1.313  14.093  31.480  0.00  0.00    +0.043 A 
ATOM     22  C   UNL     1       0.641  15.230  31.944  0.00  0.00    +0.024 A 
ENDBRANCH   6  11
BRANCH   4  10
ATOM     10  C   UNL     1      -2.781   8.717  37.152  0.00  0.00    +0.122 C 
BRANCH  10  12
ATOM      2  F   UNL     1      -0.598   6.914  37.173  0.00  0.00    -0.205 F 
ATOM     12  C   UNL     1      -2.474   7.812  38.315  0.00  0.00    +0.002 A 
ATOM     15  C   UNL     1      -1.382   6.947  38.258  0.00  0.00    +0.128 A 
ATOM     16  C   UNL     1      -3.286   7.840  39.450  0.00  0.00    +0.008 A 
ATOM     19  C   UNL     1      -1.100   6.109  39.338  0.00  0.00    +0.038 A 
ATOM     20  C   UNL     1      -3.003   7.002  40.528  0.00  0.00    +0.000 A 
ATOM     23  C   UNL     1      -1.911   6.136  40.473  0.00  0.00    +0.003 A 
ENDBRANCH  10  12
ENDBRANCH   4  10
TORSDOF 3
ENDMDL
