MODEL 1
REMARK VINA RESULT:      -6.6      0.000      0.000
REMARK  Name = 45361340
REMARK  12 active torsions:
REMARK  status: ('A' for Active; 'I' for Inactive)
REMARK    1  A    between atoms: O_2  and  C_12
REMARK    2  A    between atoms: N_6  and  C_26
REMARK    3  A    between atoms: N_6  and  C_27
REMARK    4  A    between atoms: N_8  and  C_35
REMARK    5  A    between atoms: C_10  and  C_18
REMARK    6  A    between atoms: C_13  and  C_19
REMARK    7  A    between atoms: C_15  and  C_22
REMARK    8  A    between atoms: C_19  and  C_23
REMARK    9  A    between atoms: C_19  and  C_24
REMARK   10  A    between atoms: C_26  and  C_29
REMARK   11  A    between atoms: C_28  and  C_30
REMARK   12  A    between atoms: C_29  and  C_31
REMARK                            x       y       z     vdW  Elec       q    Type
REMARK                         _______ _______ _______ _____ _____    ______ ____
ROOT
ATOM      1  S   UNL     1      -6.012 -10.082   6.440  0.00  0.00    -0.057 S 
ATOM      4  O   UNL     1      -9.514  -6.992   6.738  0.00  0.00    -0.268 OA
ATOM      5  N   UNL     1      -7.395  -8.651   8.091  0.00  0.00    -0.229 NA
ATOM      7  N   UNL     1      -7.971  -8.478   5.757  0.00  0.00    -0.259 N 
ATOM     10  C   UNL     1      -4.123 -10.508  10.069  0.00  0.00    -0.022 C 
ATOM     11  C   UNL     1      -5.417 -10.299  10.951  0.00  0.00    +0.033 C 
ATOM     12  C   UNL     1      -5.051 -10.031  12.438  0.00  0.00    +0.123 C 
ATOM     13  C   UNL     1      -4.092 -11.094  13.018  0.00  0.00    +0.029 C 
ATOM     14  C   UNL     1      -3.230 -11.600  10.704  0.00  0.00    +0.008 C 
ATOM     15  C   UNL     1      -6.386  -9.210  10.333  0.00  0.00    +0.042 C 
ATOM     16  C   UNL     1      -2.853 -11.300  12.148  0.00  0.00    +0.007 C 
ATOM     17  C   UNL     1      -4.529 -11.007   8.647  0.00  0.00    +0.051 C 
ATOM     18  C   UNL     1      -3.298  -9.203   9.927  0.00  0.00    +0.012 C 
ATOM     20  C   UNL     1      -6.476  -9.368   8.835  0.00  0.00    +0.057 A 
ATOM     21  C   UNL     1      -5.630 -10.170   8.096  0.00  0.00    +0.015 A 
ATOM     22  C   UNL     1      -7.793  -9.231  10.947  0.00  0.00    +0.014 C 
ATOM     25  C   UNL     1      -7.252  -8.956   6.819  0.00  0.00    +0.165 A 
ATOM     28  C   UNL     1      -9.039  -7.547   5.754  0.00  0.00    +0.266 C 
ATOM     37  H   UNL     1      -7.670  -8.850   4.859  0.00  0.00    +0.157 HD
ENDROOT
BRANCH  28  30
ATOM      8  N   UNL     1     -10.945  -7.126   4.144  0.00  0.00    -0.346 N 
ATOM     30  C   UNL     1      -9.605  -7.203   4.423  0.00  0.00    +0.105 A 
ATOM     32  C   UNL     1      -8.916  -6.907   3.268  0.00  0.00    +0.032 A 
ATOM     33  C   UNL     1     -11.121  -6.783   2.829  0.00  0.00    +0.086 A 
ATOM     34  C   UNL     1      -9.874  -6.641   2.259  0.00  0.00    +0.020 A 
ATOM     35  C   UNL     1     -12.021  -7.364   5.080  0.00  0.00    +0.149 C 
ENDBRANCH  28  30
BRANCH  12   2
ATOM      2  O   UNL     1      -6.237 -10.055  13.230  0.00  0.00    -0.391 OA
ATOM     36  H   UNL     1      -6.011  -9.738  14.121  0.00  0.00    +0.210 HD
ENDBRANCH  12   2
BRANCH  13  19
ATOM     19  C   UNL     1      -3.662 -10.751  14.450  0.00  0.00    +0.078 C 
ATOM     23  C   UNL     1      -2.177 -10.383  14.463  0.00  0.00    +0.017 C 
BRANCH  19  24
ATOM      3  O   UNL     1      -3.658 -13.083  14.997  0.00  0.00    -0.275 OA
ATOM      6  N   UNL     1      -4.534 -11.678  16.613  0.00  0.00    -0.303 N 
ATOM     24  C   UNL     1      -3.942 -11.941  15.374  0.00  0.00    +0.219 C 
ATOM     27  C   UNL     1      -4.835 -12.791  17.508  0.00  0.00    +0.132 C 
BRANCH   6  26
ATOM     26  C   UNL     1      -4.869 -10.359  17.148  0.00  0.00    +0.122 C 
BRANCH  26  29
ATOM     29  C   UNL     1      -6.302 -10.286  17.662  0.00  0.00    +0.137 C 
BRANCH  29  31
ATOM      9  N   UNL     1      -7.988  -9.578  15.772  0.00  0.00    -0.197 NA
ATOM     31  C   UNL     1      -7.244  -9.891  16.605  0.00  0.00    +0.064 C 
ENDBRANCH  29  31
ENDBRANCH  26  29
ENDBRANCH   6  26
ENDBRANCH  19  24
ENDBRANCH  13  19
TORSDOF 7
ENDMDL
MODEL 2
REMARK VINA RESULT:      -6.4      7.084     11.967
REMARK  Name = 45361340
REMARK  12 active torsions:
REMARK  status: ('A' for Active; 'I' for Inactive)
REMARK    1  A    between atoms: O_2  and  C_12
REMARK    2  A    between atoms: N_6  and  C_26
REMARK    3  A    between atoms: N_6  and  C_27
REMARK    4  A    between atoms: N_8  and  C_35
REMARK    5  A    between atoms: C_10  and  C_18
REMARK    6  A    between atoms: C_13  and  C_19
REMARK    7  A    between atoms: C_15  and  C_22
REMARK    8  A    between atoms: C_19  and  C_23
REMARK    9  A    between atoms: C_19  and  C_24
REMARK   10  A    between atoms: C_26  and  C_29
REMARK   11  A    between atoms: C_28  and  C_30
REMARK   12  A    between atoms: C_29  and  C_31
REMARK                            x       y       z     vdW  Elec       q    Type
REMARK                         _______ _______ _______ _____ _____    ______ ____
ROOT
ATOM      1  S   UNL     1      -7.748  -9.164  17.099  0.00  0.00    -0.057 S 
ATOM      4  O   UNL     1      -4.436 -12.470  17.031  0.00  0.00    -0.268 OA
ATOM      5  N   UNL     1      -7.174 -11.557  17.892  0.00  0.00    -0.229 NA
ATOM      7  N   UNL     1      -5.489 -10.404  16.611  0.00  0.00    -0.259 N 
ATOM     10  C   UNL     1     -11.238 -10.623  18.714  0.00  0.00    -0.022 C 
ATOM     11  C   UNL     1     -10.545 -11.594  19.749  0.00  0.00    +0.033 C 
ATOM     12  C   UNL     1     -11.559 -12.620  20.330  0.00  0.00    +0.123 C 
ATOM     13  C   UNL     1     -12.830 -11.949  20.894  0.00  0.00    +0.029 C 
ATOM     14  C   UNL     1     -12.485  -9.976  19.361  0.00  0.00    +0.008 C 
ATOM     15  C   UNL     1      -9.242 -12.266  19.149  0.00  0.00    +0.042 C 
ATOM     16  C   UNL     1     -13.483 -10.998  19.891  0.00  0.00    +0.007 C 
ATOM     17  C   UNL     1     -10.258  -9.469  18.336  0.00  0.00    +0.051 C 
ATOM     18  C   UNL     1     -11.668 -11.361  17.420  0.00  0.00    +0.012 C 
ATOM     20  C   UNL     1      -8.440 -11.258  18.361  0.00  0.00    +0.057 A 
ATOM     21  C   UNL     1      -8.916 -10.015  17.998  0.00  0.00    +0.015 A 
ATOM     22  C   UNL     1      -8.353 -12.924  20.215  0.00  0.00    +0.014 C 
ATOM     25  C   UNL     1      -6.708 -10.524  17.224  0.00  0.00    +0.165 A 
ATOM     28  C   UNL     1      -4.434 -11.347  16.539  0.00  0.00    +0.266 C 
ATOM     37  H   UNL     1      -5.354  -9.512  16.141  0.00  0.00    +0.157 HD
ENDROOT
BRANCH  28  30
ATOM      8  N   UNL     1      -3.212 -10.715  14.415  0.00  0.00    -0.346 N 
ATOM     30  C   UNL     1      -3.233 -10.929  15.769  0.00  0.00    +0.105 A 
ATOM     32  C   UNL     1      -1.967 -10.687  16.254  0.00  0.00    +0.032 A 
ATOM     33  C   UNL     1      -1.952 -10.337  14.030  0.00  0.00    +0.086 A 
ATOM     34  C   UNL     1      -1.156 -10.312  15.154  0.00  0.00    +0.020 A 
ATOM     35  C   UNL     1      -4.336 -10.858  13.517  0.00  0.00    +0.149 C 
ENDBRANCH  28  30
BRANCH  12   2
ATOM      2  O   UNL     1     -10.948 -13.335  21.402  0.00  0.00    -0.391 OA
ATOM     36  H   UNL     1      -9.984 -13.275  21.294  0.00  0.00    +0.210 HD
ENDBRANCH  12   2
BRANCH  13  19
ATOM     19  C   UNL     1     -13.860 -12.984  21.364  0.00  0.00    +0.078 C 
ATOM     23  C   UNL     1     -15.060 -12.978  20.415  0.00  0.00    +0.017 C 
BRANCH  19  24
ATOM      3  O   UNL     1     -14.942 -11.643  23.027  0.00  0.00    -0.275 OA
ATOM      6  N   UNL     1     -13.910 -13.562  23.805  0.00  0.00    -0.303 N 
ATOM     24  C   UNL     1     -14.293 -12.670  22.799  0.00  0.00    +0.219 C 
ATOM     27  C   UNL     1     -14.287 -13.281  25.187  0.00  0.00    +0.132 C 
BRANCH   6  26
ATOM     26  C   UNL     1     -13.175 -14.812  23.617  0.00  0.00    +0.122 C 
BRANCH  26  29
ATOM     29  C   UNL     1     -12.155 -15.060  24.723  0.00  0.00    +0.137 C 
BRANCH  29  31
ATOM      9  N   UNL     1      -9.693 -15.085  23.797  0.00  0.00    -0.197 NA
ATOM     31  C   UNL     1     -10.779 -15.075  24.206  0.00  0.00    +0.064 C 
ENDBRANCH  29  31
ENDBRANCH  26  29
ENDBRANCH   6  26
ENDBRANCH  19  24
ENDBRANCH  13  19
TORSDOF 7
ENDMDL
MODEL 3
REMARK VINA RESULT:      -6.3     29.569     33.671
REMARK  Name = 45361340
REMARK  12 active torsions:
REMARK  status: ('A' for Active; 'I' for Inactive)
REMARK    1  A    between atoms: O_2  and  C_12
REMARK    2  A    between atoms: N_6  and  C_26
REMARK    3  A    between atoms: N_6  and  C_27
REMARK    4  A    between atoms: N_8  and  C_35
REMARK    5  A    between atoms: C_10  and  C_18
REMARK    6  A    between atoms: C_13  and  C_19
REMARK    7  A    between atoms: C_15  and  C_22
REMARK    8  A    between atoms: C_19  and  C_23
REMARK    9  A    between atoms: C_19  and  C_24
REMARK   10  A    between atoms: C_26  and  C_29
REMARK   11  A    between atoms: C_28  and  C_30
REMARK   12  A    between atoms: C_29  and  C_31
REMARK                            x       y       z     vdW  Elec       q    Type
REMARK                         _______ _______ _______ _____ _____    ______ ____
ROOT
ATOM      1  S   UNL     1      21.905   7.091  23.382  0.00  0.00    -0.057 S 
ATOM      4  O   UNL     1      21.489   3.129  20.926  0.00  0.00    -0.268 OA
ATOM      5  N   UNL     1      20.461   5.875  21.615  0.00  0.00    -0.229 NA
ATOM      7  N   UNL     1      22.380   4.683  22.457  0.00  0.00    -0.259 N 
ATOM     10  C   UNL     1      19.205   9.908  22.082  0.00  0.00    -0.022 C 
ATOM     11  C   UNL     1      18.061   8.882  21.718  0.00  0.00    +0.033 C 
ATOM     12  C   UNL     1      16.964   9.544  20.838  0.00  0.00    +0.123 C 
ATOM     13  C   UNL     1      16.423  10.857  21.445  0.00  0.00    +0.029 C 
ATOM     14  C   UNL     1      18.584  11.181  22.703  0.00  0.00    +0.008 C 
ATOM     15  C   UNL     1      18.641   7.543  21.101  0.00  0.00    +0.042 C 
ATOM     16  C   UNL     1      17.539  11.836  21.809  0.00  0.00    +0.007 C 
ATOM     17  C   UNL     1      20.154   9.283  23.151  0.00  0.00    +0.051 C 
ATOM     18  C   UNL     1      20.043  10.312  20.840  0.00  0.00    +0.012 C 
ATOM     20  C   UNL     1      19.878   7.107  21.849  0.00  0.00    +0.057 A 
ATOM     21  C   UNL     1      20.547   7.903  22.756  0.00  0.00    +0.015 A 
ATOM     22  C   UNL     1      17.618   6.398  21.068  0.00  0.00    +0.014 C 
ATOM     25  C   UNL     1      21.528   5.752  22.375  0.00  0.00    +0.165 A 
ATOM     28  C   UNL     1      22.332   3.454  21.755  0.00  0.00    +0.266 C 
ATOM     37  H   UNL     1      23.148   4.822  23.108  0.00  0.00    +0.157 HD
ENDROOT
BRANCH  28  30
ATOM      8  N   UNL     1      24.491   2.250  21.213  0.00  0.00    -0.346 N 
ATOM     30  C   UNL     1      23.428   2.490  22.044  0.00  0.00    +0.105 A 
ATOM     32  C   UNL     1      23.573   1.693  23.157  0.00  0.00    +0.032 A 
ATOM     33  C   UNL     1      25.314   1.313  21.782  0.00  0.00    +0.086 A 
ATOM     34  C   UNL     1      24.766   0.948  22.992  0.00  0.00    +0.020 A 
ATOM     35  C   UNL     1      24.726   2.880  19.933  0.00  0.00    +0.149 C 
ENDBRANCH  28  30
BRANCH  12   2
ATOM      2  O   UNL     1      15.859   8.653  20.706  0.00  0.00    -0.391 OA
ATOM     36  H   UNL     1      15.979   7.928  21.342  0.00  0.00    +0.210 HD
ENDBRANCH  12   2
BRANCH  13  19
ATOM     19  C   UNL     1      15.421  11.547  20.510  0.00  0.00    +0.078 C 
ATOM     23  C   UNL     1      15.996  12.886  20.044  0.00  0.00    +0.017 C 
BRANCH  19  24
ATOM      3  O   UNL     1      14.037  12.481  22.227  0.00  0.00    -0.275 OA
ATOM      6  N   UNL     1      12.973  11.054  20.749  0.00  0.00    -0.303 N 
ATOM     24  C   UNL     1      14.087  11.744  21.236  0.00  0.00    +0.219 C 
ATOM     27  C   UNL     1      11.690  11.202  21.431  0.00  0.00    +0.132 C 
BRANCH   6  26
ATOM     26  C   UNL     1      12.938  10.193  19.568  0.00  0.00    +0.122 C 
BRANCH  26  29
ATOM     29  C   UNL     1      12.309   8.835  19.856  0.00  0.00    +0.137 C 
BRANCH  29  31
ATOM      9  N   UNL     1      12.195   7.333  17.699  0.00  0.00    -0.197 NA
ATOM     31  C   UNL     1      12.245   7.994  18.651  0.00  0.00    +0.064 C 
ENDBRANCH  29  31
ENDBRANCH  26  29
ENDBRANCH   6  26
ENDBRANCH  19  24
ENDBRANCH  13  19
TORSDOF 7
ENDMDL
MODEL 4
REMARK VINA RESULT:      -6.2     24.190     26.994
REMARK  Name = 45361340
REMARK  12 active torsions:
REMARK  status: ('A' for Active; 'I' for Inactive)
REMARK    1  A    between atoms: O_2  and  C_12
REMARK    2  A    between atoms: N_6  and  C_26
REMARK    3  A    between atoms: N_6  and  C_27
REMARK    4  A    between atoms: N_8  and  C_35
REMARK    5  A    between atoms: C_10  and  C_18
REMARK    6  A    between atoms: C_13  and  C_19
REMARK    7  A    between atoms: C_15  and  C_22
REMARK    8  A    between atoms: C_19  and  C_23
REMARK    9  A    between atoms: C_19  and  C_24
REMARK   10  A    between atoms: C_26  and  C_29
REMARK   11  A    between atoms: C_28  and  C_30
REMARK   12  A    between atoms: C_29  and  C_31
REMARK                            x       y       z     vdW  Elec       q    Type
REMARK                         _______ _______ _______ _____ _____    ______ ____
ROOT
ATOM      1  S   UNL     1       9.085   7.611   8.021  0.00  0.00    -0.057 S 
ATOM      4  O   UNL     1      10.932  11.890   8.442  0.00  0.00    -0.268 OA
ATOM      5  N   UNL     1      10.742   9.281   6.949  0.00  0.00    -0.229 NA
ATOM      7  N   UNL     1       9.606  10.009   8.946  0.00  0.00    -0.259 N 
ATOM     10  C   UNL     1      10.184   5.887   4.452  0.00  0.00    -0.022 C 
ATOM     11  C   UNL     1      11.619   6.544   4.389  0.00  0.00    +0.033 C 
ATOM     12  C   UNL     1      12.241   6.414   2.970  0.00  0.00    +0.123 C 
ATOM     13  C   UNL     1      12.219   4.963   2.440  0.00  0.00    +0.029 C 
ATOM     14  C   UNL     1      10.254   4.434   3.927  0.00  0.00    +0.008 C 
ATOM     15  C   UNL     1      11.616   8.028   4.942  0.00  0.00    +0.042 C 
ATOM     16  C   UNL     1      10.830   4.331   2.522  0.00  0.00    +0.007 C 
ATOM     17  C   UNL     1       9.697   5.825   5.933  0.00  0.00    +0.051 C 
ATOM     18  C   UNL     1       9.145   6.676   3.614  0.00  0.00    +0.012 C 
ATOM     20  C   UNL     1      10.760   8.131   6.181  0.00  0.00    +0.057 A 
ATOM     21  C   UNL     1       9.900   7.137   6.604  0.00  0.00    +0.015 A 
ATOM     22  C   UNL     1      13.023   8.572   5.231  0.00  0.00    +0.014 C 
ATOM     25  C   UNL     1       9.906   9.118   7.950  0.00  0.00    +0.165 A 
ATOM     28  C   UNL     1      10.112  11.317   9.149  0.00  0.00    +0.266 C 
ATOM     37  H   UNL     1       8.915   9.665   9.609  0.00  0.00    +0.157 HD
ENDROOT
BRANCH  28  30
ATOM      8  N   UNL     1       8.540  12.963  10.255  0.00  0.00    -0.346 N 
ATOM     30  C   UNL     1       9.566  12.057  10.318  0.00  0.00    +0.105 A 
ATOM     32  C   UNL     1       9.974  11.971  11.630  0.00  0.00    +0.032 A 
ATOM     33  C   UNL     1       8.285  13.455  11.509  0.00  0.00    +0.086 A 
ATOM     34  C   UNL     1       9.164  12.855  12.385  0.00  0.00    +0.020 A 
ATOM     35  C   UNL     1       7.824  13.351   9.061  0.00  0.00    +0.149 C 
ENDBRANCH  28  30
BRANCH  12   2
ATOM      2  O   UNL     1      13.604   6.830   3.009  0.00  0.00    -0.391 OA
ATOM     36  H   UNL     1      13.705   7.463   3.738  0.00  0.00    +0.210 HD
ENDBRANCH  12   2
BRANCH  13  19
ATOM     19  C   UNL     1      12.739   4.876   0.999  0.00  0.00    +0.078 C 
ATOM     23  C   UNL     1      11.670   4.238   0.109  0.00  0.00    +0.017 C 
BRANCH  19  24
ATOM      3  O   UNL     1      14.180   3.111   1.736  0.00  0.00    -0.275 OA
ATOM      6  N   UNL     1      15.029   4.463   0.062  0.00  0.00    -0.303 N 
ATOM     24  C   UNL     1      14.038   4.066   0.965  0.00  0.00    +0.219 C 
ATOM     27  C   UNL     1      16.289   3.726   0.019  0.00  0.00    +0.132 C 
BRANCH   6  26
ATOM     26  C   UNL     1      14.929   5.554  -0.906  0.00  0.00    +0.122 C 
BRANCH  26  29
ATOM     29  C   UNL     1      15.099   5.075  -2.343  0.00  0.00    +0.137 C 
BRANCH  29  31
ATOM      9  N   UNL     1      13.092   3.558  -3.113  0.00  0.00    -0.197 NA
ATOM     31  C   UNL     1      13.976   4.228  -2.774  0.00  0.00    +0.064 C 
ENDBRANCH  29  31
ENDBRANCH  26  29
ENDBRANCH   6  26
ENDBRANCH  19  24
ENDBRANCH  13  19
TORSDOF 7
ENDMDL
MODEL 5
REMARK VINA RESULT:      -6.1     19.957     20.927
REMARK  Name = 45361340
REMARK  12 active torsions:
REMARK  status: ('A' for Active; 'I' for Inactive)
REMARK    1  A    between atoms: O_2  and  C_12
REMARK    2  A    between atoms: N_6  and  C_26
REMARK    3  A    between atoms: N_6  and  C_27
REMARK    4  A    between atoms: N_8  and  C_35
REMARK    5  A    between atoms: C_10  and  C_18
REMARK    6  A    between atoms: C_13  and  C_19
REMARK    7  A    between atoms: C_15  and  C_22
REMARK    8  A    between atoms: C_19  and  C_23
REMARK    9  A    between atoms: C_19  and  C_24
REMARK   10  A    between atoms: C_26  and  C_29
REMARK   11  A    between atoms: C_28  and  C_30
REMARK   12  A    between atoms: C_29  and  C_31
REMARK                            x       y       z     vdW  Elec       q    Type
REMARK                         _______ _______ _______ _____ _____    ______ ____
ROOT
ATOM      1  S   UNL     1     -10.499   8.844  15.341  0.00  0.00    -0.057 S 
ATOM      4  O   UNL     1     -13.727  10.732  12.527  0.00  0.00    -0.268 OA
ATOM      5  N   UNL     1     -13.011   9.424  15.145  0.00  0.00    -0.229 NA
ATOM      7  N   UNL     1     -11.616   9.985  13.260  0.00  0.00    -0.259 N 
ATOM     10  C   UNL     1     -12.066   8.090  19.068  0.00  0.00    -0.022 C 
ATOM     11  C   UNL     1     -13.520   7.733  18.564  0.00  0.00    +0.033 C 
ATOM     12  C   UNL     1     -14.541   7.729  19.736  0.00  0.00    +0.123 C 
ATOM     13  C   UNL     1     -14.084   6.853  20.924  0.00  0.00    +0.029 C 
ATOM     14  C   UNL     1     -11.677   7.157  20.238  0.00  0.00    +0.008 C 
ATOM     15  C   UNL     1     -13.963   8.640  17.344  0.00  0.00    +0.042 C 
ATOM     16  C   UNL     1     -12.670   7.196  21.392  0.00  0.00    +0.007 C 
ATOM     17  C   UNL     1     -11.037   7.852  17.920  0.00  0.00    +0.051 C 
ATOM     18  C   UNL     1     -11.960   9.563  19.542  0.00  0.00    +0.012 C 
ATOM     20  C   UNL     1     -12.820   8.822  16.375  0.00  0.00    +0.057 A 
ATOM     21  C   UNL     1     -11.515   8.472  16.655  0.00  0.00    +0.015 A 
ATOM     22  C   UNL     1     -15.196   8.101  16.603  0.00  0.00    +0.014 C 
ATOM     25  C   UNL     1     -11.860   9.478  14.509  0.00  0.00    +0.165 A 
ATOM     28  C   UNL     1     -12.525  10.572  12.347  0.00  0.00    +0.266 C 
ATOM     37  H   UNL     1     -10.639   9.930  12.981  0.00  0.00    +0.157 HD
ENDROOT
BRANCH  28  30
ATOM      8  N   UNL     1     -11.540  12.347  10.836  0.00  0.00    -0.346 N 
ATOM     30  C   UNL     1     -11.946  11.058  11.066  0.00  0.00    +0.105 A 
ATOM     32  C   UNL     1     -11.717  10.332   9.919  0.00  0.00    +0.032 A 
ATOM     33  C   UNL     1     -11.053  12.453   9.559  0.00  0.00    +0.086 A 
ATOM     34  C   UNL     1     -11.152  11.213   8.964  0.00  0.00    +0.020 A 
ATOM     35  C   UNL     1     -11.606  13.438  11.781  0.00  0.00    +0.149 C 
ENDBRANCH  28  30
BRANCH  12   2
ATOM      2  O   UNL     1     -15.786   7.204  19.279  0.00  0.00    -0.391 OA
ATOM     36  H   UNL     1     -16.498   7.643  19.774  0.00  0.00    +0.210 HD
ENDBRANCH  12   2
BRANCH  13  19
ATOM     19  C   UNL     1     -15.054   6.949  22.108  0.00  0.00    +0.078 C 
ATOM     23  C   UNL     1     -14.638   8.108  23.016  0.00  0.00    +0.017 C 
BRANCH  19  24
ATOM      3  O   UNL     1     -13.998   5.148  23.281  0.00  0.00    -0.275 OA
ATOM      6  N   UNL     1     -16.297   4.996  23.074  0.00  0.00    -0.303 N 
ATOM     24  C   UNL     1     -15.065   5.625  22.878  0.00  0.00    +0.219 C 
ATOM     27  C   UNL     1     -16.341   3.721  23.784  0.00  0.00    +0.132 C 
BRANCH   6  26
ATOM     26  C   UNL     1     -17.604   5.507  22.661  0.00  0.00    +0.122 C 
BRANCH  26  29
ATOM     29  C   UNL     1     -18.300   4.587  21.665  0.00  0.00    +0.137 C 
BRANCH  29  31
ATOM      9  N   UNL     1     -17.074   4.557  19.338  0.00  0.00    -0.197 NA
ATOM     31  C   UNL     1     -17.615   4.570  20.364  0.00  0.00    +0.064 C 
ENDBRANCH  29  31
ENDBRANCH  26  29
ENDBRANCH   6  26
ENDBRANCH  19  24
ENDBRANCH  13  19
TORSDOF 7
ENDMDL
MODEL 6
REMARK VINA RESULT:      -6.0      5.816      9.801
REMARK  Name = 45361340
REMARK  12 active torsions:
REMARK  status: ('A' for Active; 'I' for Inactive)
REMARK    1  A    between atoms: O_2  and  C_12
REMARK    2  A    between atoms: N_6  and  C_26
REMARK    3  A    between atoms: N_6  and  C_27
REMARK    4  A    between atoms: N_8  and  C_35
REMARK    5  A    between atoms: C_10  and  C_18
REMARK    6  A    between atoms: C_13  and  C_19
REMARK    7  A    between atoms: C_15  and  C_22
REMARK    8  A    between atoms: C_19  and  C_23
REMARK    9  A    between atoms: C_19  and  C_24
REMARK   10  A    between atoms: C_26  and  C_29
REMARK   11  A    between atoms: C_28  and  C_30
REMARK   12  A    between atoms: C_29  and  C_31
REMARK                            x       y       z     vdW  Elec       q    Type
REMARK                         _______ _______ _______ _____ _____    ______ ____
ROOT
ATOM      1  S   UNL     1      -7.059  -8.103   8.928  0.00  0.00    -0.057 S 
ATOM      4  O   UNL     1     -11.263  -6.604   7.520  0.00  0.00    -0.268 OA
ATOM      5  N   UNL     1      -8.815  -8.291   7.038  0.00  0.00    -0.229 NA
ATOM      7  N   UNL     1      -9.351  -6.829   8.878  0.00  0.00    -0.259 N 
ATOM     10  C   UNL     1      -5.685 -11.114   6.485  0.00  0.00    -0.022 C 
ATOM     11  C   UNL     1      -6.335 -10.556   5.158  0.00  0.00    +0.033 C 
ATOM     12  C   UNL     1      -6.340 -11.631   4.034  0.00  0.00    +0.123 C 
ATOM     13  C   UNL     1      -4.949 -12.260   3.804  0.00  0.00    +0.029 C 
ATOM     14  C   UNL     1      -4.290 -11.704   6.173  0.00  0.00    +0.008 C 
ATOM     15  C   UNL     1      -7.758  -9.912   5.421  0.00  0.00    +0.042 C 
ATOM     16  C   UNL     1      -4.322 -12.781   5.097  0.00  0.00    +0.007 C 
ATOM     17  C   UNL     1      -5.482  -9.948   7.503  0.00  0.00    +0.051 C 
ATOM     18  C   UNL     1      -6.560 -12.211   7.146  0.00  0.00    +0.012 C 
ATOM     20  C   UNL     1      -7.745  -9.095   6.690  0.00  0.00    +0.057 A 
ATOM     21  C   UNL     1      -6.721  -9.132   7.615  0.00  0.00    +0.015 A 
ATOM     22  C   UNL     1      -8.261  -9.052   4.251  0.00  0.00    +0.014 C 
ATOM     25  C   UNL     1      -8.560  -7.710   8.190  0.00  0.00    +0.165 A 
ATOM     28  C   UNL     1     -10.629  -6.326   8.531  0.00  0.00    +0.266 C 
ATOM     37  H   UNL     1      -8.949  -6.520   9.760  0.00  0.00    +0.157 HD
ENDROOT
BRANCH  28  30
ATOM      8  N   UNL     1     -12.010  -5.787  10.581  0.00  0.00    -0.346 N 
ATOM     30  C   UNL     1     -11.255  -5.395   9.507  0.00  0.00    +0.105 A 
ATOM     32  C   UNL     1     -11.193  -4.019   9.514  0.00  0.00    +0.032 A 
ATOM     33  C   UNL     1     -12.429  -4.681  11.276  0.00  0.00    +0.086 A 
ATOM     34  C   UNL     1     -11.935  -3.567  10.633  0.00  0.00    +0.020 A 
ATOM     35  C   UNL     1     -12.325  -7.150  10.944  0.00  0.00    +0.149 C 
ENDBRANCH  28  30
BRANCH  12   2
ATOM      2  O   UNL     1      -6.741 -11.029   2.804  0.00  0.00    -0.391 OA
ATOM     36  H   UNL     1      -7.699 -10.875   2.843  0.00  0.00    +0.210 HD
ENDBRANCH  12   2
BRANCH  13  19
ATOM     19  C   UNL     1      -5.000 -13.390   2.768  0.00  0.00    +0.078 C 
ATOM     23  C   UNL     1      -4.756 -14.731   3.462  0.00  0.00    +0.017 C 
BRANCH  19  24
ATOM      3  O   UNL     1      -2.845 -12.696   1.988  0.00  0.00    -0.275 OA
ATOM      6  N   UNL     1      -4.320 -13.406   0.353  0.00  0.00    -0.303 N 
ATOM     24  C   UNL     1      -3.956 -13.138   1.676  0.00  0.00    +0.219 C 
ATOM     27  C   UNL     1      -3.356 -13.156  -0.715  0.00  0.00    +0.132 C 
BRANCH   6  26
ATOM     26  C   UNL     1      -5.596 -13.961  -0.097  0.00  0.00    +0.122 C 
BRANCH  26  29
ATOM     29  C   UNL     1      -6.268 -13.092  -1.153  0.00  0.00    +0.137 C 
BRANCH  29  31
ATOM      9  N   UNL     1      -7.887 -11.317  -0.080  0.00  0.00    -0.197 NA
ATOM     31  C   UNL     1      -7.172 -12.100  -0.552  0.00  0.00    +0.064 C 
ENDBRANCH  29  31
ENDBRANCH  26  29
ENDBRANCH   6  26
ENDBRANCH  19  24
ENDBRANCH  13  19
TORSDOF 7
ENDMDL
MODEL 7
REMARK VINA RESULT:      -5.8      6.423     12.103
REMARK  Name = 45361340
REMARK  12 active torsions:
REMARK  status: ('A' for Active; 'I' for Inactive)
REMARK    1  A    between atoms: O_2  and  C_12
REMARK    2  A    between atoms: N_6  and  C_26
REMARK    3  A    between atoms: N_6  and  C_27
REMARK    4  A    between atoms: N_8  and  C_35
REMARK    5  A    between atoms: C_10  and  C_18
REMARK    6  A    between atoms: C_13  and  C_19
REMARK    7  A    between atoms: C_15  and  C_22
REMARK    8  A    between atoms: C_19  and  C_23
REMARK    9  A    between atoms: C_19  and  C_24
REMARK   10  A    between atoms: C_26  and  C_29
REMARK   11  A    between atoms: C_28  and  C_30
REMARK   12  A    between atoms: C_29  and  C_31
REMARK                            x       y       z     vdW  Elec       q    Type
REMARK                         _______ _______ _______ _____ _____    ______ ____
ROOT
ATOM      1  S   UNL     1      -9.716 -10.916  19.737  0.00  0.00    -0.057 S 
ATOM      4  O   UNL     1     -10.392 -15.278  21.290  0.00  0.00    -0.268 OA
ATOM      5  N   UNL     1      -8.899 -13.359  19.513  0.00  0.00    -0.229 NA
ATOM      7  N   UNL     1     -10.698 -12.953  21.065  0.00  0.00    -0.259 N 
ATOM     10  C   UNL     1      -6.362 -10.710  17.365  0.00  0.00    -0.022 C 
ATOM     11  C   UNL     1      -6.513 -12.154  16.744  0.00  0.00    +0.033 C 
ATOM     12  C   UNL     1      -5.204 -12.607  16.036  0.00  0.00    +0.123 C 
ATOM     13  C   UNL     1      -4.684 -11.566  15.021  0.00  0.00    +0.029 C 
ATOM     14  C   UNL     1      -5.859  -9.727  16.282  0.00  0.00    +0.008 C 
ATOM     15  C   UNL     1      -7.053 -13.201  17.803  0.00  0.00    +0.042 C 
ATOM     16  C   UNL     1      -4.558 -10.169  15.628  0.00  0.00    +0.007 C 
ATOM     17  C   UNL     1      -7.752 -10.197  17.852  0.00  0.00    +0.051 C 
ATOM     18  C   UNL     1      -5.373 -10.691  18.560  0.00  0.00    +0.012 C 
ATOM     20  C   UNL     1      -8.148 -12.590  18.642  0.00  0.00    +0.057 A 
ATOM     21  C   UNL     1      -8.440 -11.241  18.658  0.00  0.00    +0.015 A 
ATOM     22  C   UNL     1      -7.549 -14.508  17.165  0.00  0.00    +0.014 C 
ATOM     25  C   UNL     1      -9.763 -12.586  20.134  0.00  0.00    +0.165 A 
ATOM     28  C   UNL     1     -10.969 -14.240  21.591  0.00  0.00    +0.266 C 
ATOM     37  H   UNL     1     -11.251 -12.175  21.418  0.00  0.00    +0.157 HD
ENDROOT
BRANCH  28  30
ATOM      8  N   UNL     1     -13.381 -14.376  22.346  0.00  0.00    -0.346 N 
ATOM     30  C   UNL     1     -12.040 -14.315  22.621  0.00  0.00    +0.105 A 
ATOM     32  C   UNL     1     -11.887 -14.338  23.990  0.00  0.00    +0.032 A 
ATOM     33  C   UNL     1     -14.087 -14.440  23.519  0.00  0.00    +0.086 A 
ATOM     34  C   UNL     1     -13.182 -14.417  24.559  0.00  0.00    +0.020 A 
ATOM     35  C   UNL     1     -13.977 -14.377  21.029  0.00  0.00    +0.149 C 
ENDBRANCH  28  30
BRANCH  12   2
ATOM      2  O   UNL     1      -5.447 -13.814  15.317  0.00  0.00    -0.391 OA
ATOM     36  H   UNL     1      -4.733 -13.926  14.667  0.00  0.00    +0.210 HD
ENDBRANCH  12   2
BRANCH  13  19
ATOM     19  C   UNL     1      -3.338 -11.986  14.415  0.00  0.00    +0.078 C 
ATOM     23  C   UNL     1      -2.198 -11.413  15.259  0.00  0.00    +0.017 C 
BRANCH  19  24
ATOM      3  O   UNL     1      -2.903 -10.335  12.736  0.00  0.00    -0.275 OA
ATOM      6  N   UNL     1      -3.585 -12.402  11.953  0.00  0.00    -0.303 N 
ATOM     24  C   UNL     1      -3.248 -11.499  12.966  0.00  0.00    +0.219 C 
ATOM     27  C   UNL     1      -3.532 -11.964  10.562  0.00  0.00    +0.132 C 
BRANCH   6  26
ATOM     26  C   UNL     1      -3.968 -13.801  12.136  0.00  0.00    +0.122 C 
BRANCH  26  29
ATOM     29  C   UNL     1      -2.879 -14.767  11.682  0.00  0.00    +0.137 C 
BRANCH  29  31
ATOM      9  N   UNL     1      -1.052 -15.125  13.540  0.00  0.00    -0.197 NA
ATOM     31  C   UNL     1      -1.858 -14.968  12.721  0.00  0.00    +0.064 C 
ENDBRANCH  29  31
ENDBRANCH  26  29
ENDBRANCH   6  26
ENDBRANCH  19  24
ENDBRANCH  13  19
TORSDOF 7
ENDMDL
MODEL 8
REMARK VINA RESULT:      -5.8      5.248     10.949
REMARK  Name = 45361340
REMARK  12 active torsions:
REMARK  status: ('A' for Active; 'I' for Inactive)
REMARK    1  A    between atoms: O_2  and  C_12
REMARK    2  A    between atoms: N_6  and  C_26
REMARK    3  A    between atoms: N_6  and  C_27
REMARK    4  A    between atoms: N_8  and  C_35
REMARK    5  A    between atoms: C_10  and  C_18
REMARK    6  A    between atoms: C_13  and  C_19
REMARK    7  A    between atoms: C_15  and  C_22
REMARK    8  A    between atoms: C_19  and  C_23
REMARK    9  A    between atoms: C_19  and  C_24
REMARK   10  A    between atoms: C_26  and  C_29
REMARK   11  A    between atoms: C_28  and  C_30
REMARK   12  A    between atoms: C_29  and  C_31
REMARK                            x       y       z     vdW  Elec       q    Type
REMARK                         _______ _______ _______ _____ _____    ______ ____
ROOT
ATOM      1  S   UNL     1      -7.662 -11.005  20.049  0.00  0.00    -0.057 S 
ATOM      4  O   UNL     1     -11.917 -12.344  18.633  0.00  0.00    -0.268 OA
ATOM      5  N   UNL     1      -9.045 -11.712  17.982  0.00  0.00    -0.229 NA
ATOM      7  N   UNL     1     -10.204 -11.649  20.095  0.00  0.00    -0.259 N 
ATOM     10  C   UNL     1      -4.923 -11.376  17.004  0.00  0.00    -0.022 C 
ATOM     11  C   UNL     1      -5.925 -11.016  15.838  0.00  0.00    +0.033 C 
ATOM     12  C   UNL     1      -5.341 -11.399  14.449  0.00  0.00    +0.123 C 
ATOM     13  C   UNL     1      -3.924 -10.831  14.220  0.00  0.00    +0.029 C 
ATOM     14  C   UNL     1      -3.538 -10.753  16.710  0.00  0.00    +0.008 C 
ATOM     15  C   UNL     1      -7.372 -11.606  16.098  0.00  0.00    +0.042 C 
ATOM     16  C   UNL     1      -2.966 -11.170  15.362  0.00  0.00    +0.007 C 
ATOM     17  C   UNL     1      -5.434 -10.766  18.346  0.00  0.00    +0.051 C 
ATOM     18  C   UNL     1      -4.758 -12.908  17.178  0.00  0.00    +0.012 C 
ATOM     20  C   UNL     1      -7.761 -11.438  17.547  0.00  0.00    +0.057 A 
ATOM     21  C   UNL     1      -6.877 -11.071  18.541  0.00  0.00    +0.015 A 
ATOM     22  C   UNL     1      -8.450 -10.992  15.192  0.00  0.00    +0.014 C 
ATOM     25  C   UNL     1      -9.113 -11.506  19.279  0.00  0.00    +0.165 A 
ATOM     28  C   UNL     1     -11.520 -12.048  19.755  0.00  0.00    +0.266 C 
ATOM     37  H   UNL     1     -10.013 -11.446  21.073  0.00  0.00    +0.157 HD
ENDROOT
BRANCH  28  30
ATOM      8  N   UNL     1     -12.486 -13.118  21.834  0.00  0.00    -0.346 N 
ATOM     30  C   UNL     1     -12.490 -12.136  20.879  0.00  0.00    +0.105 A 
ATOM     32  C   UNL     1     -13.530 -11.278  21.159  0.00  0.00    +0.032 A 
ATOM     33  C   UNL     1     -13.507 -12.899  22.722  0.00  0.00    +0.086 A 
ATOM     34  C   UNL     1     -14.175 -11.760  22.325  0.00  0.00    +0.020 A 
ATOM     35  C   UNL     1     -11.555 -14.221  21.912  0.00  0.00    +0.149 C 
ENDBRANCH  28  30
BRANCH  12   2
ATOM      2  O   UNL     1      -6.178 -10.874  13.421  0.00  0.00    -0.391 OA
ATOM     36  H   UNL     1      -7.000 -11.393  13.407  0.00  0.00    +0.210 HD
ENDBRANCH  12   2
BRANCH  13  19
ATOM     19  C   UNL     1      -3.326 -11.309  12.891  0.00  0.00    +0.078 C 
ATOM     23  C   UNL     1      -2.825 -12.746  13.044  0.00  0.00    +0.017 C 
BRANCH  19  24
ATOM      3  O   UNL     1      -1.276 -10.128  13.261  0.00  0.00    -0.275 OA
ATOM      6  N   UNL     1      -2.251  -9.813  11.187  0.00  0.00    -0.303 N 
ATOM     24  C   UNL     1      -2.190 -10.372  12.467  0.00  0.00    +0.219 C 
ATOM     27  C   UNL     1      -1.197  -8.899  10.759  0.00  0.00    +0.132 C 
BRANCH   6  26
ATOM     26  C   UNL     1      -3.275 -10.076  10.177  0.00  0.00    +0.122 C 
BRANCH  26  29
ATOM     29  C   UNL     1      -4.131  -8.849   9.882  0.00  0.00    +0.137 C 
BRANCH  29  31
ATOM      9  N   UNL     1      -6.086  -8.577  11.622  0.00  0.00    -0.197 NA
ATOM     31  C   UNL     1      -5.223  -8.696  10.855  0.00  0.00    +0.064 C 
ENDBRANCH  29  31
ENDBRANCH  26  29
ENDBRANCH   6  26
ENDBRANCH  19  24
ENDBRANCH  13  19
TORSDOF 7
ENDMDL
MODEL 9
REMARK VINA RESULT:      -5.7     27.610     29.500
REMARK  Name = 45361340
REMARK  12 active torsions:
REMARK  status: ('A' for Active; 'I' for Inactive)
REMARK    1  A    between atoms: O_2  and  C_12
REMARK    2  A    between atoms: N_6  and  C_26
REMARK    3  A    between atoms: N_6  and  C_27
REMARK    4  A    between atoms: N_8  and  C_35
REMARK    5  A    between atoms: C_10  and  C_18
REMARK    6  A    between atoms: C_13  and  C_19
REMARK    7  A    between atoms: C_15  and  C_22
REMARK    8  A    between atoms: C_19  and  C_23
REMARK    9  A    between atoms: C_19  and  C_24
REMARK   10  A    between atoms: C_26  and  C_29
REMARK   11  A    between atoms: C_28  and  C_30
REMARK   12  A    between atoms: C_29  and  C_31
REMARK                            x       y       z     vdW  Elec       q    Type
REMARK                         _______ _______ _______ _____ _____    ______ ____
ROOT
ATOM      1  S   UNL     1      14.959  13.704  15.134  0.00  0.00    -0.057 S 
ATOM      4  O   UNL     1      12.527  11.809  11.613  0.00  0.00    -0.268 OA
ATOM      5  N   UNL     1      13.668  11.590  14.392  0.00  0.00    -0.229 NA
ATOM      7  N   UNL     1      13.788  13.402  12.806  0.00  0.00    -0.259 N 
ATOM     10  C   UNL     1      14.748  11.343  18.495  0.00  0.00    -0.022 C 
ATOM     11  C   UNL     1      14.703   9.966  17.724  0.00  0.00    +0.033 C 
ATOM     12  C   UNL     1      14.255   8.807  18.659  0.00  0.00    +0.123 C 
ATOM     13  C   UNL     1      15.080   8.739  19.963  0.00  0.00    +0.029 C 
ATOM     14  C   UNL     1      15.609  11.197  19.772  0.00  0.00    +0.008 C 
ATOM     15  C   UNL     1      13.856  10.062  16.389  0.00  0.00    +0.042 C 
ATOM     16  C   UNL     1      15.132  10.082  20.692  0.00  0.00    +0.007 C 
ATOM     17  C   UNL     1      15.424  12.427  17.599  0.00  0.00    +0.051 C 
ATOM     18  C   UNL     1      13.333  11.833  18.896  0.00  0.00    +0.012 C 
ATOM     20  C   UNL     1      14.148  11.355  15.668  0.00  0.00    +0.057 A 
ATOM     21  C   UNL     1      14.843  12.407  16.229  0.00  0.00    +0.015 A 
ATOM     22  C   UNL     1      14.078   8.873  15.442  0.00  0.00    +0.014 C 
ATOM     25  C   UNL     1      14.044  12.789  14.005  0.00  0.00    +0.165 A 
ATOM     28  C   UNL     1      13.065  12.907  11.693  0.00  0.00    +0.266 C 
ATOM     37  H   UNL     1      14.172  14.341  12.737  0.00  0.00    +0.157 HD
ENDROOT
BRANCH  28  30
ATOM      8  N   UNL     1      11.892  14.697  10.343  0.00  0.00    -0.346 N 
ATOM     30  C   UNL     1      12.935  13.829  10.533  0.00  0.00    +0.105 A 
ATOM     32  C   UNL     1      13.807  13.978   9.478  0.00  0.00    +0.032 A 
ATOM     33  C   UNL     1      12.085  15.399   9.182  0.00  0.00    +0.086 A 
ATOM     34  C   UNL     1      13.270  14.971   8.622  0.00  0.00    +0.020 A 
ATOM     35  C   UNL     1      10.755  14.861  11.220  0.00  0.00    +0.149 C 
ENDBRANCH  28  30
BRANCH  12   2
ATOM      2  O   UNL     1      14.426   7.561  17.986  0.00  0.00    -0.391 OA
ATOM     36  H   UNL     1      15.336   7.257  18.142  0.00  0.00    +0.210 HD
ENDBRANCH  12   2
BRANCH  13  19
ATOM     19  C   UNL     1      14.552   7.659  20.915  0.00  0.00    +0.078 C 
ATOM     23  C   UNL     1      15.384   6.385  20.753  0.00  0.00    +0.017 C 
BRANCH  19  24
ATOM      3  O   UNL     1      12.763   6.498  19.825  0.00  0.00    -0.275 OA
ATOM      6  N   UNL     1      12.125   8.189  21.268  0.00  0.00    -0.303 N 
ATOM     24  C   UNL     1      13.073   7.389  20.623  0.00  0.00    +0.219 C 
ATOM     27  C   UNL     1      10.707   7.974  20.996  0.00  0.00    +0.132 C 
BRANCH   6  26
ATOM     26  C   UNL     1      12.404   9.237  22.249  0.00  0.00    +0.122 C 
BRANCH  26  29
ATOM     29  C   UNL     1      11.561  10.487  22.021  0.00  0.00    +0.137 C 
BRANCH  29  31
ATOM      9  N   UNL     1      10.595  11.440  24.275  0.00  0.00    -0.197 NA
ATOM     31  C   UNL     1      11.020  11.020  23.281  0.00  0.00    +0.064 C 
ENDBRANCH  29  31
ENDBRANCH  26  29
ENDBRANCH   6  26
ENDBRANCH  19  24
ENDBRANCH  13  19
TORSDOF 7
ENDMDL
MODEL 10
REMARK VINA RESULT:      -5.7     20.522     21.841
REMARK  Name = 45361340
REMARK  12 active torsions:
REMARK  status: ('A' for Active; 'I' for Inactive)
REMARK    1  A    between atoms: O_2  and  C_12
REMARK    2  A    between atoms: N_6  and  C_26
REMARK    3  A    between atoms: N_6  and  C_27
REMARK    4  A    between atoms: N_8  and  C_35
REMARK    5  A    between atoms: C_10  and  C_18
REMARK    6  A    between atoms: C_13  and  C_19
REMARK    7  A    between atoms: C_15  and  C_22
REMARK    8  A    between atoms: C_19  and  C_23
REMARK    9  A    between atoms: C_19  and  C_24
REMARK   10  A    between atoms: C_26  and  C_29
REMARK   11  A    between atoms: C_28  and  C_30
REMARK   12  A    between atoms: C_29  and  C_31
REMARK                            x       y       z     vdW  Elec       q    Type
REMARK                         _______ _______ _______ _____ _____    ______ ____
ROOT
ATOM      1  S   UNL     1     -10.219   9.335  17.806  0.00  0.00    -0.057 S 
ATOM      4  O   UNL     1     -12.578  12.520  15.318  0.00  0.00    -0.268 OA
ATOM      5  N   UNL     1     -12.579  10.279  17.330  0.00  0.00    -0.229 NA
ATOM      7  N   UNL     1     -10.744  11.284  16.132  0.00  0.00    -0.259 N 
ATOM     10  C   UNL     1     -12.676   7.514  20.557  0.00  0.00    -0.022 C 
ATOM     11  C   UNL     1     -13.980   7.560  19.667  0.00  0.00    +0.033 C 
ATOM     12  C   UNL     1     -15.254   7.274  20.511  0.00  0.00    +0.123 C 
ATOM     13  C   UNL     1     -15.139   5.979  21.344  0.00  0.00    +0.029 C 
ATOM     14  C   UNL     1     -12.626   6.180  21.339  0.00  0.00    +0.008 C 
ATOM     15  C   UNL     1     -14.071   8.895  18.819  0.00  0.00    +0.042 C 
ATOM     16  C   UNL     1     -13.866   5.937  22.188  0.00  0.00    +0.007 C 
ATOM     17  C   UNL     1     -11.412   7.567  19.644  0.00  0.00    +0.051 C 
ATOM     18  C   UNL     1     -12.618   8.691  21.565  0.00  0.00    +0.012 C 
ATOM     20  C   UNL     1     -12.720   9.256  18.251  0.00  0.00    +0.057 A 
ATOM     21  C   UNL     1     -11.539   8.657  18.640  0.00  0.00    +0.015 A 
ATOM     22  C   UNL     1     -15.112   8.828  17.692  0.00  0.00    +0.014 C 
ATOM     25  C   UNL     1     -11.308  10.401  17.015  0.00  0.00    +0.165 A 
ATOM     28  C   UNL     1     -11.377  12.276  15.343  0.00  0.00    +0.266 C 
ATOM     37  H   UNL     1      -9.733  11.202  16.061  0.00  0.00    +0.157 HD
ENDROOT
BRANCH  28  30
ATOM      8  N   UNL     1     -10.696  13.368  13.164  0.00  0.00    -0.346 N 
ATOM     30  C   UNL     1     -10.482  13.106  14.492  0.00  0.00    +0.105 A 
ATOM     32  C   UNL     1      -9.320  13.742  14.867  0.00  0.00    +0.032 A 
ATOM     33  C   UNL     1      -9.688  14.164  12.686  0.00  0.00    +0.086 A 
ATOM     34  C   UNL     1      -8.816  14.412  13.725  0.00  0.00    +0.020 A 
ATOM     35  C   UNL     1     -11.808  12.889  12.374  0.00  0.00    +0.149 C 
ENDBRANCH  28  30
BRANCH  12   2
ATOM      2  O   UNL     1     -16.374   7.121  19.642  0.00  0.00    -0.391 OA
ATOM     36  H   UNL     1     -16.072   6.665  18.839  0.00  0.00    +0.210 HD
ENDBRANCH  12   2
BRANCH  13  19
ATOM     19  C   UNL     1     -16.362   5.774  22.248  0.00  0.00    +0.078 C 
ATOM     23  C   UNL     1     -16.306   6.763  23.414  0.00  0.00    +0.017 C 
BRANCH  19  24
ATOM      3  O   UNL     1     -15.445   3.895  23.416  0.00  0.00    -0.275 OA
ATOM      6  N   UNL     1     -17.506   3.548  22.424  0.00  0.00    -0.303 N 
ATOM     24  C   UNL     1     -16.395   4.329  22.755  0.00  0.00    +0.219 C 
ATOM     27  C   UNL     1     -17.559   2.160  22.872  0.00  0.00    +0.132 C 
BRANCH   6  26
ATOM     26  C   UNL     1     -18.682   3.992  21.678  0.00  0.00    +0.122 C 
BRANCH  26  29
ATOM     29  C   UNL     1     -18.788   3.331  20.309  0.00  0.00    +0.137 C 
BRANCH  29  31
ATOM      9  N   UNL     1     -17.456   4.662  18.472  0.00  0.00    -0.197 NA
ATOM     31  C   UNL     1     -18.042   4.075  19.283  0.00  0.00    +0.064 C 
ENDBRANCH  29  31
ENDBRANCH  26  29
ENDBRANCH   6  26
ENDBRANCH  19  24
ENDBRANCH  13  19
TORSDOF 7
ENDMDL
