REMARK  Name = 11886105
REMARK  7 active torsions:
REMARK  status: ('A' for Active; 'I' for Inactive)
REMARK    1  A    between atoms: O_3  and  C_14
REMARK    2  A    between atoms: O_3  and  C_19
REMARK    3  A    between atoms: N_5  and  C_13
REMARK    4  A    between atoms: N_9  and  C_21
REMARK    5  A    between atoms: C_17  and  C_18
REMARK    6  A    between atoms: C_18  and  C_20
REMARK    7  A    between atoms: C_25  and  C_28
REMARK                            x       y       z     vdW  Elec       q    Type
REMARK                         _______ _______ _______ _____ _____    ______ ____
ROOT
ATOM      1  O   UNL     1      -0.856  -0.221  -0.938  0.00  0.00    -0.368 OA
ATOM      2  O   UNL     1      -2.430  -2.436   0.535  0.00  0.00    -0.368 OA
ATOM     11  C   UNL     1      -2.462  -0.995   0.632  0.00  0.00    +0.177 C 
ATOM     12  C   UNL     1      -1.036  -0.513   0.457  0.00  0.00    +0.192 C 
ATOM     13  C   UNL     1      -3.207  -0.423  -0.558  0.00  0.00    +0.168 C 
ATOM     14  C   UNL     1      -0.224  -1.712   0.885  0.00  0.00    +0.235 C 
ATOM     15  C   UNL     1      -2.116  -0.318  -1.618  0.00  0.00    +0.190 C 
ATOM     16  C   UNL     1      -1.069  -2.862   0.387  0.00  0.00    +0.207 C 
ENDROOT
BRANCH  13   5
ATOM      5  N   UNL     1      -3.894   0.831  -0.239  0.00  0.00    -0.221 N 
ATOM      6  N   UNL     1      -3.265   2.005  -0.354  0.00  0.00    -0.043 NA
ATOM      7  N   UNL     1      -5.360   2.308   0.347  0.00  0.00    -0.113 NA
ATOM      8  N   UNL     1      -4.168   2.908   0.006  0.00  0.00    -0.023 NA
ATOM     17  C   UNL     1      -5.166   1.019   0.186  0.00  0.00    +0.156 A 
BRANCH  17  18
ATOM     18  C   UNL     1      -6.126  -0.073   0.413  0.00  0.00    +0.104 C 
BRANCH  18  20
ATOM     20  C   UNL     1      -6.973  -0.461  -0.787  0.00  0.00    -0.027 C 
ATOM     22  C   UNL     1      -8.303  -0.334  -0.851  0.00  0.00    +0.004 C 
ENDBRANCH  18  20
ENDBRANCH  17  18
ENDBRANCH  13   5
BRANCH  14   3
ATOM      3  O   UNL     1       1.077  -1.735   0.344  0.00  0.00    -0.442 OA
BRANCH   3  19
ATOM      4  O   UNL     1       1.577   0.200   1.456  0.00  0.00    -0.226 OA
ATOM      9  N   UNL     1       3.147  -0.875   0.092  0.00  0.00    -0.251 N 
ATOM     19  C   UNL     1       1.920  -0.704   0.703  0.00  0.00    +0.405 C 
ATOM     29  H   UNL     1       3.241  -1.695  -0.502  0.00  0.00    +0.158 HD
BRANCH   9  21
ATOM     21  C   UNL     1       4.291  -0.051   0.189  0.00  0.00    +0.038 A 
ATOM     23  C   UNL     1       5.439  -0.396  -0.506  0.00  0.00    +0.042 A 
ATOM     24  C   UNL     1       4.243   1.086   0.980  0.00  0.00    +0.023 A 
ATOM     25  C   UNL     1       6.568   0.417  -0.408  0.00  0.00    +0.054 A 
ATOM     26  C   UNL     1       5.372   1.899   1.078  0.00  0.00    +0.003 A 
ATOM     27  C   UNL     1       6.535   1.565   0.384  0.00  0.00    +0.019 A 
BRANCH  25  28
ATOM     10  N   UNL     1       8.728  -0.204  -1.696  0.00  0.00    -0.191 NA
ATOM     28  C   UNL     1       7.760   0.075  -1.118  0.00  0.00    +0.099 C 
ENDBRANCH  25  28
ENDBRANCH   9  21
ENDBRANCH   3  19
ENDBRANCH  14   3
TORSDOF 7
