MODEL 1
REMARK VINA RESULT:      -7.3      0.000      0.000
REMARK  Name = 26743431
REMARK  11 active torsions:
REMARK  status: ('A' for Active; 'I' for Inactive)
REMARK    1  A    between atoms: N_2  and  C_15
REMARK    2  A    between atoms: N_3  and  C_8
REMARK    3  A    between atoms: N_5  and  C_27
REMARK    4  A    between atoms: C_6  and  C_9
REMARK    5  A    between atoms: C_12  and  C_16
REMARK    6  A    between atoms: C_13  and  C_17
REMARK    7  A    between atoms: C_14  and  C_18
REMARK    8  A    between atoms: C_14  and  C_24
REMARK    9  A    between atoms: C_14  and  C_25
REMARK   10  A    between atoms: C_14  and  C_26
REMARK   11  A    between atoms: C_27  and  C_28
REMARK                            x       y       z     vdW  Elec       q    Type
REMARK                         _______ _______ _______ _____ _____    ______ ____
ROOT
ATOM      6  C   UNL     1      -4.745  -9.696  10.231  0.00  0.00    +0.047 C 
ATOM      7  C   UNL     1      -4.665 -11.003  11.045  0.00  0.00    +0.039 C 
ATOM      8  C   UNL     1      -3.345 -10.934  11.822  0.00  0.00    +0.098 C 
ATOM     10  C   UNL     1      -3.306  -9.271  10.163  0.00  0.00    -0.021 C 
ATOM     11  C   UNL     1      -2.548  -9.945  11.035  0.00  0.00    -0.009 C 
ENDROOT
BRANCH   6   9
ATOM      2  N   UNL     1      -6.665  -9.633   7.112  0.00  0.00    -0.236 N 
ATOM      4  N   UNL     1      -5.953 -10.740   6.845  0.00  0.00    -0.171 NA
ATOM      9  C   UNL     1      -5.415  -9.869   8.887  0.00  0.00    +0.003 A 
ATOM     12  C   UNL     1      -6.380  -9.072   8.322  0.00  0.00    +0.046 A 
ATOM     13  C   UNL     1      -5.191 -10.880   7.933  0.00  0.00    +0.064 A 
ATOM     16  C   UNL     1      -7.039  -7.849   8.825  0.00  0.00    +0.066 C 
ATOM     17  C   UNL     1      -4.249 -12.010   8.018  0.00  0.00    +0.068 C 
BRANCH   2  15
ATOM     15  C   UNL     1      -7.593  -9.165   6.180  0.00  0.00    +0.066 A 
ATOM     18  C   UNL     1      -9.447  -8.235   4.315  0.00  0.00    -0.042 A 
ATOM     20  C   UNL     1      -8.947  -9.462   6.335  0.00  0.00    +0.028 A 
ATOM     21  C   UNL     1      -7.165  -8.402   5.093  0.00  0.00    +0.028 A 
ATOM     22  C   UNL     1      -9.874  -8.997   5.403  0.00  0.00    +0.006 A 
ATOM     23  C   UNL     1      -8.092  -7.938   4.160  0.00  0.00    +0.006 A 
BRANCH  18  14
ATOM     14  C   UNL     1     -10.437  -7.736   3.318  0.00  0.00    -0.013 C 
ATOM     24  C   UNL     1     -11.777  -7.192   3.917  0.00  0.00    +0.015 C 
ATOM     25  C   UNL     1      -9.851  -6.559   2.478  0.00  0.00    +0.015 C 
ATOM     26  C   UNL     1     -10.855  -8.862   2.322  0.00  0.00    +0.015 C 
ENDBRANCH  18  14
ENDBRANCH   2  15
ENDBRANCH   6   9
BRANCH   8   3
ATOM      1  O   UNL     1      -2.888 -12.385  14.275  0.00  0.00    -0.253 OA
ATOM      3  N   UNL     1      -3.513 -10.444  13.164  0.00  0.00    -0.293 N 
ATOM      5  N   UNL     1      -3.511 -10.497  15.469  0.00  0.00    -0.295 N 
ATOM     19  C   UNL     1      -3.269 -11.217  14.301  0.00  0.00    +0.300 C 
ATOM     34  H   UNL     1      -3.785  -9.475  13.305  0.00  0.00    +0.151 HD
ATOM     35  H   UNL     1      -3.803  -9.527  15.393  0.00  0.00    +0.151 HD
BRANCH   5  27
ATOM     27  C   UNL     1      -3.336 -11.061  16.786  0.00  0.00    +0.141 C 
BRANCH  27  28
ATOM     28  C   UNL     1      -4.573 -10.922  17.626  0.00  0.00    -0.030 A 
ATOM     29  C   UNL     1      -5.669 -10.209  17.142  0.00  0.00    +0.005 A 
ATOM     30  C   UNL     1      -4.627 -11.509  18.891  0.00  0.00    +0.005 A 
ATOM     31  C   UNL     1      -6.818 -10.080  17.923  0.00  0.00    +0.000 A 
ATOM     32  C   UNL     1      -5.775 -11.381  19.672  0.00  0.00    +0.000 A 
ATOM     33  C   UNL     1      -6.871 -10.666  19.187  0.00  0.00    +0.000 A 
ENDBRANCH  27  28
ENDBRANCH   5  27
ENDBRANCH   8   3
TORSDOF 6
ENDMDL
MODEL 2
REMARK VINA RESULT:      -7.0      7.129     10.612
REMARK  Name = 26743431
REMARK  11 active torsions:
REMARK  status: ('A' for Active; 'I' for Inactive)
REMARK    1  A    between atoms: N_2  and  C_15
REMARK    2  A    between atoms: N_3  and  C_8
REMARK    3  A    between atoms: N_5  and  C_27
REMARK    4  A    between atoms: C_6  and  C_9
REMARK    5  A    between atoms: C_12  and  C_16
REMARK    6  A    between atoms: C_13  and  C_17
REMARK    7  A    between atoms: C_14  and  C_18
REMARK    8  A    between atoms: C_14  and  C_24
REMARK    9  A    between atoms: C_14  and  C_25
REMARK   10  A    between atoms: C_14  and  C_26
REMARK   11  A    between atoms: C_27  and  C_28
REMARK                            x       y       z     vdW  Elec       q    Type
REMARK                         _______ _______ _______ _____ _____    ______ ____
ROOT
ATOM      6  C   UNL     1      -3.186 -13.869   4.762  0.00  0.00    +0.047 C 
ATOM      7  C   UNL     1      -3.806 -12.470   4.956  0.00  0.00    +0.039 C 
ATOM      8  C   UNL     1      -5.215 -12.709   5.512  0.00  0.00    +0.098 C 
ATOM     10  C   UNL     1      -4.399 -14.750   4.685  0.00  0.00    -0.021 C 
ATOM     11  C   UNL     1      -5.501 -14.116   5.098  0.00  0.00    -0.009 C 
ENDROOT
BRANCH   6   9
ATOM      2  N   UNL     1      -0.566 -14.291   2.237  0.00  0.00    -0.236 N 
ATOM      4  N   UNL     1      -1.509 -13.797   1.417  0.00  0.00    -0.171 NA
ATOM      9  C   UNL     1      -2.267 -13.955   3.565  0.00  0.00    +0.003 A 
ATOM     12  C   UNL     1      -0.970 -14.406   3.535  0.00  0.00    +0.046 A 
ATOM     13  C   UNL     1      -2.545 -13.593   2.234  0.00  0.00    +0.064 A 
ATOM     16  C   UNL     1      -0.103 -14.927   4.611  0.00  0.00    +0.066 C 
ATOM     17  C   UNL     1      -3.799 -13.044   1.689  0.00  0.00    +0.068 C 
BRANCH   2  15
ATOM     15  C   UNL     1       0.688 -14.631   1.726  0.00  0.00    +0.066 A 
ATOM     18  C   UNL     1       3.195 -15.314   0.711  0.00  0.00    -0.042 A 
ATOM     20  C   UNL     1       1.075 -15.970   1.667  0.00  0.00    +0.028 A 
ATOM     21  C   UNL     1       1.553 -13.633   1.277  0.00  0.00    +0.028 A 
ATOM     22  C   UNL     1       2.329 -16.311   1.160  0.00  0.00    +0.006 A 
ATOM     23  C   UNL     1       2.806 -13.975   0.770  0.00  0.00    +0.006 A 
BRANCH  18  14
ATOM     14  C   UNL     1       4.534 -15.677   0.167  0.00  0.00    -0.013 C 
ATOM     24  C   UNL     1       5.515 -16.347   1.187  0.00  0.00    +0.015 C 
ATOM     25  C   UNL     1       4.409 -16.690  -1.014  0.00  0.00    +0.015 C 
ATOM     26  C   UNL     1       5.288 -14.421  -0.369  0.00  0.00    +0.015 C 
ENDBRANCH  18  14
ENDBRANCH   2  15
ENDBRANCH   6   9
BRANCH   8   3
ATOM      1  O   UNL     1      -5.175 -10.303   7.106  0.00  0.00    -0.253 OA
ATOM      3  N   UNL     1      -5.270 -12.618   6.946  0.00  0.00    -0.293 N 
ATOM      5  N   UNL     1      -5.310 -11.608   9.019  0.00  0.00    -0.295 N 
ATOM     19  C   UNL     1      -5.245 -11.407   7.642  0.00  0.00    +0.300 C 
ATOM     34  H   UNL     1      -5.372 -13.469   7.492  0.00  0.00    +0.151 HD
ATOM     35  H   UNL     1      -5.388 -12.557   9.370  0.00  0.00    +0.151 HD
BRANCH   5  27
ATOM     27  C   UNL     1      -5.301 -10.521   9.969  0.00  0.00    +0.141 C 
BRANCH  27  28
ATOM     28  C   UNL     1      -3.950 -10.334  10.597  0.00  0.00    -0.030 A 
ATOM     29  C   UNL     1      -3.496 -11.236  11.559  0.00  0.00    +0.005 A 
ATOM     30  C   UNL     1      -3.147  -9.258  10.217  0.00  0.00    +0.005 A 
ATOM     31  C   UNL     1      -2.241 -11.063  12.142  0.00  0.00    +0.000 A 
ATOM     32  C   UNL     1      -1.892  -9.084  10.799  0.00  0.00    +0.000 A 
ATOM     33  C   UNL     1      -1.439  -9.987  11.762  0.00  0.00    +0.000 A 
ENDBRANCH  27  28
ENDBRANCH   5  27
ENDBRANCH   8   3
TORSDOF 6
ENDMDL
MODEL 3
REMARK VINA RESULT:      -6.7     29.872     33.136
REMARK  Name = 26743431
REMARK  11 active torsions:
REMARK  status: ('A' for Active; 'I' for Inactive)
REMARK    1  A    between atoms: N_2  and  C_15
REMARK    2  A    between atoms: N_3  and  C_8
REMARK    3  A    between atoms: N_5  and  C_27
REMARK    4  A    between atoms: C_6  and  C_9
REMARK    5  A    between atoms: C_12  and  C_16
REMARK    6  A    between atoms: C_13  and  C_17
REMARK    7  A    between atoms: C_14  and  C_18
REMARK    8  A    between atoms: C_14  and  C_24
REMARK    9  A    between atoms: C_14  and  C_25
REMARK   10  A    between atoms: C_14  and  C_26
REMARK   11  A    between atoms: C_27  and  C_28
REMARK                            x       y       z     vdW  Elec       q    Type
REMARK                         _______ _______ _______ _____ _____    ______ ____
ROOT
ATOM      6  C   UNL     1      20.606   6.862  21.119  0.00  0.00    +0.047 C 
ATOM      7  C   UNL     1      21.741   7.671  20.458  0.00  0.00    +0.039 C 
ATOM      8  C   UNL     1      23.042   7.163  21.093  0.00  0.00    +0.098 C 
ATOM     10  C   UNL     1      21.244   6.396  22.395  0.00  0.00    -0.021 C 
ATOM     11  C   UNL     1      22.571   6.558  22.375  0.00  0.00    -0.009 C 
ENDROOT
BRANCH   6   9
ATOM      2  N   UNL     1      17.261   8.343  21.304  0.00  0.00    -0.236 N 
ATOM      4  N   UNL     1      17.920   9.348  21.905  0.00  0.00    -0.171 NA
ATOM      9  C   UNL     1      19.335   7.659  21.303  0.00  0.00    +0.003 A 
ATOM     12  C   UNL     1      18.062   7.307  20.925  0.00  0.00    +0.046 A 
ATOM     13  C   UNL     1      19.187   8.924  21.901  0.00  0.00    +0.064 A 
ATOM     16  C   UNL     1      17.556   6.095  20.249  0.00  0.00    +0.066 C 
ATOM     17  C   UNL     1      20.236   9.774  22.490  0.00  0.00    +0.068 C 
BRANCH   2  15
ATOM     15  C   UNL     1      15.879   8.431  21.124  0.00  0.00    +0.066 A 
ATOM     18  C   UNL     1      13.119   8.600  20.762  0.00  0.00    -0.042 A 
ATOM     20  C   UNL     1      15.017   7.945  22.106  0.00  0.00    +0.028 A 
ATOM     21  C   UNL     1      15.362   9.003  19.961  0.00  0.00    +0.028 A 
ATOM     22  C   UNL     1      13.636   8.030  21.925  0.00  0.00    +0.006 A 
ATOM     23  C   UNL     1      13.982   9.087  19.780  0.00  0.00    +0.006 A 
BRANCH  18  14
ATOM     14  C   UNL     1      11.643   8.693  20.569  0.00  0.00    -0.013 C 
ATOM     24  C   UNL     1      10.807   7.540  21.218  0.00  0.00    +0.015 C 
ATOM     25  C   UNL     1      11.074  10.012  21.180  0.00  0.00    +0.015 C 
ATOM     26  C   UNL     1      11.268   8.676  19.055  0.00  0.00    +0.015 C 
ENDBRANCH  18  14
ENDBRANCH   2  15
ENDBRANCH   6   9
BRANCH   8   3
ATOM      1  O   UNL     1      25.354   5.598  21.825  0.00  0.00    -0.253 OA
ATOM      3  N   UNL     1      23.689   6.151  20.302  0.00  0.00    -0.293 N 
ATOM      5  N   UNL     1      25.233   4.522  19.773  0.00  0.00    -0.295 N 
ATOM     19  C   UNL     1      24.810   5.438  20.734  0.00  0.00    +0.300 C 
ATOM     34  H   UNL     1      23.298   5.906  19.397  0.00  0.00    +0.151 HD
ATOM     35  H   UNL     1      24.707   4.444  18.908  0.00  0.00    +0.151 HD
BRANCH   5  27
ATOM     27  C   UNL     1      26.371   3.655  19.966  0.00  0.00    +0.141 C 
BRANCH  27  28
ATOM     28  C   UNL     1      26.058   2.512  20.888  0.00  0.00    -0.030 A 
ATOM     29  C   UNL     1      26.995   2.102  21.835  0.00  0.00    +0.005 A 
ATOM     30  C   UNL     1      24.827   1.861  20.798  0.00  0.00    +0.005 A 
ATOM     31  C   UNL     1      26.704   1.039  22.691  0.00  0.00    +0.000 A 
ATOM     32  C   UNL     1      24.535   0.799  21.654  0.00  0.00    +0.000 A 
ATOM     33  C   UNL     1      25.474   0.389  22.600  0.00  0.00    +0.000 A 
ENDBRANCH  27  28
ENDBRANCH   5  27
ENDBRANCH   8   3
TORSDOF 6
ENDMDL
MODEL 4
REMARK VINA RESULT:      -6.6     29.425     33.914
REMARK  Name = 26743431
REMARK  11 active torsions:
REMARK  status: ('A' for Active; 'I' for Inactive)
REMARK    1  A    between atoms: N_2  and  C_15
REMARK    2  A    between atoms: N_3  and  C_8
REMARK    3  A    between atoms: N_5  and  C_27
REMARK    4  A    between atoms: C_6  and  C_9
REMARK    5  A    between atoms: C_12  and  C_16
REMARK    6  A    between atoms: C_13  and  C_17
REMARK    7  A    between atoms: C_14  and  C_18
REMARK    8  A    between atoms: C_14  and  C_24
REMARK    9  A    between atoms: C_14  and  C_25
REMARK   10  A    between atoms: C_14  and  C_26
REMARK   11  A    between atoms: C_27  and  C_28
REMARK                            x       y       z     vdW  Elec       q    Type
REMARK                         _______ _______ _______ _____ _____    ______ ____
ROOT
ATOM      6  C   UNL     1      20.220   6.190  21.442  0.00  0.00    +0.047 C 
ATOM      7  C   UNL     1      18.928   6.455  22.241  0.00  0.00    +0.039 C 
ATOM      8  C   UNL     1      18.376   7.787  21.717  0.00  0.00    +0.098 C 
ATOM     10  C   UNL     1      20.590   7.563  20.963  0.00  0.00    -0.021 C 
ATOM     11  C   UNL     1      19.581   8.429  21.110  0.00  0.00    -0.009 C 
ENDROOT
BRANCH   6   9
ATOM      2  N   UNL     1      22.767   4.076  23.010  0.00  0.00    -0.236 N 
ATOM      4  N   UNL     1      22.835   5.094  23.885  0.00  0.00    -0.171 NA
ATOM      9  C   UNL     1      21.290   5.494  22.252  0.00  0.00    +0.003 A 
ATOM     12  C   UNL     1      21.858   4.267  22.012  0.00  0.00    +0.046 A 
ATOM     13  C   UNL     1      21.930   5.957  23.417  0.00  0.00    +0.064 A 
ATOM     16  C   UNL     1      21.614   3.283  20.938  0.00  0.00    +0.066 C 
ATOM     17  C   UNL     1      21.710   7.230  24.125  0.00  0.00    +0.068 C 
BRANCH   2  15
ATOM     15  C   UNL     1      23.590   2.961  23.180  0.00  0.00    +0.066 A 
ATOM     18  C   UNL     1      25.232   0.731  23.512  0.00  0.00    -0.042 A 
ATOM     20  C   UNL     1      24.861   2.939  22.605  0.00  0.00    +0.028 A 
ATOM     21  C   UNL     1      23.140   1.868  23.921  0.00  0.00    +0.028 A 
ATOM     22  C   UNL     1      25.682   1.824  22.772  0.00  0.00    +0.006 A 
ATOM     23  C   UNL     1      23.961   0.753  24.087  0.00  0.00    +0.006 A 
BRANCH  18  14
ATOM     14  C   UNL     1      26.110  -0.461  23.692  0.00  0.00    -0.013 C 
ATOM     24  C   UNL     1      27.567  -0.156  24.175  0.00  0.00    +0.015 C 
ATOM     25  C   UNL     1      25.520  -1.444  24.751  0.00  0.00    +0.015 C 
ATOM     26  C   UNL     1      26.273  -1.251  22.356  0.00  0.00    +0.015 C 
ENDBRANCH  18  14
ENDBRANCH   2  15
ENDBRANCH   6   9
BRANCH   8   3
ATOM      1  O   UNL     1      16.034   9.419  21.287  0.00  0.00    -0.253 OA
ATOM      3  N   UNL     1      17.373   7.613  20.701  0.00  0.00    -0.293 N 
ATOM      5  N   UNL     1      15.455   8.056  19.501  0.00  0.00    -0.295 N 
ATOM     19  C   UNL     1      16.265   8.452  20.563  0.00  0.00    +0.300 C 
ATOM     34  H   UNL     1      17.484   6.868  20.019  0.00  0.00    +0.151 HD
ATOM     35  H   UNL     1      15.737   7.256  18.943  0.00  0.00    +0.151 HD
BRANCH   5  27
ATOM     27  C   UNL     1      14.243   8.754  19.140  0.00  0.00    +0.141 C 
BRANCH  27  28
ATOM     28  C   UNL     1      13.057   8.261  19.917  0.00  0.00    -0.030 A 
ATOM     29  C   UNL     1      12.003   9.127  20.206  0.00  0.00    +0.005 A 
ATOM     30  C   UNL     1      13.008   6.935  20.349  0.00  0.00    +0.005 A 
ATOM     31  C   UNL     1      10.901   8.669  20.928  0.00  0.00    +0.000 A 
ATOM     32  C   UNL     1      11.907   6.476  21.071  0.00  0.00    +0.000 A 
ATOM     33  C   UNL     1      10.853   7.344  21.360  0.00  0.00    +0.000 A 
ENDBRANCH  27  28
ENDBRANCH   5  27
ENDBRANCH   8   3
TORSDOF 6
ENDMDL
MODEL 5
REMARK VINA RESULT:      -6.6      4.273     13.148
REMARK  Name = 26743431
REMARK  11 active torsions:
REMARK  status: ('A' for Active; 'I' for Inactive)
REMARK    1  A    between atoms: N_2  and  C_15
REMARK    2  A    between atoms: N_3  and  C_8
REMARK    3  A    between atoms: N_5  and  C_27
REMARK    4  A    between atoms: C_6  and  C_9
REMARK    5  A    between atoms: C_12  and  C_16
REMARK    6  A    between atoms: C_13  and  C_17
REMARK    7  A    between atoms: C_14  and  C_18
REMARK    8  A    between atoms: C_14  and  C_24
REMARK    9  A    between atoms: C_14  and  C_25
REMARK   10  A    between atoms: C_14  and  C_26
REMARK   11  A    between atoms: C_27  and  C_28
REMARK                            x       y       z     vdW  Elec       q    Type
REMARK                         _______ _______ _______ _____ _____    ______ ____
ROOT
ATOM      6  C   UNL     1      -8.440  -8.623   5.243  0.00  0.00    +0.047 C 
ATOM      7  C   UNL     1      -7.419  -8.563   4.089  0.00  0.00    +0.039 C 
ATOM      8  C   UNL     1      -7.954  -9.508   3.006  0.00  0.00    +0.098 C 
ATOM     10  C   UNL     1      -9.129  -9.934   4.995  0.00  0.00    -0.021 C 
ATOM     11  C   UNL     1      -8.865 -10.410   3.773  0.00  0.00    -0.009 C 
ENDROOT
BRANCH   6   9
ATOM      2  N   UNL     1      -6.584  -8.774   8.398  0.00  0.00    -0.236 N 
ATOM      4  N   UNL     1      -7.338  -7.704   8.701  0.00  0.00    -0.171 NA
ATOM      9  C   UNL     1      -7.805  -8.494   6.609  0.00  0.00    +0.003 A 
ATOM     12  C   UNL     1      -6.824  -9.284   7.156  0.00  0.00    +0.046 A 
ATOM     13  C   UNL     1      -8.083  -7.538   7.604  0.00  0.00    +0.064 A 
ATOM     16  C   UNL     1      -6.111 -10.457   6.609  0.00  0.00    +0.066 C 
ATOM     17  C   UNL     1      -9.059  -6.436   7.552  0.00  0.00    +0.068 C 
BRANCH   2  15
ATOM     15  C   UNL     1      -5.660  -9.255   9.327  0.00  0.00    +0.066 A 
ATOM     18  C   UNL     1      -3.811 -10.221  11.179  0.00  0.00    -0.042 A 
ATOM     20  C   UNL     1      -4.337  -8.816   9.285  0.00  0.00    +0.028 A 
ATOM     21  C   UNL     1      -6.060 -10.177  10.295  0.00  0.00    +0.028 A 
ATOM     22  C   UNL     1      -3.413  -9.298  10.212  0.00  0.00    +0.006 A 
ATOM     23  C   UNL     1      -5.135 -10.660  11.221  0.00  0.00    +0.006 A 
BRANCH  18  14
ATOM     14  C   UNL     1      -2.824 -10.736  12.171  0.00  0.00    -0.013 C 
ATOM     24  C   UNL     1      -3.207 -10.522  13.673  0.00  0.00    +0.015 C 
ATOM     25  C   UNL     1      -2.613 -12.274  12.012  0.00  0.00    +0.015 C 
ATOM     26  C   UNL     1      -1.434 -10.050  11.995  0.00  0.00    +0.015 C 
ENDBRANCH  18  14
ENDBRANCH   2  15
ENDBRANCH   6   9
BRANCH   8   3
ATOM      1  O   UNL     1      -8.178 -10.225   0.219  0.00  0.00    -0.253 OA
ATOM      3  N   UNL     1      -8.711  -8.823   1.993  0.00  0.00    -0.293 N 
ATOM      5  N   UNL     1      -9.568  -8.396  -0.104  0.00  0.00    -0.295 N 
ATOM     19  C   UNL     1      -8.765  -9.239   0.660  0.00  0.00    +0.300 C 
ATOM     34  H   UNL     1      -9.270  -8.017   2.255  0.00  0.00    +0.151 HD
ATOM     35  H   UNL     1     -10.032  -7.617   0.352  0.00  0.00    +0.151 HD
BRANCH   5  27
ATOM     27  C   UNL     1      -9.795  -8.601  -1.516  0.00  0.00    +0.141 C 
BRANCH  27  28
ATOM     28  C   UNL     1     -10.784  -7.619  -2.074  0.00  0.00    -0.030 A 
ATOM     29  C   UNL     1     -11.600  -6.884  -1.215  0.00  0.00    +0.005 A 
ATOM     30  C   UNL     1     -10.886  -7.440  -3.455  0.00  0.00    +0.005 A 
ATOM     31  C   UNL     1     -12.519  -5.972  -1.734  0.00  0.00    +0.000 A 
ATOM     32  C   UNL     1     -11.805  -6.529  -3.974  0.00  0.00    +0.000 A 
ATOM     33  C   UNL     1     -12.621  -5.795  -3.113  0.00  0.00    +0.000 A 
ENDBRANCH  27  28
ENDBRANCH   5  27
ENDBRANCH   8   3
TORSDOF 6
ENDMDL
MODEL 6
REMARK VINA RESULT:      -6.5     26.114     30.318
REMARK  Name = 26743431
REMARK  11 active torsions:
REMARK  status: ('A' for Active; 'I' for Inactive)
REMARK    1  A    between atoms: N_2  and  C_15
REMARK    2  A    between atoms: N_3  and  C_8
REMARK    3  A    between atoms: N_5  and  C_27
REMARK    4  A    between atoms: C_6  and  C_9
REMARK    5  A    between atoms: C_12  and  C_16
REMARK    6  A    between atoms: C_13  and  C_17
REMARK    7  A    between atoms: C_14  and  C_18
REMARK    8  A    between atoms: C_14  and  C_24
REMARK    9  A    between atoms: C_14  and  C_25
REMARK   10  A    between atoms: C_14  and  C_26
REMARK   11  A    between atoms: C_27  and  C_28
REMARK                            x       y       z     vdW  Elec       q    Type
REMARK                         _______ _______ _______ _____ _____    ______ ____
ROOT
ATOM      6  C   UNL     1      19.646  -3.861  -2.545  0.00  0.00    +0.047 C 
ATOM      7  C   UNL     1      18.349  -4.670  -2.749  0.00  0.00    +0.039 C 
ATOM      8  C   UNL     1      17.226  -3.634  -2.887  0.00  0.00    +0.098 C 
ATOM     10  C   UNL     1      19.129  -2.544  -2.044  0.00  0.00    -0.021 C 
ATOM     11  C   UNL     1      17.811  -2.423  -2.236  0.00  0.00    -0.009 C 
ENDROOT
BRANCH   6   9
ATOM      2  N   UNL     1      21.594  -5.560   0.052  0.00  0.00    -0.236 N 
ATOM      4  N   UNL     1      22.590  -5.421  -0.838  0.00  0.00    -0.171 NA
ATOM      9  C   UNL     1      20.635  -4.542  -1.626  0.00  0.00    +0.003 A 
ATOM     12  C   UNL     1      20.402  -5.050  -0.371  0.00  0.00    +0.046 A 
ATOM     13  C   UNL     1      21.999  -4.798  -1.861  0.00  0.00    +0.064 A 
ATOM     16  C   UNL     1      19.167  -5.092   0.439  0.00  0.00    +0.066 C 
ATOM     17  C   UNL     1      22.788  -4.465  -3.059  0.00  0.00    +0.068 C 
BRANCH   2  15
ATOM     15  C   UNL     1      21.840  -6.182   1.277  0.00  0.00    +0.066 A 
ATOM     18  C   UNL     1      22.339  -7.425   3.724  0.00  0.00    -0.042 A 
ATOM     20  C   UNL     1      22.240  -5.422   2.376  0.00  0.00    +0.028 A 
ATOM     21  C   UNL     1      21.689  -7.564   1.401  0.00  0.00    +0.028 A 
ATOM     22  C   UNL     1      22.489  -6.044   3.600  0.00  0.00    +0.006 A 
ATOM     23  C   UNL     1      21.939  -8.185   2.624  0.00  0.00    +0.006 A 
BRANCH  18  14
ATOM     14  C   UNL     1      22.604  -8.090   5.032  0.00  0.00    -0.013 C 
ATOM     24  C   UNL     1      24.114  -8.258   5.407  0.00  0.00    +0.015 C 
ATOM     25  C   UNL     1      21.971  -7.289   6.212  0.00  0.00    +0.015 C 
ATOM     26  C   UNL     1      22.005  -9.531   5.067  0.00  0.00    +0.015 C 
ENDBRANCH  18  14
ENDBRANCH   2  15
ENDBRANCH   6   9
BRANCH   8   3
ATOM      1  O   UNL     1      15.743  -5.277  -4.740  0.00  0.00    -0.253 OA
ATOM      3  N   UNL     1      16.915  -3.330  -4.257  0.00  0.00    -0.293 N 
ATOM      5  N   UNL     1      16.032  -3.646  -6.364  0.00  0.00    -0.295 N 
ATOM     19  C   UNL     1      16.188  -4.185  -5.089  0.00  0.00    +0.300 C 
ATOM     34  H   UNL     1      17.197  -2.433  -4.641  0.00  0.00    +0.151 HD
ATOM     35  H   UNL     1      16.416  -2.725  -6.555  0.00  0.00    +0.151 HD
BRANCH   5  27
ATOM     27  C   UNL     1      15.319  -4.326  -7.419  0.00  0.00    +0.141 C 
BRANCH  27  28
ATOM     28  C   UNL     1      13.875  -3.921  -7.474  0.00  0.00    -0.030 A 
ATOM     29  C   UNL     1      13.503  -2.747  -8.129  0.00  0.00    +0.005 A 
ATOM     30  C   UNL     1      12.902  -4.720  -6.872  0.00  0.00    +0.005 A 
ATOM     31  C   UNL     1      12.161  -2.371  -8.181  0.00  0.00    +0.000 A 
ATOM     32  C   UNL     1      11.560  -4.345  -6.923  0.00  0.00    +0.000 A 
ATOM     33  C   UNL     1      11.190  -3.170  -7.578  0.00  0.00    +0.000 A 
ENDBRANCH  27  28
ENDBRANCH   5  27
ENDBRANCH   8   3
TORSDOF 6
ENDMDL
MODEL 7
REMARK VINA RESULT:      -6.5     25.050     30.217
REMARK  Name = 26743431
REMARK  11 active torsions:
REMARK  status: ('A' for Active; 'I' for Inactive)
REMARK    1  A    between atoms: N_2  and  C_15
REMARK    2  A    between atoms: N_3  and  C_8
REMARK    3  A    between atoms: N_5  and  C_27
REMARK    4  A    between atoms: C_6  and  C_9
REMARK    5  A    between atoms: C_12  and  C_16
REMARK    6  A    between atoms: C_13  and  C_17
REMARK    7  A    between atoms: C_14  and  C_18
REMARK    8  A    between atoms: C_14  and  C_24
REMARK    9  A    between atoms: C_14  and  C_25
REMARK   10  A    between atoms: C_14  and  C_26
REMARK   11  A    between atoms: C_27  and  C_28
REMARK                            x       y       z     vdW  Elec       q    Type
REMARK                         _______ _______ _______ _____ _____    ______ ____
ROOT
ATOM      6  C   UNL     1      -8.001  -9.777  39.284  0.00  0.00    +0.047 C 
ATOM      7  C   UNL     1      -7.607 -10.303  37.889  0.00  0.00    +0.039 C 
ATOM      8  C   UNL     1      -7.618 -11.833  37.999  0.00  0.00    +0.098 C 
ATOM     10  C   UNL     1      -7.672 -10.941  40.172  0.00  0.00    -0.021 C 
ATOM     11  C   UNL     1      -7.469 -12.060  39.468  0.00  0.00    -0.009 C 
ENDROOT
BRANCH   6   9
ATOM      2  N   UNL     1      -5.846  -6.983  40.271  0.00  0.00    -0.236 N 
ATOM      4  N   UNL     1      -6.956  -6.262  40.040  0.00  0.00    -0.171 NA
ATOM      9  C   UNL     1      -7.305  -8.486  39.653  0.00  0.00    +0.003 A 
ATOM     12  C   UNL     1      -6.002  -8.321  40.053  0.00  0.00    +0.046 A 
ATOM     13  C   UNL     1      -7.844  -7.186  39.663  0.00  0.00    +0.064 A 
ATOM     16  C   UNL     1      -4.917  -9.305  40.241  0.00  0.00    +0.066 C 
ATOM     17  C   UNL     1      -9.215  -6.772  39.315  0.00  0.00    +0.068 C 
BRANCH   2  15
ATOM     15  C   UNL     1      -4.679  -6.343  40.693  0.00  0.00    +0.066 A 
ATOM     18  C   UNL     1      -2.352  -5.058  41.537  0.00  0.00    -0.042 A 
ATOM     20  C   UNL     1      -4.529  -5.982  42.032  0.00  0.00    +0.028 A 
ATOM     21  C   UNL     1      -3.667  -6.062  39.776  0.00  0.00    +0.028 A 
ATOM     22  C   UNL     1      -3.364  -5.340  42.454  0.00  0.00    +0.006 A 
ATOM     23  C   UNL     1      -2.503  -5.419  40.198  0.00  0.00    +0.006 A 
BRANCH  18  14
ATOM     14  C   UNL     1      -1.107  -4.373  41.987  0.00  0.00    -0.013 C 
ATOM     24  C   UNL     1       0.223  -4.923  41.372  0.00  0.00    +0.015 C 
ATOM     25  C   UNL     1      -1.134  -2.855  41.626  0.00  0.00    +0.015 C 
ATOM     26  C   UNL     1      -0.926  -4.485  43.533  0.00  0.00    +0.015 C 
ENDBRANCH  18  14
ENDBRANCH   2  15
ENDBRANCH   6   9
BRANCH   8   3
ATOM      1  O   UNL     1      -8.128 -13.110  35.462  0.00  0.00    -0.253 OA
ATOM      3  N   UNL     1      -8.856 -12.414  37.555  0.00  0.00    -0.293 N 
ATOM      5  N   UNL     1     -10.315 -13.494  36.133  0.00  0.00    -0.295 N 
ATOM     19  C   UNL     1      -9.018 -13.015  36.304  0.00  0.00    +0.300 C 
ATOM     34  H   UNL     1      -9.650 -12.430  38.188  0.00  0.00    +0.151 HD
ATOM     35  H   UNL     1     -10.979 -13.390  36.894  0.00  0.00    +0.151 HD
BRANCH   5  27
ATOM     27  C   UNL     1     -10.750 -14.160  34.928  0.00  0.00    +0.141 C 
BRANCH  27  28
ATOM     28  C   UNL     1     -12.001 -13.548  34.368  0.00  0.00    -0.030 A 
ATOM     29  C   UNL     1     -12.543 -12.405  34.955  0.00  0.00    +0.005 A 
ATOM     30  C   UNL     1     -12.622 -14.122  33.258  0.00  0.00    +0.005 A 
ATOM     31  C   UNL     1     -13.706 -11.837  34.434  0.00  0.00    +0.000 A 
ATOM     32  C   UNL     1     -13.784 -13.555  32.736  0.00  0.00    +0.000 A 
ATOM     33  C   UNL     1     -14.326 -12.411  33.325  0.00  0.00    +0.000 A 
ENDBRANCH  27  28
ENDBRANCH   5  27
ENDBRANCH   8   3
TORSDOF 6
ENDMDL
MODEL 8
REMARK VINA RESULT:      -6.5     23.514     26.970
REMARK  Name = 26743431
REMARK  11 active torsions:
REMARK  status: ('A' for Active; 'I' for Inactive)
REMARK    1  A    between atoms: N_2  and  C_15
REMARK    2  A    between atoms: N_3  and  C_8
REMARK    3  A    between atoms: N_5  and  C_27
REMARK    4  A    between atoms: C_6  and  C_9
REMARK    5  A    between atoms: C_12  and  C_16
REMARK    6  A    between atoms: C_13  and  C_17
REMARK    7  A    between atoms: C_14  and  C_18
REMARK    8  A    between atoms: C_14  and  C_24
REMARK    9  A    between atoms: C_14  and  C_25
REMARK   10  A    between atoms: C_14  and  C_26
REMARK   11  A    between atoms: C_27  and  C_28
REMARK                            x       y       z     vdW  Elec       q    Type
REMARK                         _______ _______ _______ _____ _____    ______ ____
ROOT
ATOM      6  C   UNL     1       9.324   7.332   4.842  0.00  0.00    +0.047 C 
ATOM      7  C   UNL     1      10.732   6.786   4.529  0.00  0.00    +0.039 C 
ATOM      8  C   UNL     1      10.598   5.258   4.526  0.00  0.00    +0.098 C 
ATOM     10  C   UNL     1       8.666   6.161   5.511  0.00  0.00    -0.021 C 
ATOM     11  C   UNL     1       9.361   5.033   5.333  0.00  0.00    -0.009 C 
ENDROOT
BRANCH   6   9
ATOM      2  N   UNL     1       9.586  10.066   7.267  0.00  0.00    -0.236 N 
ATOM      4  N   UNL     1       9.104  10.795   6.247  0.00  0.00    -0.171 NA
ATOM      9  C   UNL     1       9.346   8.600   5.666  0.00  0.00    +0.003 A 
ATOM     12  C   UNL     1       9.750   8.745   6.971  0.00  0.00    +0.046 A 
ATOM     13  C   UNL     1       8.959   9.894   5.272  0.00  0.00    +0.064 A 
ATOM     16  C   UNL     1      10.268   7.755   7.937  0.00  0.00    +0.066 C 
ATOM     17  C   UNL     1       8.440  10.323   3.961  0.00  0.00    +0.068 C 
BRANCH   2  15
ATOM     15  C   UNL     1       9.869  10.683   8.487  0.00  0.00    +0.066 A 
ATOM     18  C   UNL     1      10.436  11.910  10.926  0.00  0.00    -0.042 A 
ATOM     20  C   UNL     1      11.181  11.040   8.799  0.00  0.00    +0.028 A 
ATOM     21  C   UNL     1       8.840  10.940   9.394  0.00  0.00    +0.028 A 
ATOM     22  C   UNL     1      11.464  11.654  10.019  0.00  0.00    +0.006 A 
ATOM     23  C   UNL     1       9.124  11.553  10.613  0.00  0.00    +0.006 A 
BRANCH  18  14
ATOM     14  C   UNL     1      10.739  12.568  12.230  0.00  0.00    -0.013 C 
ATOM     24  C   UNL     1      12.082  12.134  12.906  0.00  0.00    +0.015 C 
ATOM     25  C   UNL     1      10.835  14.118  12.073  0.00  0.00    +0.015 C 
ATOM     26  C   UNL     1       9.629  12.270  13.285  0.00  0.00    +0.015 C 
ENDBRANCH  18  14
ENDBRANCH   2  15
ENDBRANCH   6   9
BRANCH   8   3
ATOM      1  O   UNL     1      12.555   5.098   2.410  0.00  0.00    -0.253 OA
ATOM      3  N   UNL     1      10.406   4.718   3.207  0.00  0.00    -0.293 N 
ATOM      5  N   UNL     1      10.956   4.107   1.053  0.00  0.00    -0.295 N 
ATOM     19  C   UNL     1      11.411   4.680   2.238  0.00  0.00    +0.300 C 
ATOM     34  H   UNL     1       9.509   4.305   2.968  0.00  0.00    +0.151 HD
ATOM     35  H   UNL     1       9.999   3.769   1.010  0.00  0.00    +0.151 HD
BRANCH   5  27
ATOM     27  C   UNL     1      11.795   3.946  -0.111  0.00  0.00    +0.141 C 
BRANCH  27  28
ATOM     28  C   UNL     1      10.995   3.910  -1.381  0.00  0.00    -0.030 A 
ATOM     29  C   UNL     1      11.157   2.855  -2.279  0.00  0.00    +0.005 A 
ATOM     30  C   UNL     1      10.087   4.932  -1.663  0.00  0.00    +0.005 A 
ATOM     31  C   UNL     1      10.414   2.822  -3.458  0.00  0.00    +0.000 A 
ATOM     32  C   UNL     1       9.344   4.899  -2.842  0.00  0.00    +0.000 A 
ATOM     33  C   UNL     1       9.507   3.843  -3.740  0.00  0.00    +0.000 A 
ENDBRANCH  27  28
ENDBRANCH   5  27
ENDBRANCH   8   3
TORSDOF 6
ENDMDL
MODEL 9
REMARK VINA RESULT:      -6.4     26.993     30.443
REMARK  Name = 26743431
REMARK  11 active torsions:
REMARK  status: ('A' for Active; 'I' for Inactive)
REMARK    1  A    between atoms: N_2  and  C_15
REMARK    2  A    between atoms: N_3  and  C_8
REMARK    3  A    between atoms: N_5  and  C_27
REMARK    4  A    between atoms: C_6  and  C_9
REMARK    5  A    between atoms: C_12  and  C_16
REMARK    6  A    between atoms: C_13  and  C_17
REMARK    7  A    between atoms: C_14  and  C_18
REMARK    8  A    between atoms: C_14  and  C_24
REMARK    9  A    between atoms: C_14  and  C_25
REMARK   10  A    between atoms: C_14  and  C_26
REMARK   11  A    between atoms: C_27  and  C_28
REMARK                            x       y       z     vdW  Elec       q    Type
REMARK                         _______ _______ _______ _____ _____    ______ ____
ROOT
ATOM      6  C   UNL     1      15.293  -5.468  30.980  0.00  0.00    +0.047 C 
ATOM      7  C   UNL     1      15.550  -3.973  30.703  0.00  0.00    +0.039 C 
ATOM      8  C   UNL     1      17.067  -3.834  30.527  0.00  0.00    +0.098 C 
ATOM     10  C   UNL     1      16.630  -5.938  31.475  0.00  0.00    -0.021 C 
ATOM     11  C   UNL     1      17.594  -5.047  31.222  0.00  0.00    -0.009 C 
ENDROOT
BRANCH   6   9
ATOM      2  N   UNL     1      12.248  -6.301  32.839  0.00  0.00    -0.236 N 
ATOM      4  N   UNL     1      12.910  -5.724  33.856  0.00  0.00    -0.171 NA
ATOM      9  C   UNL     1      14.146  -5.710  31.936  0.00  0.00    +0.003 A 
ATOM     12  C   UNL     1      12.945  -6.319  31.667  0.00  0.00    +0.046 A 
ATOM     13  C   UNL     1      14.069  -5.364  33.298  0.00  0.00    +0.064 A 
ATOM     16  C   UNL     1      12.417  -6.904  30.417  0.00  0.00    +0.066 C 
ATOM     17  C   UNL     1      15.087  -4.685  34.118  0.00  0.00    +0.068 C 
BRANCH   2  15
ATOM     15  C   UNL     1      10.965  -6.812  33.048  0.00  0.00    +0.066 A 
ATOM     18  C   UNL     1       8.403  -7.833  33.460  0.00  0.00    -0.042 A 
ATOM     20  C   UNL     1      10.686  -8.141  32.731  0.00  0.00    +0.028 A 
ATOM     21  C   UNL     1       9.965  -5.993  33.572  0.00  0.00    +0.028 A 
ATOM     22  C   UNL     1       9.404  -8.652  32.937  0.00  0.00    +0.006 A 
ATOM     23  C   UNL     1       8.683  -6.503  33.777  0.00  0.00    +0.006 A 
BRANCH  18  14
ATOM     14  C   UNL     1       7.033  -8.378  33.682  0.00  0.00    -0.013 C 
ATOM     24  C   UNL     1       6.462  -8.193  35.127  0.00  0.00    +0.015 C 
ATOM     25  C   UNL     1       5.994  -7.701  32.735  0.00  0.00    +0.015 C 
ATOM     26  C   UNL     1       6.984  -9.914  33.411  0.00  0.00    +0.015 C 
ENDBRANCH  18  14
ENDBRANCH   2  15
ENDBRANCH   6   9
BRANCH   8   3
ATOM      1  O   UNL     1      18.627  -1.850  29.126  0.00  0.00    -0.253 OA
ATOM      3  N   UNL     1      17.473  -3.866  29.148  0.00  0.00    -0.293 N 
ATOM      5  N   UNL     1      18.481  -3.142  27.205  0.00  0.00    -0.295 N 
ATOM     19  C   UNL     1      18.231  -2.859  28.546  0.00  0.00    +0.300 C 
ATOM     34  H   UNL     1      17.236  -4.676  28.582  0.00  0.00    +0.151 HD
ATOM     35  H   UNL     1      18.132  -4.013  26.816  0.00  0.00    +0.151 HD
BRANCH   5  27
ATOM     27  C   UNL     1      19.244  -2.264  26.350  0.00  0.00    +0.141 C 
BRANCH  27  28
ATOM     28  C   UNL     1      18.578  -2.056  25.020  0.00  0.00    -0.030 A 
ATOM     29  C   UNL     1      17.678  -1.005  24.847  0.00  0.00    +0.005 A 
ATOM     30  C   UNL     1      18.861  -2.914  23.956  0.00  0.00    +0.005 A 
ATOM     31  C   UNL     1      17.059  -0.812  23.612  0.00  0.00    +0.000 A 
ATOM     32  C   UNL     1      18.243  -2.721  22.721  0.00  0.00    +0.000 A 
ATOM     33  C   UNL     1      17.342  -1.670  22.549  0.00  0.00    +0.000 A 
ENDBRANCH  27  28
ENDBRANCH   5  27
ENDBRANCH   8   3
TORSDOF 6
ENDMDL
MODEL 10
REMARK VINA RESULT:      -6.4     29.694     32.999
REMARK  Name = 26743431
REMARK  11 active torsions:
REMARK  status: ('A' for Active; 'I' for Inactive)
REMARK    1  A    between atoms: N_2  and  C_15
REMARK    2  A    between atoms: N_3  and  C_8
REMARK    3  A    between atoms: N_5  and  C_27
REMARK    4  A    between atoms: C_6  and  C_9
REMARK    5  A    between atoms: C_12  and  C_16
REMARK    6  A    between atoms: C_13  and  C_17
REMARK    7  A    between atoms: C_14  and  C_18
REMARK    8  A    between atoms: C_14  and  C_24
REMARK    9  A    between atoms: C_14  and  C_25
REMARK   10  A    between atoms: C_14  and  C_26
REMARK   11  A    between atoms: C_27  and  C_28
REMARK                            x       y       z     vdW  Elec       q    Type
REMARK                         _______ _______ _______ _____ _____    ______ ____
ROOT
ATOM      6  C   UNL     1      21.619   6.149  21.808  0.00  0.00    +0.047 C 
ATOM      7  C   UNL     1      21.438   4.625  21.965  0.00  0.00    +0.039 C 
ATOM      8  C   UNL     1      22.546   3.982  21.123  0.00  0.00    +0.098 C 
ATOM     10  C   UNL     1      22.399   6.250  20.529  0.00  0.00    -0.021 C 
ATOM     11  C   UNL     1      22.905   5.068  20.162  0.00  0.00    -0.009 C 
ENDROOT
BRANCH   6   9
ATOM      2  N   UNL     1      18.281   7.605  21.416  0.00  0.00    -0.236 N 
ATOM      4  N   UNL     1      18.728   8.465  22.346  0.00  0.00    -0.171 NA
ATOM      9  C   UNL     1      20.313   6.909  21.812  0.00  0.00    +0.003 A 
ATOM     12  C   UNL     1      19.191   6.653  21.062  0.00  0.00    +0.046 A 
ATOM     13  C   UNL     1      19.970   8.036  22.583  0.00  0.00    +0.064 A 
ATOM     16  C   UNL     1      18.918   5.602  20.061  0.00  0.00    +0.066 C 
ATOM     17  C   UNL     1      20.805   8.742  23.571  0.00  0.00    +0.068 C 
BRANCH   2  15
ATOM     15  C   UNL     1      16.987   7.743  20.910  0.00  0.00    +0.066 A 
ATOM     18  C   UNL     1      14.403   8.014  19.895  0.00  0.00    -0.042 A 
ATOM     20  C   UNL     1      16.111   6.657  20.935  0.00  0.00    +0.028 A 
ATOM     21  C   UNL     1      16.571   8.964  20.380  0.00  0.00    +0.028 A 
ATOM     22  C   UNL     1      14.819   6.793  20.427  0.00  0.00    +0.006 A 
ATOM     23  C   UNL     1      15.280   9.099  19.872  0.00  0.00    +0.006 A 
BRANCH  18  14
ATOM     14  C   UNL     1      13.022   8.160  19.354  0.00  0.00    -0.013 C 
ATOM     24  C   UNL     1      12.556   9.631  19.088  0.00  0.00    +0.015 C 
ATOM     25  C   UNL     1      12.868   7.423  17.987  0.00  0.00    +0.015 C 
ATOM     26  C   UNL     1      11.963   7.561  20.332  0.00  0.00    +0.015 C 
ENDBRANCH  18  14
ENDBRANCH   2  15
ENDBRANCH   6   9
BRANCH   8   3
ATOM      1  O   UNL     1      24.525   1.976  20.496  0.00  0.00    -0.253 OA
ATOM      3  N   UNL     1      23.706   3.636  21.900  0.00  0.00    -0.293 N 
ATOM      5  N   UNL     1      25.644   2.517  22.455  0.00  0.00    -0.295 N 
ATOM     19  C   UNL     1      24.618   2.647  21.522  0.00  0.00    +0.300 C 
ATOM     34  H   UNL     1      23.905   4.157  22.749  0.00  0.00    +0.151 HD
ATOM     35  H   UNL     1      25.650   3.131  23.263  0.00  0.00    +0.151 HD
BRANCH   5  27
ATOM     27  C   UNL     1      26.720   1.566  22.306  0.00  0.00    +0.141 C 
BRANCH  27  28
ATOM     28  C   UNL     1      26.442   0.284  23.035  0.00  0.00    -0.030 A 
ATOM     29  C   UNL     1      27.005  -0.911  22.587  0.00  0.00    +0.005 A 
ATOM     30  C   UNL     1      25.621   0.287  24.164  0.00  0.00    +0.005 A 
ATOM     31  C   UNL     1      26.746  -2.103  23.265  0.00  0.00    +0.000 A 
ATOM     32  C   UNL     1      25.362  -0.904  24.842  0.00  0.00    +0.000 A 
ATOM     33  C   UNL     1      25.925  -2.099  24.392  0.00  0.00    +0.000 A 
ENDBRANCH  27  28
ENDBRANCH   5  27
ENDBRANCH   8   3
TORSDOF 6
ENDMDL
