REMARK  Name = 26763478
REMARK  13 active torsions:
REMARK  status: ('A' for Active; 'I' for Inactive)
REMARK    1  A    between atoms: O_2  and  C_13
REMARK    2  A    between atoms: O_2  and  C_21
REMARK    3  A    between atoms: O_5  and  C_20
REMARK    4  A    between atoms: O_5  and  C_26
REMARK    5  A    between atoms: O_7  and  C_31
REMARK    6  A    between atoms: N_10  and  C_19
REMARK    7  A    between atoms: C_12  and  C_17
REMARK    8  A    between atoms: C_18  and  C_20
REMARK    9  A    between atoms: C_19  and  C_22
REMARK   10  A    between atoms: C_19  and  C_23
REMARK   11  A    between atoms: C_21  and  C_24
REMARK   12  A    between atoms: C_22  and  C_25
REMARK   13  A    between atoms: C_26  and  C_31
REMARK                            x       y       z     vdW  Elec       q    Type
REMARK                         _______ _______ _______ _____ _____    ______ ____
ROOT
ATOM      4  O   UNL     1      -2.033  -2.864  -1.115  0.00  0.00    -0.273 OA
ATOM      9  N   UNL     1      -0.056  -2.183  -0.090  0.00  0.00    -0.288 N 
ATOM     12  C   UNL     1       0.667  -1.240   0.778  0.00  0.00    +0.164 C 
ATOM     13  C   UNL     1       2.716  -2.784   0.642  0.00  0.00    +0.122 C 
ATOM     14  C   UNL     1       1.856  -1.870   1.513  0.00  0.00    +0.063 C 
ATOM     15  C   UNL     1       1.844  -3.782  -0.114  0.00  0.00    +0.050 C 
ATOM     16  C   UNL     1       0.759  -3.078  -0.920  0.00  0.00    +0.111 C 
ATOM     18  C   UNL     1      -1.442  -2.168  -0.285  0.00  0.00    +0.242 C 
ENDROOT
BRANCH  12  17
ATOM      3  O   UNL     1       1.367  -0.183  -1.248  0.00  0.00    -0.274 OA
ATOM     10  N   UNL     1       1.130   1.110   0.674  0.00  0.00    -0.302 N 
ATOM     17  C   UNL     1       1.086  -0.065  -0.058  0.00  0.00    +0.234 C 
ATOM     32  H   UNL     1       0.918   1.084   1.667  0.00  0.00    +0.150 HD
BRANCH  10  19
ATOM     19  C   UNL     1       1.525   2.379   0.108  0.00  0.00    +0.163 C 
BRANCH  19  23
ATOM      6  O   UNL     1       3.014   2.595   2.017  0.00  0.00    -0.274 OA
ATOM     11  N   UNL     1       3.693   3.443  -0.008  0.00  0.00    -0.328 N 
ATOM     23  C   UNL     1       2.793   2.816   0.828  0.00  0.00    +0.231 C 
ATOM     33  H   UNL     1       3.499   3.615  -0.989  0.00  0.00    +0.145 HD
ATOM     34  H   UNL     1       4.587   3.769   0.343  0.00  0.00    +0.145 HD
ENDBRANCH  19  23
BRANCH  19  22
ATOM     22  C   UNL     1       0.433   3.445   0.257  0.00  0.00    +0.074 C 
BRANCH  22  25
ATOM      1  S   UNL     1      -2.349   3.554   0.266  0.00  0.00    -0.102 S 
ATOM     25  C   UNL     1      -0.861   3.053  -0.415  0.00  0.00    -0.008 A 
ATOM     27  C   UNL     1      -1.040   2.309  -1.561  0.00  0.00    +0.011 A 
ATOM     29  C   UNL     1      -2.419   2.148  -1.883  0.00  0.00    +0.008 A 
ATOM     30  C   UNL     1      -3.240   2.775  -0.972  0.00  0.00    +0.045 A 
ENDBRANCH  22  25
ENDBRANCH  19  22
ENDBRANCH  10  19
ENDBRANCH  12  17
BRANCH  13   2
ATOM      2  O   UNL     1       3.471  -1.997  -0.273  0.00  0.00    -0.372 OA
BRANCH   2  21
ATOM     21  C   UNL     1       4.595  -1.401   0.358  0.00  0.00    +0.187 C 
BRANCH  21  24
ATOM     24  C   UNL     1       5.585  -1.015  -0.689  0.00  0.00    -0.007 C 
ATOM     28  C   UNL     1       6.007   0.238  -0.895  0.00  0.00    +0.006 C 
ENDBRANCH  21  24
ENDBRANCH   2  21
ENDBRANCH  13   2
BRANCH  18  20
ATOM     20  C   UNL     1      -2.242  -1.240   0.596  0.00  0.00    +0.256 C 
BRANCH  20   5
ATOM      5  O   UNL     1      -3.586  -1.369   0.199  0.00  0.00    -0.359 OA
BRANCH   5  26
ATOM     26  C   UNL     1      -4.453  -0.533   0.964  0.00  0.00    +0.280 C 
BRANCH  26  31
ATOM      8  O   UNL     1      -6.240  -1.438  -0.413  0.00  0.00    -0.248 OA
ATOM     31  C   UNL     1      -5.872  -0.711   0.498  0.00  0.00    +0.331 C 
BRANCH  31   7
ATOM      7  O   UNL     1      -6.708   0.057   1.240  0.00  0.00    -0.479 OA
ATOM     35  H   UNL     1      -7.643  -0.040   0.958  0.00  0.00    +0.295 HD
ENDBRANCH  31   7
ENDBRANCH  26  31
ENDBRANCH   5  26
ENDBRANCH  20   5
ENDBRANCH  18  20
TORSDOF 13
