REMARK  Name = 45783524
REMARK  5 active torsions:
REMARK  status: ('A' for Active; 'I' for Inactive)
REMARK    1  A    between atoms: N_3  and  C_13
REMARK    2  A    between atoms: N_4  and  C_22
REMARK    3  A    between atoms: C_9  and  C_14
REMARK    4  A    between atoms: C_13  and  C_15
REMARK    5  A    between atoms: C_20  and  C_23
REMARK                            x       y       z     vdW  Elec       q    Type
REMARK                         _______ _______ _______ _____ _____    ______ ____
ROOT
ATOM      1  O   UNL     1      -2.261  -2.365   1.552  0.00  0.00    -0.336 OA
ATOM      5  N   UNL     1      -1.472  -1.211  -0.199  0.00  0.00    -0.190 NA
ATOM      6  N   UNL     1      -0.873  -2.298   1.723  0.00  0.00    -0.056 NA
ATOM     14  C   UNL     1      -2.530  -1.701   0.397  0.00  0.00    +0.245 A 
ATOM     20  C   UNL     1      -0.479  -1.602   0.652  0.00  0.00    +0.204 A 
ENDROOT
BRANCH  20  23
ATOM      2  O   UNL     1       7.609   0.228  -0.429  0.00  0.00    -0.377 OA
ATOM      7  N   UNL     1       4.879  -0.410  -0.240  0.00  0.00    -0.311 N 
ATOM      8  N   UNL     1       3.208  -1.419   1.098  0.00  0.00    -0.240 NA
ATOM     23  C   UNL     1       0.896  -1.283   0.402  0.00  0.00    +0.041 A 
ATOM     26  C   UNL     1       5.308   0.990  -0.330  0.00  0.00    +0.134 C 
ATOM     27  C   UNL     1       5.896  -1.345   0.258  0.00  0.00    +0.134 C 
ATOM     28  C   UNL     1       3.533  -0.713  -0.008  0.00  0.00    +0.121 A 
ATOM     29  C   UNL     1       6.646   1.073  -1.057  0.00  0.00    +0.178 C 
ATOM     30  C   UNL     1       7.202  -1.138  -0.501  0.00  0.00    +0.178 C 
ATOM     31  C   UNL     1       1.270  -0.559  -0.725  0.00  0.00    +0.016 A 
ATOM     32  C   UNL     1       1.894  -1.686   1.274  0.00  0.00    +0.124 A 
ATOM     33  C   UNL     1       2.612  -0.264  -0.941  0.00  0.00    +0.044 A 
ENDBRANCH  20  23
BRANCH  14   9
ATOM      3  N   UNL     1      -4.284  -0.437  -0.835  0.00  0.00    -0.287 NA
ATOM      9  C   UNL     1      -3.985  -1.629  -0.017  0.00  0.00    +0.146 C 
ATOM     10  C   UNL     1      -4.413  -2.821  -0.893  0.00  0.00    +0.030 C 
ATOM     11  C   UNL     1      -5.395  -0.806  -1.713  0.00  0.00    +0.085 C 
ATOM     12  C   UNL     1      -4.996  -2.200  -2.154  0.00  0.00    +0.017 C 
BRANCH   3  13
ATOM     13  C   UNL     1      -4.585   0.746  -0.038  0.00  0.00    +0.122 C 
BRANCH  13  15
ATOM      4  N   UNL     1      -1.813   2.240   1.865  0.00  0.00    -0.349 N 
ATOM     15  C   UNL     1      -3.335   1.403   0.483  0.00  0.00    -0.008 A 
ATOM     16  C   UNL     1      -2.256   1.910  -0.296  0.00  0.00    +0.004 A 
ATOM     17  C   UNL     1      -3.033   1.621   1.807  0.00  0.00    +0.091 A 
ATOM     18  C   UNL     1      -1.315   2.429   0.596  0.00  0.00    +0.049 A 
ATOM     19  C   UNL     1      -1.990   1.976  -1.678  0.00  0.00    +0.010 A 
ATOM     21  C   UNL     1      -0.116   3.013   0.173  0.00  0.00    +0.026 A 
ATOM     22  C   UNL     1      -1.155   2.632   3.093  0.00  0.00    +0.149 C 
ATOM     24  C   UNL     1      -0.795   2.559  -2.116  0.00  0.00    +0.001 A 
ATOM     25  C   UNL     1       0.126   3.068  -1.203  0.00  0.00    +0.002 A 
ENDBRANCH  13  15
ENDBRANCH   3  13
ENDBRANCH  14   9
TORSDOF 4
