MODEL 1
REMARK VINA RESULT:      -6.7      0.000      0.000
REMARK  Name = 71693673
REMARK  10 active torsions:
REMARK  status: ('A' for Active; 'I' for Inactive)
REMARK    1  A    between atoms: O_2  and  C_11
REMARK    2  A    between atoms: N_5  and  C_12
REMARK    3  A    between atoms: N_6  and  C_23
REMARK    4  A    between atoms: N_8  and  C_21
REMARK    5  A    between atoms: C_9  and  C_11
REMARK    6  A    between atoms: C_10  and  C_13
REMARK    7  A    between atoms: C_12  and  C_16
REMARK    8  A    between atoms: C_25  and  C_26
REMARK    9  A    between atoms: C_25  and  C_27
REMARK   10  A    between atoms: C_25  and  C_28
REMARK                            x       y       z     vdW  Elec       q    Type
REMARK                         _______ _______ _______ _____ _____    ______ ____
ROOT
ATOM      1  O   UNL     1      13.602   6.533  20.780  0.00  0.00    -0.361 OA
ATOM      3  O   UNL     1      10.620   8.474  20.979  0.00  0.00    -0.273 OA
ATOM      5  N   UNL     1      12.793   9.174  20.506  0.00  0.00    -0.284 N 
ATOM      9  C   UNL     1      14.225   8.815  20.365  0.00  0.00    +0.135 C 
ATOM     10  C   UNL     1      14.390   7.351  19.914  0.00  0.00    +0.171 C 
ATOM     14  C   UNL     1      11.800   8.218  20.731  0.00  0.00    +0.242 C 
ATOM     15  C   UNL     1      12.229   6.772  20.579  0.00  0.00    +0.256 C 
ENDROOT
BRANCH  10  13
ATOM     13  C   UNL     1      15.812   6.834  19.991  0.00  0.00    -0.017 A 
ATOM     17  C   UNL     1      16.382   6.193  18.892  0.00  0.00    +0.008 A 
ATOM     18  C   UNL     1      16.551   6.999  21.163  0.00  0.00    +0.008 A 
ATOM     19  C   UNL     1      17.692   5.717  18.964  0.00  0.00    +0.023 A 
ATOM     20  C   UNL     1      17.861   6.523  21.235  0.00  0.00    +0.023 A 
ATOM     21  C   UNL     1      18.431   5.882  20.135  0.00  0.00    +0.033 A 
BRANCH  21   8
ATOM      4  O   UNL     1      21.004   7.350  20.597  0.00  0.00    -0.275 OA
ATOM      8  N   UNL     1      19.741   5.407  20.206  0.00  0.00    -0.285 N 
ATOM     26  C   UNL     1      20.920   6.137  20.429  0.00  0.00    +0.220 C 
ATOM     30  H   UNL     1      19.841   4.403  20.078  0.00  0.00    +0.155 HD
BRANCH  26  25
ATOM     25  C   UNL     1      22.160   5.238  20.436  0.00  0.00    +0.069 C 
ATOM     27  C   UNL     1      21.912   3.961  21.236  0.00  0.00    +0.017 C 
ATOM     28  C   UNL     1      23.356   6.000  21.005  0.00  0.00    +0.017 C 
ENDBRANCH  26  25
ENDBRANCH  21   8
ENDBRANCH  10  13
BRANCH   9  11
ATOM     11  C   UNL     1      14.977   9.760  19.416  0.00  0.00    +0.181 C 
BRANCH  11   2
ATOM      2  O   UNL     1      16.008  10.391  20.147  0.00  0.00    -0.393 OA
ATOM     29  H   UNL     1      15.758  11.325  20.250  0.00  0.00    +0.209 HD
ENDBRANCH  11   2
ENDBRANCH   9  11
BRANCH   5  12
ATOM     12  C   UNL     1      12.449  10.585  20.653  0.00  0.00    +0.182 C 
BRANCH  12  16
ATOM      6  N   UNL     1      12.213  11.196  23.079  0.00  0.00    -0.336 N 
ATOM      7  N   UNL     1      14.160  11.681  22.127  0.00  0.00    -0.239 NA
ATOM     16  C   UNL     1      12.968  11.160  21.939  0.00  0.00    +0.127 A 
ATOM     22  C   UNL     1      12.973  11.775  24.056  0.00  0.00    +0.106 A 
ATOM     23  C   UNL     1      10.862  10.713  23.239  0.00  0.00    +0.150 C 
ATOM     24  C   UNL     1      14.169  12.066  23.444  0.00  0.00    +0.130 A 
ENDBRANCH  12  16
ENDBRANCH   5  12
TORSDOF 7
ENDMDL
MODEL 2
REMARK VINA RESULT:      -6.4      2.374      3.914
REMARK  Name = 71693673
REMARK  10 active torsions:
REMARK  status: ('A' for Active; 'I' for Inactive)
REMARK    1  A    between atoms: O_2  and  C_11
REMARK    2  A    between atoms: N_5  and  C_12
REMARK    3  A    between atoms: N_6  and  C_23
REMARK    4  A    between atoms: N_8  and  C_21
REMARK    5  A    between atoms: C_9  and  C_11
REMARK    6  A    between atoms: C_10  and  C_13
REMARK    7  A    between atoms: C_12  and  C_16
REMARK    8  A    between atoms: C_25  and  C_26
REMARK    9  A    between atoms: C_25  and  C_27
REMARK   10  A    between atoms: C_25  and  C_28
REMARK                            x       y       z     vdW  Elec       q    Type
REMARK                         _______ _______ _______ _____ _____    ______ ____
ROOT
ATOM      1  O   UNL     1      18.035   9.208  21.100  0.00  0.00    -0.361 OA
ATOM      3  O   UNL     1      15.095  11.181  20.697  0.00  0.00    -0.273 OA
ATOM      5  N   UNL     1      15.442   8.943  20.145  0.00  0.00    -0.284 N 
ATOM      9  C   UNL     1      16.383   7.798  20.074  0.00  0.00    +0.135 C 
ATOM     10  C   UNL     1      17.467   7.899  21.165  0.00  0.00    +0.171 C 
ATOM     14  C   UNL     1      15.792  10.164  20.725  0.00  0.00    +0.242 C 
ATOM     15  C   UNL     1      17.097  10.181  21.496  0.00  0.00    +0.256 C 
ENDROOT
BRANCH  10  13
ATOM     13  C   UNL     1      18.606   6.914  21.003  0.00  0.00    -0.017 A 
ATOM     17  C   UNL     1      19.768   7.060  21.759  0.00  0.00    +0.008 A 
ATOM     18  C   UNL     1      18.491   5.859  20.097  0.00  0.00    +0.008 A 
ATOM     19  C   UNL     1      20.816   6.152  21.610  0.00  0.00    +0.023 A 
ATOM     20  C   UNL     1      19.539   4.951  19.948  0.00  0.00    +0.023 A 
ATOM     21  C   UNL     1      20.702   5.097  20.704  0.00  0.00    +0.033 A 
BRANCH  21   8
ATOM      4  O   UNL     1      21.866   3.144  22.658  0.00  0.00    -0.275 OA
ATOM      8  N   UNL     1      21.750   4.189  20.556  0.00  0.00    -0.285 N 
ATOM     26  C   UNL     1      22.261   3.287  21.504  0.00  0.00    +0.220 C 
ATOM     30  H   UNL     1      22.194   4.190  19.640  0.00  0.00    +0.155 HD
BRANCH  26  25
ATOM     25  C   UNL     1      23.420   2.458  20.943  0.00  0.00    +0.069 C 
ATOM     27  C   UNL     1      24.095   1.638  22.040  0.00  0.00    +0.017 C 
ATOM     28  C   UNL     1      24.436   3.373  20.261  0.00  0.00    +0.017 C 
ENDBRANCH  26  25
ENDBRANCH  21   8
ENDBRANCH  10  13
BRANCH   9  11
ATOM     11  C   UNL     1      15.666   6.442  20.149  0.00  0.00    +0.181 C 
BRANCH  11   2
ATOM      2  O   UNL     1      15.244   6.240  21.482  0.00  0.00    -0.393 OA
ATOM     29  H   UNL     1      15.714   5.459  21.818  0.00  0.00    +0.209 HD
ENDBRANCH  11   2
ENDBRANCH   9  11
BRANCH   5  12
ATOM     12  C   UNL     1      14.205   8.865  19.374  0.00  0.00    +0.182 C 
BRANCH  12  16
ATOM      6  N   UNL     1      11.755   8.440  19.734  0.00  0.00    -0.336 N 
ATOM      7  N   UNL     1      13.036   8.411  21.549  0.00  0.00    -0.239 NA
ATOM     16  C   UNL     1      13.017   8.571  20.244  0.00  0.00    +0.127 A 
ATOM     22  C   UNL     1      10.916   8.178  20.781  0.00  0.00    +0.106 A 
ATOM     23  C   UNL     1      11.363   8.551  18.350  0.00  0.00    +0.150 C 
ATOM     24  C   UNL     1      11.729   8.166  21.890  0.00  0.00    +0.130 A 
ENDBRANCH  12  16
ENDBRANCH   5  12
TORSDOF 7
ENDMDL
MODEL 3
REMARK VINA RESULT:      -6.1     29.485     32.419
REMARK  Name = 71693673
REMARK  10 active torsions:
REMARK  status: ('A' for Active; 'I' for Inactive)
REMARK    1  A    between atoms: O_2  and  C_11
REMARK    2  A    between atoms: N_5  and  C_12
REMARK    3  A    between atoms: N_6  and  C_23
REMARK    4  A    between atoms: N_8  and  C_21
REMARK    5  A    between atoms: C_9  and  C_11
REMARK    6  A    between atoms: C_10  and  C_13
REMARK    7  A    between atoms: C_12  and  C_16
REMARK    8  A    between atoms: C_25  and  C_26
REMARK    9  A    between atoms: C_25  and  C_27
REMARK   10  A    between atoms: C_25  and  C_28
REMARK                            x       y       z     vdW  Elec       q    Type
REMARK                         _______ _______ _______ _____ _____    ______ ____
ROOT
ATOM      1  O   UNL     1     -11.872  -9.593  18.562  0.00  0.00    -0.361 OA
ATOM      3  O   UNL     1     -10.553 -12.284  20.489  0.00  0.00    -0.273 OA
ATOM      5  N   UNL     1      -9.697 -11.317  18.548  0.00  0.00    -0.284 N 
ATOM      9  C   UNL     1      -9.867 -10.323  17.460  0.00  0.00    +0.135 C 
ATOM     10  C   UNL     1     -10.682  -9.106  17.940  0.00  0.00    +0.171 C 
ATOM     14  C   UNL     1     -10.576 -11.400  19.630  0.00  0.00    +0.242 C 
ATOM     15  C   UNL     1     -11.570 -10.264  19.762  0.00  0.00    +0.256 C 
ENDROOT
BRANCH  10  13
ATOM     13  C   UNL     1     -11.113  -8.171  16.830  0.00  0.00    -0.017 A 
ATOM     17  C   UNL     1     -10.800  -6.814  16.899  0.00  0.00    +0.008 A 
ATOM     18  C   UNL     1     -11.825  -8.668  15.737  0.00  0.00    +0.008 A 
ATOM     19  C   UNL     1     -11.198  -5.953  15.875  0.00  0.00    +0.023 A 
ATOM     20  C   UNL     1     -12.222  -7.807  14.714  0.00  0.00    +0.023 A 
ATOM     21  C   UNL     1     -11.909  -6.449  14.783  0.00  0.00    +0.033 A 
BRANCH  21   8
ATOM      4  O   UNL     1     -14.636  -5.457  14.032  0.00  0.00    -0.275 OA
ATOM      8  N   UNL     1     -12.305  -5.588  13.760  0.00  0.00    -0.285 N 
ATOM     26  C   UNL     1     -13.602  -5.148  13.447  0.00  0.00    +0.220 C 
ATOM     30  H   UNL     1     -11.550  -5.243  13.171  0.00  0.00    +0.155 HD
BRANCH  26  25
ATOM     25  C   UNL     1     -13.613  -4.201  12.243  0.00  0.00    +0.069 C 
ATOM     27  C   UNL     1     -12.291  -3.447  12.121  0.00  0.00    +0.017 C 
ATOM     28  C   UNL     1     -14.777  -3.219  12.360  0.00  0.00    +0.017 C 
ENDBRANCH  26  25
ENDBRANCH  21   8
ENDBRANCH  10  13
BRANCH   9  11
ATOM     11  C   UNL     1      -8.526  -9.872  16.862  0.00  0.00    +0.181 C 
BRANCH  11   2
ATOM      2  O   UNL     1      -7.903  -9.000  17.782  0.00  0.00    -0.393 OA
ATOM     29  H   UNL     1      -8.224  -9.239  18.668  0.00  0.00    +0.209 HD
ENDBRANCH  11   2
ENDBRANCH   9  11
BRANCH   5  12
ATOM     12  C   UNL     1      -8.726 -12.390  18.354  0.00  0.00    +0.182 C 
BRANCH  12  16
ATOM      6  N   UNL     1      -6.217 -12.518  18.347  0.00  0.00    -0.336 N 
ATOM      7  N   UNL     1      -7.132 -11.226  19.905  0.00  0.00    -0.239 NA
ATOM     16  C   UNL     1      -7.371 -12.026  18.890  0.00  0.00    +0.127 A 
ATOM     22  C   UNL     1      -5.174 -11.997  19.061  0.00  0.00    +0.106 A 
ATOM     23  C   UNL     1      -6.101 -13.420  17.226  0.00  0.00    +0.150 C 
ATOM     24  C   UNL     1      -5.764 -11.203  20.017  0.00  0.00    +0.130 A 
ENDBRANCH  12  16
ENDBRANCH   5  12
TORSDOF 7
ENDMDL
MODEL 4
REMARK VINA RESULT:      -5.9     18.436     21.042
REMARK  Name = 71693673
REMARK  10 active torsions:
REMARK  status: ('A' for Active; 'I' for Inactive)
REMARK    1  A    between atoms: O_2  and  C_11
REMARK    2  A    between atoms: N_5  and  C_12
REMARK    3  A    between atoms: N_6  and  C_23
REMARK    4  A    between atoms: N_8  and  C_21
REMARK    5  A    between atoms: C_9  and  C_11
REMARK    6  A    between atoms: C_10  and  C_13
REMARK    7  A    between atoms: C_12  and  C_16
REMARK    8  A    between atoms: C_25  and  C_26
REMARK    9  A    between atoms: C_25  and  C_27
REMARK   10  A    between atoms: C_25  and  C_28
REMARK                            x       y       z     vdW  Elec       q    Type
REMARK                         _______ _______ _______ _____ _____    ______ ____
ROOT
ATOM      1  O   UNL     1      11.683   4.978  -0.163  0.00  0.00    -0.361 OA
ATOM      3  O   UNL     1      13.759   4.189  -2.950  0.00  0.00    -0.273 OA
ATOM      5  N   UNL     1      14.291   4.181  -0.681  0.00  0.00    -0.284 N 
ATOM      9  C   UNL     1      13.855   4.443   0.712  0.00  0.00    +0.135 C 
ATOM     10  C   UNL     1      12.336   4.237   0.869  0.00  0.00    +0.171 C 
ATOM     14  C   UNL     1      13.420   4.274  -1.768  0.00  0.00    +0.242 C 
ATOM     15  C   UNL     1      11.950   4.416  -1.426  0.00  0.00    +0.256 C 
ENDROOT
BRANCH  10  13
ATOM     13  C   UNL     1      11.775   4.726   2.188  0.00  0.00    -0.017 A 
ATOM     17  C   UNL     1      11.001   3.875   2.976  0.00  0.00    +0.008 A 
ATOM     18  C   UNL     1      12.033   6.030   2.614  0.00  0.00    +0.008 A 
ATOM     19  C   UNL     1      10.485   4.327   4.191  0.00  0.00    +0.023 A 
ATOM     20  C   UNL     1      11.517   6.481   3.829  0.00  0.00    +0.023 A 
ATOM     21  C   UNL     1      10.742   5.630   4.618  0.00  0.00    +0.033 A 
BRANCH  21   8
ATOM      4  O   UNL     1       7.989   6.587   5.320  0.00  0.00    -0.275 OA
ATOM      8  N   UNL     1      10.227   6.081   5.833  0.00  0.00    -0.285 N 
ATOM     26  C   UNL     1       8.922   6.518   6.115  0.00  0.00    +0.220 C 
ATOM     30  H   UNL     1      10.890   6.090   6.604  0.00  0.00    +0.155 HD
BRANCH  26  25
ATOM     25  C   UNL     1       8.760   6.932   7.581  0.00  0.00    +0.069 C 
ATOM     27  C   UNL     1       9.275   8.350   7.816  0.00  0.00    +0.017 C 
ATOM     28  C   UNL     1       9.490   5.943   8.488  0.00  0.00    +0.017 C 
ENDBRANCH  26  25
ENDBRANCH  21   8
ENDBRANCH  10  13
BRANCH   9  11
ATOM     11  C   UNL     1      14.623   3.597   1.738  0.00  0.00    +0.181 C 
BRANCH  11   2
ATOM      2  O   UNL     1      15.300   4.473   2.615  0.00  0.00    -0.393 OA
ATOM     29  H   UNL     1      16.238   4.214   2.615  0.00  0.00    +0.209 HD
ENDBRANCH  11   2
ENDBRANCH   9  11
BRANCH   5  12
ATOM     12  C   UNL     1      15.722   4.058  -0.942  0.00  0.00    +0.182 C 
BRANCH  12  16
ATOM      6  N   UNL     1      16.956   5.933  -2.071  0.00  0.00    -0.336 N 
ATOM      7  N   UNL     1      16.573   6.176   0.104  0.00  0.00    -0.239 NA
ATOM     16  C   UNL     1      16.411   5.392  -0.939  0.00  0.00    +0.127 A 
ATOM     22  C   UNL     1      17.499   7.139  -1.727  0.00  0.00    +0.106 A 
ATOM     23  C   UNL     1      16.964   5.353  -3.392  0.00  0.00    +0.150 C 
ATOM     24  C   UNL     1      17.251   7.267  -0.381  0.00  0.00    +0.130 A 
ENDBRANCH  12  16
ENDBRANCH   5  12
TORSDOF 7
ENDMDL
MODEL 5
REMARK VINA RESULT:      -5.9     26.722     29.963
REMARK  Name = 71693673
REMARK  10 active torsions:
REMARK  status: ('A' for Active; 'I' for Inactive)
REMARK    1  A    between atoms: O_2  and  C_11
REMARK    2  A    between atoms: N_5  and  C_12
REMARK    3  A    between atoms: N_6  and  C_23
REMARK    4  A    between atoms: N_8  and  C_21
REMARK    5  A    between atoms: C_9  and  C_11
REMARK    6  A    between atoms: C_10  and  C_13
REMARK    7  A    between atoms: C_12  and  C_16
REMARK    8  A    between atoms: C_25  and  C_26
REMARK    9  A    between atoms: C_25  and  C_27
REMARK   10  A    between atoms: C_25  and  C_28
REMARK                            x       y       z     vdW  Elec       q    Type
REMARK                         _______ _______ _______ _____ _____    ______ ____
ROOT
ATOM      1  O   UNL     1     -10.886   8.290  20.072  0.00  0.00    -0.361 OA
ATOM      3  O   UNL     1      -9.813   9.770  17.013  0.00  0.00    -0.273 OA
ATOM      5  N   UNL     1     -11.823   8.688  17.489  0.00  0.00    -0.284 N 
ATOM      9  C   UNL     1     -12.645   7.942  18.473  0.00  0.00    +0.135 C 
ATOM     10  C   UNL     1     -12.304   8.363  19.916  0.00  0.00    +0.171 C 
ATOM     14  C   UNL     1     -10.589   9.252  17.820  0.00  0.00    +0.242 C 
ATOM     15  C   UNL     1     -10.247   9.276  19.296  0.00  0.00    +0.256 C 
ENDROOT
BRANCH  10  13
ATOM     13  C   UNL     1     -12.912   7.476  20.983  0.00  0.00    -0.017 A 
ATOM     17  C   UNL     1     -13.986   7.935  21.744  0.00  0.00    +0.008 A 
ATOM     18  C   UNL     1     -12.397   6.198  21.203  0.00  0.00    +0.008 A 
ATOM     19  C   UNL     1     -14.546   7.117  22.726  0.00  0.00    +0.023 A 
ATOM     20  C   UNL     1     -12.957   5.380  22.184  0.00  0.00    +0.023 A 
ATOM     21  C   UNL     1     -14.031   5.840  22.946  0.00  0.00    +0.033 A 
BRANCH  21   8
ATOM      4  O   UNL     1     -16.110   3.691  22.724  0.00  0.00    -0.275 OA
ATOM      8  N   UNL     1     -14.592   5.022  23.927  0.00  0.00    -0.285 N 
ATOM     26  C   UNL     1     -15.566   4.022  23.773  0.00  0.00    +0.220 C 
ATOM     30  H   UNL     1     -14.243   5.180  24.870  0.00  0.00    +0.155 HD
BRANCH  26  25
ATOM     25  C   UNL     1     -15.914   3.348  25.105  0.00  0.00    +0.069 C 
ATOM     27  C   UNL     1     -16.749   2.089  24.885  0.00  0.00    +0.017 C 
ATOM     28  C   UNL     1     -16.657   4.330  26.009  0.00  0.00    +0.017 C 
ENDBRANCH  26  25
ENDBRANCH  21   8
ENDBRANCH  10  13
BRANCH   9  11
ATOM     11  C   UNL     1     -14.151   8.087  18.211  0.00  0.00    +0.181 C 
BRANCH  11   2
ATOM      2  O   UNL     1     -14.524   9.417  18.507  0.00  0.00    -0.393 OA
ATOM     29  H   UNL     1     -15.488   9.423  18.640  0.00  0.00    +0.209 HD
ENDBRANCH  11   2
ENDBRANCH   9  11
BRANCH   5  12
ATOM     12  C   UNL     1     -12.205   8.619  16.082  0.00  0.00    +0.182 C 
BRANCH  12  16
ATOM      6  N   UNL     1     -12.449  10.303  14.234  0.00  0.00    -0.336 N 
ATOM      7  N   UNL     1     -13.180  10.926  16.237  0.00  0.00    -0.239 NA
ATOM     16  C   UNL     1     -12.622   9.957  15.546  0.00  0.00    +0.127 A 
ATOM     22  C   UNL     1     -12.929  11.573  14.079  0.00  0.00    +0.106 A 
ATOM     23  C   UNL     1     -11.871   9.489  13.192  0.00  0.00    +0.150 C 
ATOM     24  C   UNL     1     -13.374  11.937  15.328  0.00  0.00    +0.130 A 
ENDBRANCH  12  16
ENDBRANCH   5  12
TORSDOF 7
ENDMDL
MODEL 6
REMARK VINA RESULT:      -5.9      3.101      9.000
REMARK  Name = 71693673
REMARK  10 active torsions:
REMARK  status: ('A' for Active; 'I' for Inactive)
REMARK    1  A    between atoms: O_2  and  C_11
REMARK    2  A    between atoms: N_5  and  C_12
REMARK    3  A    between atoms: N_6  and  C_23
REMARK    4  A    between atoms: N_8  and  C_21
REMARK    5  A    between atoms: C_9  and  C_11
REMARK    6  A    between atoms: C_10  and  C_13
REMARK    7  A    between atoms: C_12  and  C_16
REMARK    8  A    between atoms: C_25  and  C_26
REMARK    9  A    between atoms: C_25  and  C_27
REMARK   10  A    between atoms: C_25  and  C_28
REMARK                            x       y       z     vdW  Elec       q    Type
REMARK                         _______ _______ _______ _____ _____    ______ ____
ROOT
ATOM      1  O   UNL     1      20.384   5.019  20.164  0.00  0.00    -0.361 OA
ATOM      3  O   UNL     1      23.870   5.324  20.836  0.00  0.00    -0.273 OA
ATOM      5  N   UNL     1      22.194   6.930  21.046  0.00  0.00    -0.284 N 
ATOM      9  C   UNL     1      20.764   7.283  20.871  0.00  0.00    +0.135 C 
ATOM     10  C   UNL     1      19.862   6.041  21.013  0.00  0.00    +0.171 C 
ATOM     14  C   UNL     1      22.678   5.639  20.826  0.00  0.00    +0.242 C 
ATOM     15  C   UNL     1      21.629   4.562  20.638  0.00  0.00    +0.256 C 
ENDROOT
BRANCH  10  13
ATOM     13  C   UNL     1      18.423   6.268  20.600  0.00  0.00    -0.017 A 
ATOM     17  C   UNL     1      17.986   5.862  19.340  0.00  0.00    +0.008 A 
ATOM     18  C   UNL     1      17.533   6.882  21.482  0.00  0.00    +0.008 A 
ATOM     19  C   UNL     1      16.660   6.071  18.960  0.00  0.00    +0.023 A 
ATOM     20  C   UNL     1      16.207   7.091  21.102  0.00  0.00    +0.023 A 
ATOM     21  C   UNL     1      15.770   6.685  19.841  0.00  0.00    +0.033 A 
BRANCH  21   8
ATOM      4  O   UNL     1      14.581   8.713  17.980  0.00  0.00    -0.275 OA
ATOM      8  N   UNL     1      14.444   6.893  19.461  0.00  0.00    -0.285 N 
ATOM     26  C   UNL     1      13.933   7.859  18.580  0.00  0.00    +0.220 C 
ATOM     30  H   UNL     1      13.771   6.258  19.885  0.00  0.00    +0.155 HD
BRANCH  26  25
ATOM     25  C   UNL     1      12.412   7.752  18.429  0.00  0.00    +0.069 C 
ATOM     27  C   UNL     1      11.907   8.632  17.288  0.00  0.00    +0.017 C 
ATOM     28  C   UNL     1      11.728   8.135  19.740  0.00  0.00    +0.017 C 
ENDBRANCH  26  25
ENDBRANCH  21   8
ENDBRANCH  10  13
BRANCH   9  11
ATOM     11  C   UNL     1      20.310   8.392  21.831  0.00  0.00    +0.181 C 
BRANCH  11   2
ATOM      2  O   UNL     1      20.065   9.559  21.074  0.00  0.00    -0.393 OA
ATOM     29  H   UNL     1      19.100   9.655  20.997  0.00  0.00    +0.209 HD
ENDBRANCH  11   2
ENDBRANCH   9  11
BRANCH   5  12
ATOM     12  C   UNL     1      23.154   8.016  21.218  0.00  0.00    +0.182 C 
BRANCH  12  16
ATOM      6  N   UNL     1      24.737   8.667  19.380  0.00  0.00    -0.336 N 
ATOM      7  N   UNL     1      22.639   9.362  19.163  0.00  0.00    -0.239 NA
ATOM     16  C   UNL     1      23.481   8.691  19.918  0.00  0.00    +0.127 A 
ATOM     22  C   UNL     1      24.694   9.366  18.206  0.00  0.00    +0.106 A 
ATOM     23  C   UNL     1      25.905   8.025  19.933  0.00  0.00    +0.150 C 
ATOM     24  C   UNL     1      23.389   9.786  18.095  0.00  0.00    +0.130 A 
ENDBRANCH  12  16
ENDBRANCH   5  12
TORSDOF 7
ENDMDL
MODEL 7
REMARK VINA RESULT:      -5.9      2.969      9.130
REMARK  Name = 71693673
REMARK  10 active torsions:
REMARK  status: ('A' for Active; 'I' for Inactive)
REMARK    1  A    between atoms: O_2  and  C_11
REMARK    2  A    between atoms: N_5  and  C_12
REMARK    3  A    between atoms: N_6  and  C_23
REMARK    4  A    between atoms: N_8  and  C_21
REMARK    5  A    between atoms: C_9  and  C_11
REMARK    6  A    between atoms: C_10  and  C_13
REMARK    7  A    between atoms: C_12  and  C_16
REMARK    8  A    between atoms: C_25  and  C_26
REMARK    9  A    between atoms: C_25  and  C_27
REMARK   10  A    between atoms: C_25  and  C_28
REMARK                            x       y       z     vdW  Elec       q    Type
REMARK                         _______ _______ _______ _____ _____    ______ ____
ROOT
ATOM      1  O   UNL     1      19.963   4.704  20.169  0.00  0.00    -0.361 OA
ATOM      3  O   UNL     1      23.498   4.799  20.615  0.00  0.00    -0.273 OA
ATOM      5  N   UNL     1      21.970   6.559  20.657  0.00  0.00    -0.284 N 
ATOM      9  C   UNL     1      20.564   7.006  20.499  0.00  0.00    +0.135 C 
ATOM     10  C   UNL     1      19.577   5.884  20.875  0.00  0.00    +0.171 C 
ATOM     14  C   UNL     1      22.336   5.212  20.615  0.00  0.00    +0.242 C 
ATOM     15  C   UNL     1      21.195   4.216  20.647  0.00  0.00    +0.256 C 
ENDROOT
BRANCH  10  13
ATOM     13  C   UNL     1      18.138   6.171  20.503  0.00  0.00    -0.017 A 
ATOM     17  C   UNL     1      17.266   6.708  21.449  0.00  0.00    +0.008 A 
ATOM     18  C   UNL     1      17.684   5.899  19.212  0.00  0.00    +0.008 A 
ATOM     19  C   UNL     1      15.940   6.973  21.105  0.00  0.00    +0.023 A 
ATOM     20  C   UNL     1      16.359   6.164  18.868  0.00  0.00    +0.023 A 
ATOM     21  C   UNL     1      15.486   6.701  19.815  0.00  0.00    +0.033 A 
BRANCH  21   8
ATOM      4  O   UNL     1      14.307   8.969  18.249  0.00  0.00    -0.275 OA
ATOM      8  N   UNL     1      14.161   6.967  19.471  0.00  0.00    -0.285 N 
ATOM     26  C   UNL     1      13.654   8.047  18.730  0.00  0.00    +0.220 C 
ATOM     30  H   UNL     1      13.484   6.284  19.807  0.00  0.00    +0.155 HD
BRANCH  26  25
ATOM     25  C   UNL     1      12.132   7.971  18.570  0.00  0.00    +0.069 C 
ATOM     27  C   UNL     1      11.676   8.664  17.288  0.00  0.00    +0.017 C 
ATOM     28  C   UNL     1      11.447   8.595  19.785  0.00  0.00    +0.017 C 
ENDBRANCH  26  25
ENDBRANCH  21   8
ENDBRANCH  10  13
BRANCH   9  11
ATOM     11  C   UNL     1      20.260   8.282  21.298  0.00  0.00    +0.181 C 
BRANCH  11   2
ATOM      2  O   UNL     1      20.293   7.961  22.672  0.00  0.00    -0.393 OA
ATOM     29  H   UNL     1      20.661   7.064  22.750  0.00  0.00    +0.209 HD
ENDBRANCH  11   2
ENDBRANCH   9  11
BRANCH   5  12
ATOM     12  C   UNL     1      23.022   7.570  20.612  0.00  0.00    +0.182 C 
BRANCH  12  16
ATOM      6  N   UNL     1      25.155   7.531  21.939  0.00  0.00    -0.336 N 
ATOM      7  N   UNL     1      23.279   7.801  23.098  0.00  0.00    -0.239 NA
ATOM     16  C   UNL     1      23.792   7.638  21.899  0.00  0.00    +0.127 A 
ATOM     22  C   UNL     1      25.535   7.633  23.248  0.00  0.00    +0.106 A 
ATOM     23  C   UNL     1      26.044   7.347  20.817  0.00  0.00    +0.150 C 
ATOM     24  C   UNL     1      24.361   7.799  23.944  0.00  0.00    +0.130 A 
ENDBRANCH  12  16
ENDBRANCH   5  12
TORSDOF 7
ENDMDL
MODEL 8
REMARK VINA RESULT:      -5.7     27.140     30.088
REMARK  Name = 71693673
REMARK  10 active torsions:
REMARK  status: ('A' for Active; 'I' for Inactive)
REMARK    1  A    between atoms: O_2  and  C_11
REMARK    2  A    between atoms: N_5  and  C_12
REMARK    3  A    between atoms: N_6  and  C_23
REMARK    4  A    between atoms: N_8  and  C_21
REMARK    5  A    between atoms: C_9  and  C_11
REMARK    6  A    between atoms: C_10  and  C_13
REMARK    7  A    between atoms: C_12  and  C_16
REMARK    8  A    between atoms: C_25  and  C_26
REMARK    9  A    between atoms: C_25  and  C_27
REMARK   10  A    between atoms: C_25  and  C_28
REMARK                            x       y       z     vdW  Elec       q    Type
REMARK                         _______ _______ _______ _____ _____    ______ ____
ROOT
ATOM      1  O   UNL     1      -2.605  -9.972  12.981  0.00  0.00    -0.361 OA
ATOM      3  O   UNL     1      -2.196 -10.989  16.372  0.00  0.00    -0.273 OA
ATOM      5  N   UNL     1      -3.894 -11.541  14.873  0.00  0.00    -0.284 N 
ATOM      9  C   UNL     1      -4.485 -11.365  13.524  0.00  0.00    +0.135 C 
ATOM     10  C   UNL     1      -3.398 -11.048  12.478  0.00  0.00    +0.171 C 
ATOM     14  C   UNL     1      -2.668 -10.978  15.233  0.00  0.00    +0.242 C 
ATOM     15  C   UNL     1      -1.855 -10.384  14.100  0.00  0.00    +0.256 C 
ENDROOT
BRANCH  10  13
ATOM     13  C   UNL     1      -3.940 -10.607  11.134  0.00  0.00    -0.017 A 
ATOM     17  C   UNL     1      -4.492  -9.335  10.987  0.00  0.00    +0.008 A 
ATOM     18  C   UNL     1      -3.885 -11.473  10.042  0.00  0.00    +0.008 A 
ATOM     19  C   UNL     1      -4.990  -8.929   9.748  0.00  0.00    +0.023 A 
ATOM     20  C   UNL     1      -4.383 -11.068   8.804  0.00  0.00    +0.023 A 
ATOM     21  C   UNL     1      -4.936  -9.796   8.657  0.00  0.00    +0.033 A 
BRANCH  21   8
ATOM      4  O   UNL     1      -7.498 -10.503   7.270  0.00  0.00    -0.275 OA
ATOM      8  N   UNL     1      -5.433  -9.390   7.418  0.00  0.00    -0.285 N 
ATOM     26  C   UNL     1      -6.647  -9.748   6.809  0.00  0.00    +0.220 C 
ATOM     30  H   UNL     1      -4.830  -8.755   6.900  0.00  0.00    +0.155 HD
BRANCH  26  25
ATOM     25  C   UNL     1      -6.821  -9.081   5.440  0.00  0.00    +0.069 C 
ATOM     27  C   UNL     1      -7.826  -7.934   5.509  0.00  0.00    +0.017 C 
ATOM     28  C   UNL     1      -7.263 -10.116   4.407  0.00  0.00    +0.017 C 
ENDBRANCH  26  25
ENDBRANCH  21   8
ENDBRANCH  10  13
BRANCH   9  11
ATOM     11  C   UNL     1      -5.318 -12.578  13.084  0.00  0.00    +0.181 C 
BRANCH  11   2
ATOM      2  O   UNL     1      -6.678 -12.197  13.071  0.00  0.00    -0.393 OA
ATOM     29  H   UNL     1      -7.149 -12.827  12.499  0.00  0.00    +0.209 HD
ENDBRANCH  11   2
ENDBRANCH   9  11
BRANCH   5  12
ATOM     12  C   UNL     1      -4.733 -12.115  15.921  0.00  0.00    +0.182 C 
BRANCH  12  16
ATOM      6  N   UNL     1      -5.779 -10.802  17.790  0.00  0.00    -0.336 N 
ATOM      7  N   UNL     1      -6.611 -10.456  15.760  0.00  0.00    -0.239 NA
ATOM     16  C   UNL     1      -5.719 -11.120  16.462  0.00  0.00    +0.127 A 
ATOM     22  C   UNL     1      -6.773  -9.876  17.945  0.00  0.00    +0.106 A 
ATOM     23  C   UNL     1      -4.954 -11.334  18.848  0.00  0.00    +0.150 C 
ATOM     24  C   UNL     1      -7.271  -9.680  16.679  0.00  0.00    +0.130 A 
ENDBRANCH  12  16
ENDBRANCH   5  12
TORSDOF 7
ENDMDL
MODEL 9
REMARK VINA RESULT:      -5.5     17.846     19.580
REMARK  Name = 71693673
REMARK  10 active torsions:
REMARK  status: ('A' for Active; 'I' for Inactive)
REMARK    1  A    between atoms: O_2  and  C_11
REMARK    2  A    between atoms: N_5  and  C_12
REMARK    3  A    between atoms: N_6  and  C_23
REMARK    4  A    between atoms: N_8  and  C_21
REMARK    5  A    between atoms: C_9  and  C_11
REMARK    6  A    between atoms: C_10  and  C_13
REMARK    7  A    between atoms: C_12  and  C_16
REMARK    8  A    between atoms: C_25  and  C_26
REMARK    9  A    between atoms: C_25  and  C_27
REMARK   10  A    between atoms: C_25  and  C_28
REMARK                            x       y       z     vdW  Elec       q    Type
REMARK                         _______ _______ _______ _____ _____    ______ ____
ROOT
ATOM      1  O   UNL     1       8.317   7.945   2.789  0.00  0.00    -0.361 OA
ATOM      3  O   UNL     1       8.067   9.954   5.721  0.00  0.00    -0.273 OA
ATOM      5  N   UNL     1       9.839   8.614   5.012  0.00  0.00    -0.284 N 
ATOM      9  C   UNL     1      10.364   7.654   4.011  0.00  0.00    +0.135 C 
ATOM     10  C   UNL     1       9.735   7.894   2.625  0.00  0.00    +0.171 C 
ATOM     14  C   UNL     1       8.603   9.249   4.863  0.00  0.00    +0.242 C 
ATOM     15  C   UNL     1       7.938   9.093   3.510  0.00  0.00    +0.256 C 
ENDROOT
BRANCH  10  13
ATOM     13  C   UNL     1      10.025   6.804   1.614  0.00  0.00    -0.017 A 
ATOM     17  C   UNL     1      10.151   5.480   2.032  0.00  0.00    +0.008 A 
ATOM     18  C   UNL     1      10.164   7.125   0.263  0.00  0.00    +0.008 A 
ATOM     19  C   UNL     1      10.417   4.476   1.100  0.00  0.00    +0.023 A 
ATOM     20  C   UNL     1      10.430   6.122  -0.669  0.00  0.00    +0.023 A 
ATOM     21  C   UNL     1      10.557   4.797  -0.250  0.00  0.00    +0.033 A 
BRANCH  21   8
ATOM      4  O   UNL     1      13.163   3.587  -1.108  0.00  0.00    -0.275 OA
ATOM      8  N   UNL     1      10.822   3.793  -1.182  0.00  0.00    -0.285 N 
ATOM     26  C   UNL     1      12.066   3.255  -1.550  0.00  0.00    +0.220 C 
ATOM     30  H   UNL     1      10.002   3.412  -1.649  0.00  0.00    +0.155 HD
BRANCH  26  25
ATOM     25  C   UNL     1      11.927   2.162  -2.614  0.00  0.00    +0.069 C 
ATOM     27  C   UNL     1      12.621   2.564  -3.913  0.00  0.00    +0.017 C 
ATOM     28  C   UNL     1      10.451   1.864  -2.869  0.00  0.00    +0.017 C 
ENDBRANCH  26  25
ENDBRANCH  21   8
ENDBRANCH  10  13
BRANCH   9  11
ATOM     11  C   UNL     1      11.897   7.680   3.919  0.00  0.00    +0.181 C 
BRANCH  11   2
ATOM      2  O   UNL     1      12.281   8.887   3.294  0.00  0.00    -0.393 OA
ATOM     29  H   UNL     1      12.703   8.652   2.450  0.00  0.00    +0.209 HD
ENDBRANCH  11   2
ENDBRANCH   9  11
BRANCH   5  12
ATOM     12  C   UNL     1      10.523   8.711   6.297  0.00  0.00    +0.182 C 
BRANCH  12  16
ATOM      6  N   UNL     1      11.127   6.628   7.565  0.00  0.00    -0.336 N 
ATOM      7  N   UNL     1       9.017   7.303   7.729  0.00  0.00    -0.239 NA
ATOM     16  C   UNL     1      10.194   7.558   7.200  0.00  0.00    +0.127 A 
ATOM     22  C   UNL     1      10.507   5.724   8.381  0.00  0.00    +0.106 A 
ATOM     23  C   UNL     1      12.516   6.593   7.173  0.00  0.00    +0.150 C 
ATOM     24  C   UNL     1       9.206   6.161   8.467  0.00  0.00    +0.130 A 
ENDBRANCH  12  16
ENDBRANCH   5  12
TORSDOF 7
ENDMDL
MODEL 10
REMARK VINA RESULT:      -5.5     14.760     17.736
REMARK  Name = 71693673
REMARK  10 active torsions:
REMARK  status: ('A' for Active; 'I' for Inactive)
REMARK    1  A    between atoms: O_2  and  C_11
REMARK    2  A    between atoms: N_5  and  C_12
REMARK    3  A    between atoms: N_6  and  C_23
REMARK    4  A    between atoms: N_8  and  C_21
REMARK    5  A    between atoms: C_9  and  C_11
REMARK    6  A    between atoms: C_10  and  C_13
REMARK    7  A    between atoms: C_12  and  C_16
REMARK    8  A    between atoms: C_25  and  C_26
REMARK    9  A    between atoms: C_25  and  C_27
REMARK   10  A    between atoms: C_25  and  C_28
REMARK                            x       y       z     vdW  Elec       q    Type
REMARK                         _______ _______ _______ _____ _____    ______ ____
ROOT
ATOM      1  O   UNL     1      16.543   9.735   6.150  0.00  0.00    -0.361 OA
ATOM      3  O   UNL     1      19.546  10.911   4.634  0.00  0.00    -0.273 OA
ATOM      5  N   UNL     1      18.083   9.255   3.891  0.00  0.00    -0.284 N 
ATOM      9  C   UNL     1      16.863   8.451   4.145  0.00  0.00    +0.135 C 
ATOM     10  C   UNL     1      15.851   9.232   5.007  0.00  0.00    +0.171 C 
ATOM     14  C   UNL     1      18.480  10.298   4.730  0.00  0.00    +0.242 C 
ATOM     15  C   UNL     1      17.471  10.726   5.776  0.00  0.00    +0.256 C 
ENDROOT
BRANCH  10  13
ATOM     13  C   UNL     1      14.697   8.397   5.521  0.00  0.00    -0.017 A 
ATOM     17  C   UNL     1      13.423   8.555   4.976  0.00  0.00    +0.008 A 
ATOM     18  C   UNL     1      14.909   7.467   6.540  0.00  0.00    +0.008 A 
ATOM     19  C   UNL     1      12.361   7.785   5.450  0.00  0.00    +0.023 A 
ATOM     20  C   UNL     1      13.847   6.697   7.014  0.00  0.00    +0.023 A 
ATOM     21  C   UNL     1      12.572   6.856   6.469  0.00  0.00    +0.033 A 
BRANCH  21   8
ATOM      4  O   UNL     1      10.158   7.650   8.060  0.00  0.00    -0.275 OA
ATOM      8  N   UNL     1      11.510   6.085   6.942  0.00  0.00    -0.285 N 
ATOM     26  C   UNL     1      10.394   6.505   7.685  0.00  0.00    +0.220 C 
ATOM     30  H   UNL     1      11.563   5.095   6.715  0.00  0.00    +0.155 HD
BRANCH  26  25
ATOM     25  C   UNL     1       9.450   5.343   8.009  0.00  0.00    +0.069 C 
ATOM     27  C   UNL     1       9.450   5.032   9.503  0.00  0.00    +0.017 C 
ATOM     28  C   UNL     1       9.848   4.105   7.206  0.00  0.00    +0.017 C 
ENDBRANCH  26  25
ENDBRANCH  21   8
ENDBRANCH  10  13
BRANCH   9  11
ATOM     11  C   UNL     1      16.201   7.960   2.849  0.00  0.00    +0.181 C 
BRANCH  11   2
ATOM      2  O   UNL     1      15.883   6.593   3.007  0.00  0.00    -0.393 OA
ATOM     29  H   UNL     1      14.938   6.491   2.804  0.00  0.00    +0.209 HD
ENDBRANCH  11   2
ENDBRANCH   9  11
BRANCH   5  12
ATOM     12  C   UNL     1      19.016   8.784   2.872  0.00  0.00    +0.182 C 
BRANCH  12  16
ATOM      6  N   UNL     1      21.057   7.331   2.683  0.00  0.00    -0.336 N 
ATOM      7  N   UNL     1      20.060   7.374   4.667  0.00  0.00    -0.239 NA
ATOM     16  C   UNL     1      20.030   7.831   3.435  0.00  0.00    +0.127 A 
ATOM     22  C   UNL     1      21.788   6.503   3.488  0.00  0.00    +0.106 A 
ATOM     23  C   UNL     1      21.334   7.615   1.295  0.00  0.00    +0.150 C 
ATOM     24  C   UNL     1      21.154   6.546   4.706  0.00  0.00    +0.130 A 
ENDBRANCH  12  16
ENDBRANCH   5  12
TORSDOF 7
ENDMDL
