MODEL 1
REMARK VINA RESULT:      -6.5      0.000      0.000
REMARK  Name = 45783455
REMARK  10 active torsions:
REMARK  status: ('A' for Active; 'I' for Inactive)
REMARK    1  A    between atoms: O_2  and  C_24
REMARK    2  A    between atoms: O_2  and  C_27
REMARK    3  A    between atoms: O_3  and  C_28
REMARK    4  A    between atoms: O_3  and  C_29
REMARK    5  A    between atoms: N_4  and  C_12
REMARK    6  A    between atoms: C_8  and  C_13
REMARK    7  A    between atoms: C_12  and  C_14
REMARK    8  A    between atoms: C_17  and  C_21
REMARK    9  A    between atoms: C_20  and  C_22
REMARK   10  A    between atoms: C_27  and  C_28
REMARK                            x       y       z     vdW  Elec       q    Type
REMARK                         _______ _______ _______ _____ _____    ______ ____
ROOT
ATOM      1  O   UNL     1      -3.988 -11.331  17.976  0.00  0.00    -0.336 OA
ATOM      5  N   UNL     1      -5.417 -10.743  16.354  0.00  0.00    -0.189 NA
ATOM      6  N   UNL     1      -5.211 -11.074  18.608  0.00  0.00    -0.054 NA
ATOM     13  C   UNL     1      -4.196 -11.113  16.651  0.00  0.00    +0.245 A 
ATOM     17  C   UNL     1      -6.002 -10.734  17.586  0.00  0.00    +0.221 A 
ENDROOT
BRANCH  17  21
ATOM      7  N   UNL     1      -8.149 -11.302  18.384  0.00  0.00    -0.252 NA
ATOM     21  C   UNL     1      -7.380 -10.378  17.763  0.00  0.00    +0.115 A 
ATOM     23  C   UNL     1      -7.850  -9.156  17.311  0.00  0.00    +0.077 A 
ATOM     24  C   UNL     1      -9.195  -8.863  17.508  0.00  0.00    +0.124 A 
ATOM     25  C   UNL     1      -9.450 -10.981  18.558  0.00  0.00    +0.115 A 
ATOM     26  C   UNL     1     -10.017  -9.786  18.143  0.00  0.00    +0.065 A 
BRANCH  24   2
ATOM      2  O   UNL     1      -9.704  -7.675  17.082  0.00  0.00    -0.490 OA
BRANCH   2  27
ATOM     27  C   UNL     1     -10.043  -7.571  15.699  0.00  0.00    +0.257 C 
BRANCH  27  28
ATOM     28  C   UNL     1     -10.565  -6.174  15.421  0.00  0.00    +0.200 C 
BRANCH  28   3
ATOM      3  O   UNL     1     -11.644  -5.899  16.306  0.00  0.00    -0.380 OA
ATOM     29  C   UNL     1     -12.853  -6.493  15.853  0.00  0.00    +0.194 C 
ENDBRANCH  28   3
ENDBRANCH  27  28
ENDBRANCH   2  27
ENDBRANCH  24   2
ENDBRANCH  17  21
BRANCH  13   8
ATOM      4  N   UNL     1      -3.170 -10.654  14.432  0.00  0.00    -0.287 NA
ATOM      8  C   UNL     1      -3.008 -11.326  15.736  0.00  0.00    +0.146 C 
ATOM      9  C   UNL     1      -1.702 -10.752  16.314  0.00  0.00    +0.030 C 
ATOM     10  C   UNL     1      -1.170  -9.814  15.239  0.00  0.00    +0.017 C 
ATOM     11  C   UNL     1      -1.821 -10.321  13.969  0.00  0.00    +0.085 C 
BRANCH   4  12
ATOM     12  C   UNL     1      -3.901 -11.455  13.458  0.00  0.00    +0.120 C 
BRANCH  12  14
ATOM     14  C   UNL     1      -4.526 -10.600  12.387  0.00  0.00    -0.033 A 
ATOM     15  C   UNL     1      -4.068 -10.686  11.072  0.00  0.00    +0.005 A 
ATOM     16  C   UNL     1      -5.560  -9.723  12.711  0.00  0.00    +0.005 A 
ATOM     18  C   UNL     1      -4.646  -9.893  10.080  0.00  0.00    +0.003 A 
ATOM     19  C   UNL     1      -6.137  -8.929  11.719  0.00  0.00    +0.003 A 
ATOM     20  C   UNL     1      -5.679  -9.014  10.403  0.00  0.00    -0.050 A 
ATOM     22  C   UNL     1      -6.295  -8.165   9.343  0.00  0.00    +0.044 C 
ENDBRANCH  12  14
ENDBRANCH   4  12
ENDBRANCH  13   8
TORSDOF 8
ENDMDL
MODEL 2
REMARK VINA RESULT:      -6.5     26.637     30.136
REMARK  Name = 45783455
REMARK  10 active torsions:
REMARK  status: ('A' for Active; 'I' for Inactive)
REMARK    1  A    between atoms: O_2  and  C_24
REMARK    2  A    between atoms: O_2  and  C_27
REMARK    3  A    between atoms: O_3  and  C_28
REMARK    4  A    between atoms: O_3  and  C_29
REMARK    5  A    between atoms: N_4  and  C_12
REMARK    6  A    between atoms: C_8  and  C_13
REMARK    7  A    between atoms: C_12  and  C_14
REMARK    8  A    between atoms: C_17  and  C_21
REMARK    9  A    between atoms: C_20  and  C_22
REMARK   10  A    between atoms: C_27  and  C_28
REMARK                            x       y       z     vdW  Elec       q    Type
REMARK                         _______ _______ _______ _____ _____    ______ ____
ROOT
ATOM      1  O   UNL     1      12.147   8.126  16.678  0.00  0.00    -0.336 OA
ATOM      5  N   UNL     1      13.478   9.614  17.692  0.00  0.00    -0.189 NA
ATOM      6  N   UNL     1      12.702   8.910  15.659  0.00  0.00    -0.054 NA
ATOM     13  C   UNL     1      12.655   8.607  17.843  0.00  0.00    +0.245 A 
ATOM     17  C   UNL     1      13.475   9.764  16.337  0.00  0.00    +0.221 A 
ENDROOT
BRANCH  17  21
ATOM      7  N   UNL     1      13.864  11.109  14.437  0.00  0.00    -0.252 NA
ATOM     21  C   UNL     1      14.255  10.778  15.689  0.00  0.00    +0.115 A 
ATOM     23  C   UNL     1      15.333  11.354  16.341  0.00  0.00    +0.077 A 
ATOM     24  C   UNL     1      16.055  12.333  15.666  0.00  0.00    +0.124 A 
ATOM     25  C   UNL     1      14.589  12.063  13.813  0.00  0.00    +0.115 A 
ATOM     26  C   UNL     1      15.682  12.700  14.379  0.00  0.00    +0.065 A 
BRANCH  24   2
ATOM      2  O   UNL     1      17.122  12.929  16.265  0.00  0.00    -0.490 OA
BRANCH   2  27
ATOM     27  C   UNL     1      18.306  13.080  15.483  0.00  0.00    +0.257 C 
BRANCH  27  28
ATOM     28  C   UNL     1      19.509  12.712  16.330  0.00  0.00    +0.200 C 
BRANCH  28   3
ATOM      3  O   UNL     1      20.238  11.681  15.676  0.00  0.00    -0.380 OA
ATOM     29  C   UNL     1      19.624  11.308  14.449  0.00  0.00    +0.194 C 
ENDBRANCH  28   3
ENDBRANCH  27  28
ENDBRANCH   2  27
ENDBRANCH  24   2
ENDBRANCH  17  21
BRANCH  13   8
ATOM      4  N   UNL     1      13.207   7.999  20.191  0.00  0.00    -0.287 NA
ATOM      8  C   UNL     1      12.202   7.918  19.113  0.00  0.00    +0.146 C 
ATOM      9  C   UNL     1      10.933   8.549  19.712  0.00  0.00    +0.030 C 
ATOM     10  C   UNL     1      11.301   8.899  21.147  0.00  0.00    +0.017 C 
ATOM     11  C   UNL     1      12.463   7.976  21.451  0.00  0.00    +0.085 C 
BRANCH   4  12
ATOM     12  C   UNL     1      14.208   6.942  20.126  0.00  0.00    +0.120 C 
BRANCH  12  14
ATOM     14  C   UNL     1      15.577   7.443  20.506  0.00  0.00    -0.033 A 
ATOM     15  C   UNL     1      15.849   8.812  20.481  0.00  0.00    +0.005 A 
ATOM     16  C   UNL     1      16.571   6.540  20.878  0.00  0.00    +0.005 A 
ATOM     18  C   UNL     1      17.117   9.276  20.830  0.00  0.00    +0.003 A 
ATOM     19  C   UNL     1      17.840   7.004  21.226  0.00  0.00    +0.003 A 
ATOM     20  C   UNL     1      18.113   8.373  21.202  0.00  0.00    -0.050 A 
ATOM     22  C   UNL     1      19.469   8.870  21.573  0.00  0.00    +0.044 C 
ENDBRANCH  12  14
ENDBRANCH   4  12
ENDBRANCH  13   8
TORSDOF 8
ENDMDL
MODEL 3
REMARK VINA RESULT:      -6.2     24.613     27.783
REMARK  Name = 45783455
REMARK  10 active torsions:
REMARK  status: ('A' for Active; 'I' for Inactive)
REMARK    1  A    between atoms: O_2  and  C_24
REMARK    2  A    between atoms: O_2  and  C_27
REMARK    3  A    between atoms: O_3  and  C_28
REMARK    4  A    between atoms: O_3  and  C_29
REMARK    5  A    between atoms: N_4  and  C_12
REMARK    6  A    between atoms: C_8  and  C_13
REMARK    7  A    between atoms: C_12  and  C_14
REMARK    8  A    between atoms: C_17  and  C_21
REMARK    9  A    between atoms: C_20  and  C_22
REMARK   10  A    between atoms: C_27  and  C_28
REMARK                            x       y       z     vdW  Elec       q    Type
REMARK                         _______ _______ _______ _____ _____    ______ ____
ROOT
ATOM      1  O   UNL     1      11.141   6.997   3.944  0.00  0.00    -0.336 OA
ATOM      5  N   UNL     1      10.939   4.784   3.659  0.00  0.00    -0.189 NA
ATOM      6  N   UNL     1      11.688   6.714   2.687  0.00  0.00    -0.054 NA
ATOM     13  C   UNL     1      10.723   5.806   4.449  0.00  0.00    +0.245 A 
ATOM     17  C   UNL     1      11.531   5.390   2.591  0.00  0.00    +0.221 A 
ENDROOT
BRANCH  17  21
ATOM      7  N   UNL     1      13.268   4.307   1.418  0.00  0.00    -0.252 NA
ATOM     21  C   UNL     1      11.958   4.644   1.443  0.00  0.00    +0.115 A 
ATOM     23  C   UNL     1      11.054   4.312   0.449  0.00  0.00    +0.077 A 
ATOM     24  C   UNL     1      11.522   3.588  -0.642  0.00  0.00    +0.124 A 
ATOM     25  C   UNL     1      13.687   3.604   0.342  0.00  0.00    +0.115 A 
ATOM     26  C   UNL     1      12.861   3.223  -0.704  0.00  0.00    +0.065 A 
BRANCH  24   2
ATOM      2  O   UNL     1      10.671   3.238  -1.645  0.00  0.00    -0.490 OA
BRANCH   2  27
ATOM     27  C   UNL     1      11.223   2.506  -2.740  0.00  0.00    +0.257 C 
BRANCH  27  28
ATOM     28  C   UNL     1      10.421   2.809  -3.991  0.00  0.00    +0.200 C 
BRANCH  28   3
ATOM      3  O   UNL     1       9.094   3.159  -3.617  0.00  0.00    -0.380 OA
ATOM     29  C   UNL     1       8.687   4.378  -4.224  0.00  0.00    +0.194 C 
ENDBRANCH  28   3
ENDBRANCH  27  28
ENDBRANCH   2  27
ENDBRANCH  24   2
ENDBRANCH  17  21
BRANCH  13   8
ATOM      4  N   UNL     1      10.600   6.944   6.658  0.00  0.00    -0.287 NA
ATOM      8  C   UNL     1      10.084   5.842   5.822  0.00  0.00    +0.146 C 
ATOM      9  C   UNL     1       8.563   6.074   5.764  0.00  0.00    +0.030 C 
ATOM     10  C   UNL     1       8.311   7.289   6.646  0.00  0.00    +0.017 C 
ATOM     11  C   UNL     1       9.514   7.316   7.566  0.00  0.00    +0.085 C 
BRANCH   4  12
ATOM     12  C   UNL     1      11.820   6.598   7.377  0.00  0.00    +0.120 C 
BRANCH  12  14
ATOM     14  C   UNL     1      12.967   7.496   6.996  0.00  0.00    -0.033 A 
ATOM     15  C   UNL     1      12.794   8.881   6.990  0.00  0.00    +0.005 A 
ATOM     16  C   UNL     1      14.199   6.945   6.647  0.00  0.00    +0.005 A 
ATOM     18  C   UNL     1      13.856   9.714   6.635  0.00  0.00    +0.003 A 
ATOM     19  C   UNL     1      15.260   7.777   6.291  0.00  0.00    +0.003 A 
ATOM     20  C   UNL     1      15.088   9.162   6.285  0.00  0.00    -0.050 A 
ATOM     22  C   UNL     1      16.222  10.053   5.904  0.00  0.00    +0.044 C 
ENDBRANCH  12  14
ENDBRANCH   4  12
ENDBRANCH  13   8
TORSDOF 8
ENDMDL
MODEL 4
REMARK VINA RESULT:      -6.0      2.714      4.652
REMARK  Name = 45783455
REMARK  10 active torsions:
REMARK  status: ('A' for Active; 'I' for Inactive)
REMARK    1  A    between atoms: O_2  and  C_24
REMARK    2  A    between atoms: O_2  and  C_27
REMARK    3  A    between atoms: O_3  and  C_28
REMARK    4  A    between atoms: O_3  and  C_29
REMARK    5  A    between atoms: N_4  and  C_12
REMARK    6  A    between atoms: C_8  and  C_13
REMARK    7  A    between atoms: C_12  and  C_14
REMARK    8  A    between atoms: C_17  and  C_21
REMARK    9  A    between atoms: C_20  and  C_22
REMARK   10  A    between atoms: C_27  and  C_28
REMARK                            x       y       z     vdW  Elec       q    Type
REMARK                         _______ _______ _______ _____ _____    ______ ____
ROOT
ATOM      1  O   UNL     1      -5.151  -9.712  15.801  0.00  0.00    -0.336 OA
ATOM      5  N   UNL     1      -5.295 -11.579  17.031  0.00  0.00    -0.189 NA
ATOM      6  N   UNL     1      -6.359  -9.624  16.503  0.00  0.00    -0.054 NA
ATOM     13  C   UNL     1      -4.587 -10.893  16.169  0.00  0.00    +0.245 A 
ATOM     17  C   UNL     1      -6.372 -10.761  17.206  0.00  0.00    +0.221 A 
ENDROOT
BRANCH  17  21
ATOM      7  N   UNL     1      -8.530 -10.300  18.041  0.00  0.00    -0.252 NA
ATOM     21  C   UNL     1      -7.447 -11.109  18.089  0.00  0.00    +0.115 A 
ATOM     23  C   UNL     1      -7.339 -12.211  18.921  0.00  0.00    +0.077 A 
ATOM     24  C   UNL     1      -8.411 -12.503  19.758  0.00  0.00    +0.124 A 
ATOM     25  C   UNL     1      -9.552 -10.615  18.869  0.00  0.00    +0.115 A 
ATOM     26  C   UNL     1      -9.542 -11.695  19.737  0.00  0.00    +0.065 A 
BRANCH  24   2
ATOM      2  O   UNL     1      -8.353 -13.575  20.593  0.00  0.00    -0.490 OA
BRANCH   2  27
ATOM     27  C   UNL     1      -9.472 -14.461  20.592  0.00  0.00    +0.257 C 
BRANCH  27  28
ATOM     28  C   UNL     1      -9.764 -14.890  22.018  0.00  0.00    +0.200 C 
BRANCH  28   3
ATOM      3  O   UNL     1      -8.556 -15.331  22.626  0.00  0.00    -0.380 OA
ATOM     29  C   UNL     1      -8.718 -15.524  24.024  0.00  0.00    +0.194 C 
ENDBRANCH  28   3
ENDBRANCH  27  28
ENDBRANCH   2  27
ENDBRANCH  24   2
ENDBRANCH  17  21
BRANCH  13   8
ATOM      4  N   UNL     1      -3.053 -10.557  14.240  0.00  0.00    -0.287 NA
ATOM      8  C   UNL     1      -3.251 -11.229  15.539  0.00  0.00    +0.146 C 
ATOM      9  C   UNL     1      -2.057 -10.778  16.399  0.00  0.00    +0.030 C 
ATOM     10  C   UNL     1      -1.212  -9.906  15.482  0.00  0.00    +0.017 C 
ATOM     11  C   UNL     1      -1.610 -10.360  14.093  0.00  0.00    +0.085 C 
BRANCH   4  12
ATOM     12  C   UNL     1      -3.623 -11.292  13.118  0.00  0.00    +0.120 C 
BRANCH  12  14
ATOM     14  C   UNL     1      -4.235 -10.370  12.097  0.00  0.00    -0.033 A 
ATOM     15  C   UNL     1      -5.504  -9.832  12.316  0.00  0.00    +0.005 A 
ATOM     16  C   UNL     1      -3.536 -10.057  10.932  0.00  0.00    +0.005 A 
ATOM     18  C   UNL     1      -6.072  -8.980  11.369  0.00  0.00    +0.003 A 
ATOM     19  C   UNL     1      -4.104  -9.206   9.984  0.00  0.00    +0.003 A 
ATOM     20  C   UNL     1      -5.373  -8.667  10.203  0.00  0.00    -0.050 A 
ATOM     22  C   UNL     1      -5.982  -7.757   9.191  0.00  0.00    +0.044 C 
ENDBRANCH  12  14
ENDBRANCH   4  12
ENDBRANCH  13   8
TORSDOF 8
ENDMDL
MODEL 5
REMARK VINA RESULT:      -5.9     20.849     24.423
REMARK  Name = 45783455
REMARK  10 active torsions:
REMARK  status: ('A' for Active; 'I' for Inactive)
REMARK    1  A    between atoms: O_2  and  C_24
REMARK    2  A    between atoms: O_2  and  C_27
REMARK    3  A    between atoms: O_3  and  C_28
REMARK    4  A    between atoms: O_3  and  C_29
REMARK    5  A    between atoms: N_4  and  C_12
REMARK    6  A    between atoms: C_8  and  C_13
REMARK    7  A    between atoms: C_12  and  C_14
REMARK    8  A    between atoms: C_17  and  C_21
REMARK    9  A    between atoms: C_20  and  C_22
REMARK   10  A    between atoms: C_27  and  C_28
REMARK                            x       y       z     vdW  Elec       q    Type
REMARK                         _______ _______ _______ _____ _____    ______ ____
ROOT
ATOM      1  O   UNL     1     -14.664   8.358  31.456  0.00  0.00    -0.336 OA
ATOM      5  N   UNL     1     -13.135   7.294  32.700  0.00  0.00    -0.189 NA
ATOM      6  N   UNL     1     -15.131   7.046  31.611  0.00  0.00    -0.054 NA
ATOM     13  C   UNL     1     -13.484   8.419  32.128  0.00  0.00    +0.245 A 
ATOM     17  C   UNL     1     -14.176   6.482  32.356  0.00  0.00    +0.221 A 
ENDROOT
BRANCH  17  21
ATOM      7  N   UNL     1     -14.757   4.889  33.997  0.00  0.00    -0.252 NA
ATOM     21  C   UNL     1     -14.230   5.111  32.770  0.00  0.00    +0.115 A 
ATOM     23  C   UNL     1     -13.762   4.109  31.936  0.00  0.00    +0.077 A 
ATOM     24  C   UNL     1     -13.838   2.796  32.389  0.00  0.00    +0.124 A 
ATOM     25  C   UNL     1     -14.815   3.602  34.402  0.00  0.00    +0.115 A 
ATOM     26  C   UNL     1     -14.374   2.529  33.643  0.00  0.00    +0.065 A 
BRANCH  24   2
ATOM      2  O   UNL     1     -13.391   1.777  31.606  0.00  0.00    -0.490 OA
BRANCH   2  27
ATOM     27  C   UNL     1     -13.874   1.728  30.263  0.00  0.00    +0.257 C 
BRANCH  27  28
ATOM     28  C   UNL     1     -13.919   0.283  29.806  0.00  0.00    +0.200 C 
BRANCH  28   3
ATOM      3  O   UNL     1     -15.113   0.069  29.062  0.00  0.00    -0.380 OA
ATOM     29  C   UNL     1     -16.086   1.066  29.344  0.00  0.00    +0.194 C 
ENDBRANCH  28   3
ENDBRANCH  27  28
ENDBRANCH   2  27
ENDBRANCH  24   2
ENDBRANCH  17  21
BRANCH  13   8
ATOM      4  N   UNL     1     -12.707  10.348  30.763  0.00  0.00    -0.287 NA
ATOM      8  C   UNL     1     -12.767   9.752  32.113  0.00  0.00    +0.146 C 
ATOM      9  C   UNL     1     -13.467  10.814  32.979  0.00  0.00    +0.030 C 
ATOM     10  C   UNL     1     -13.707  11.993  32.047  0.00  0.00    +0.017 C 
ATOM     11  C   UNL     1     -12.677  11.799  30.954  0.00  0.00    +0.085 C 
BRANCH   4  12
ATOM     12  C   UNL     1     -11.576   9.876  29.975  0.00  0.00    +0.120 C 
BRANCH  12  14
ATOM     14  C   UNL     1     -11.754  10.169  28.509  0.00  0.00    -0.033 A 
ATOM     15  C   UNL     1     -13.031  10.392  27.994  0.00  0.00    +0.005 A 
ATOM     16  C   UNL     1     -10.644  10.214  27.667  0.00  0.00    +0.005 A 
ATOM     18  C   UNL     1     -13.197  10.661  26.635  0.00  0.00    +0.003 A 
ATOM     19  C   UNL     1     -10.810  10.482  26.308  0.00  0.00    +0.003 A 
ATOM     20  C   UNL     1     -12.087  10.706  25.792  0.00  0.00    -0.050 A 
ATOM     22  C   UNL     1     -12.265  10.992  24.339  0.00  0.00    +0.044 C 
ENDBRANCH  12  14
ENDBRANCH   4  12
ENDBRANCH  13   8
TORSDOF 8
ENDMDL
MODEL 6
REMARK VINA RESULT:      -5.9     22.223     25.919
REMARK  Name = 45783455
REMARK  10 active torsions:
REMARK  status: ('A' for Active; 'I' for Inactive)
REMARK    1  A    between atoms: O_2  and  C_24
REMARK    2  A    between atoms: O_2  and  C_27
REMARK    3  A    between atoms: O_3  and  C_28
REMARK    4  A    between atoms: O_3  and  C_29
REMARK    5  A    between atoms: N_4  and  C_12
REMARK    6  A    between atoms: C_8  and  C_13
REMARK    7  A    between atoms: C_12  and  C_14
REMARK    8  A    between atoms: C_17  and  C_21
REMARK    9  A    between atoms: C_20  and  C_22
REMARK   10  A    between atoms: C_27  and  C_28
REMARK                            x       y       z     vdW  Elec       q    Type
REMARK                         _______ _______ _______ _____ _____    ______ ____
ROOT
ATOM      1  O   UNL     1     -15.155   8.433  33.194  0.00  0.00    -0.336 OA
ATOM      5  N   UNL     1     -13.462   7.187  32.420  0.00  0.00    -0.189 NA
ATOM      6  N   UNL     1     -15.508   7.100  33.439  0.00  0.00    -0.054 NA
ATOM     13  C   UNL     1     -13.937   8.396  32.592  0.00  0.00    +0.245 A 
ATOM     17  C   UNL     1     -14.459   6.427  32.956  0.00  0.00    +0.221 A 
ENDROOT
BRANCH  17  21
ATOM      7  N   UNL     1     -14.701   4.419  34.171  0.00  0.00    -0.252 NA
ATOM     21  C   UNL     1     -14.380   4.996  32.990  0.00  0.00    +0.115 A 
ATOM     23  C   UNL     1     -13.993   4.290  31.863  0.00  0.00    +0.077 A 
ATOM     24  C   UNL     1     -13.932   2.903  31.953  0.00  0.00    +0.124 A 
ATOM     25  C   UNL     1     -14.630   3.070  34.220  0.00  0.00    +0.115 A 
ATOM     26  C   UNL     1     -14.256   2.275  33.149  0.00  0.00    +0.065 A 
BRANCH  24   2
ATOM      2  O   UNL     1     -13.559   2.165  30.872  0.00  0.00    -0.490 OA
BRANCH   2  27
ATOM     27  C   UNL     1     -14.593   1.492  30.155  0.00  0.00    +0.257 C 
BRANCH  27  28
ATOM     28  C   UNL     1     -14.488   0.002  30.418  0.00  0.00    +0.200 C 
BRANCH  28   3
ATOM      3  O   UNL     1     -14.301  -0.675  29.181  0.00  0.00    -0.380 OA
ATOM     29  C   UNL     1     -13.067  -1.379  29.154  0.00  0.00    +0.194 C 
ENDBRANCH  28   3
ENDBRANCH  27  28
ENDBRANCH   2  27
ENDBRANCH  24   2
ENDBRANCH  17  21
BRANCH  13   8
ATOM      4  N   UNL     1     -12.014   9.951  32.859  0.00  0.00    -0.287 NA
ATOM      8  C   UNL     1     -13.326   9.730  32.219  0.00  0.00    +0.146 C 
ATOM      9  C   UNL     1     -13.052   9.859  30.710  0.00  0.00    +0.030 C 
ATOM     10  C   UNL     1     -11.576  10.212  30.602  0.00  0.00    +0.017 C 
ATOM     11  C   UNL     1     -11.253  10.814  31.954  0.00  0.00    +0.085 C 
BRANCH   4  12
ATOM     12  C   UNL     1     -12.115  10.516  34.199  0.00  0.00    +0.120 C 
BRANCH  12  14
ATOM     14  C   UNL     1     -11.622   9.556  35.249  0.00  0.00    -0.033 A 
ATOM     15  C   UNL     1     -12.492   8.611  35.792  0.00  0.00    +0.005 A 
ATOM     16  C   UNL     1     -10.297   9.615  35.681  0.00  0.00    +0.005 A 
ATOM     18  C   UNL     1     -12.037   7.723  36.767  0.00  0.00    +0.003 A 
ATOM     19  C   UNL     1      -9.842   8.728  36.657  0.00  0.00    +0.003 A 
ATOM     20  C   UNL     1     -10.712   7.782  37.200  0.00  0.00    -0.050 A 
ATOM     22  C   UNL     1     -10.226   6.834  38.243  0.00  0.00    +0.044 C 
ENDBRANCH  12  14
ENDBRANCH   4  12
ENDBRANCH  13   8
TORSDOF 8
ENDMDL
MODEL 7
REMARK VINA RESULT:      -5.9      1.790      2.230
REMARK  Name = 45783455
REMARK  10 active torsions:
REMARK  status: ('A' for Active; 'I' for Inactive)
REMARK    1  A    between atoms: O_2  and  C_24
REMARK    2  A    between atoms: O_2  and  C_27
REMARK    3  A    between atoms: O_3  and  C_28
REMARK    4  A    between atoms: O_3  and  C_29
REMARK    5  A    between atoms: N_4  and  C_12
REMARK    6  A    between atoms: C_8  and  C_13
REMARK    7  A    between atoms: C_12  and  C_14
REMARK    8  A    between atoms: C_17  and  C_21
REMARK    9  A    between atoms: C_20  and  C_22
REMARK   10  A    between atoms: C_27  and  C_28
REMARK                            x       y       z     vdW  Elec       q    Type
REMARK                         _______ _______ _______ _____ _____    ______ ____
ROOT
ATOM      1  O   UNL     1      -5.000  -9.759  15.972  0.00  0.00    -0.336 OA
ATOM      5  N   UNL     1      -5.137 -11.708  17.067  0.00  0.00    -0.189 NA
ATOM      6  N   UNL     1      -6.196  -9.715  16.699  0.00  0.00    -0.054 NA
ATOM     13  C   UNL     1      -4.438 -10.966  16.244  0.00  0.00    +0.245 A 
ATOM     17  C   UNL     1      -6.205 -10.899  17.318  0.00  0.00    +0.221 A 
ENDROOT
BRANCH  17  21
ATOM      7  N   UNL     1      -7.011 -12.383  18.966  0.00  0.00    -0.252 NA
ATOM     21  C   UNL     1      -7.268 -11.304  18.192  0.00  0.00    +0.115 A 
ATOM     23  C   UNL     1      -8.464 -10.606  18.208  0.00  0.00    +0.077 A 
ATOM     24  C   UNL     1      -9.461 -11.042  19.074  0.00  0.00    +0.124 A 
ATOM     25  C   UNL     1      -8.003 -12.778  19.795  0.00  0.00    +0.115 A 
ATOM     26  C   UNL     1      -9.234 -12.147  19.886  0.00  0.00    +0.065 A 
BRANCH  24   2
ATOM      2  O   UNL     1     -10.654 -10.389  19.127  0.00  0.00    -0.490 OA
BRANCH   2  27
ATOM     27  C   UNL     1     -10.822  -9.271  18.256  0.00  0.00    +0.257 C 
BRANCH  27  28
ATOM     28  C   UNL     1     -12.043  -9.502  17.386  0.00  0.00    +0.200 C 
BRANCH  28   3
ATOM      3  O   UNL     1     -11.716 -10.442  16.369  0.00  0.00    -0.380 OA
ATOM     29  C   UNL     1     -11.563  -9.808  15.106  0.00  0.00    +0.194 C 
ENDBRANCH  28   3
ENDBRANCH  27  28
ENDBRANCH   2  27
ENDBRANCH  24   2
ENDBRANCH  17  21
BRANCH  13   8
ATOM      4  N   UNL     1      -2.981 -10.588  14.264  0.00  0.00    -0.287 NA
ATOM      8  C   UNL     1      -3.115 -11.263  15.570  0.00  0.00    +0.146 C 
ATOM      9  C   UNL     1      -1.907 -10.774  16.389  0.00  0.00    +0.030 C 
ATOM     10  C   UNL     1      -1.120  -9.880  15.442  0.00  0.00    +0.017 C 
ATOM     11  C   UNL     1      -1.551 -10.348  14.068  0.00  0.00    +0.085 C 
BRANCH   4  12
ATOM     12  C   UNL     1      -3.567 -11.343  13.163  0.00  0.00    +0.120 C 
BRANCH  12  14
ATOM     14  C   UNL     1      -4.214 -10.439  12.147  0.00  0.00    -0.033 A 
ATOM     15  C   UNL     1      -5.447  -9.849  12.426  0.00  0.00    +0.005 A 
ATOM     16  C   UNL     1      -3.583 -10.196  10.928  0.00  0.00    +0.005 A 
ATOM     18  C   UNL     1      -6.049  -9.014  11.483  0.00  0.00    +0.003 A 
ATOM     19  C   UNL     1      -4.185  -9.362   9.985  0.00  0.00    +0.003 A 
ATOM     20  C   UNL     1      -5.418  -8.771  10.263  0.00  0.00    -0.050 A 
ATOM     22  C   UNL     1      -6.063  -7.880   9.256  0.00  0.00    +0.044 C 
ENDBRANCH  12  14
ENDBRANCH   4  12
ENDBRANCH  13   8
TORSDOF 8
ENDMDL
MODEL 8
REMARK VINA RESULT:      -5.8      2.759      7.231
REMARK  Name = 45783455
REMARK  10 active torsions:
REMARK  status: ('A' for Active; 'I' for Inactive)
REMARK    1  A    between atoms: O_2  and  C_24
REMARK    2  A    between atoms: O_2  and  C_27
REMARK    3  A    between atoms: O_3  and  C_28
REMARK    4  A    between atoms: O_3  and  C_29
REMARK    5  A    between atoms: N_4  and  C_12
REMARK    6  A    between atoms: C_8  and  C_13
REMARK    7  A    between atoms: C_12  and  C_14
REMARK    8  A    between atoms: C_17  and  C_21
REMARK    9  A    between atoms: C_20  and  C_22
REMARK   10  A    between atoms: C_27  and  C_28
REMARK                            x       y       z     vdW  Elec       q    Type
REMARK                         _______ _______ _______ _____ _____    ______ ____
ROOT
ATOM      1  O   UNL     1      -4.651 -12.341  16.469  0.00  0.00    -0.336 OA
ATOM      5  N   UNL     1      -4.720 -10.256  15.654  0.00  0.00    -0.189 NA
ATOM      6  N   UNL     1      -4.061 -12.399  15.200  0.00  0.00    -0.054 NA
ATOM     13  C   UNL     1      -5.011 -11.044  16.658  0.00  0.00    +0.245 A 
ATOM     17  C   UNL     1      -4.138 -11.131  14.785  0.00  0.00    +0.221 A 
ENDROOT
BRANCH  17  21
ATOM      7  N   UNL     1      -2.310 -10.826  13.324  0.00  0.00    -0.252 NA
ATOM     21  C   UNL     1      -3.645 -10.708  13.506  0.00  0.00    +0.115 A 
ATOM     23  C   UNL     1      -4.517 -10.216  12.549  0.00  0.00    +0.077 A 
ATOM     24  C   UNL     1      -3.986  -9.819  11.327  0.00  0.00    +0.124 A 
ATOM     25  C   UNL     1      -1.830 -10.430  12.124  0.00  0.00    +0.115 A 
ATOM     26  C   UNL     1      -2.618  -9.926  11.102  0.00  0.00    +0.065 A 
BRANCH  24   2
ATOM      2  O   UNL     1      -4.802  -9.329  10.354  0.00  0.00    -0.490 OA
BRANCH   2  27
ATOM     27  C   UNL     1      -4.266  -9.254   9.033  0.00  0.00    +0.257 C 
BRANCH  27  28
ATOM     28  C   UNL     1      -5.237  -9.907   8.068  0.00  0.00    +0.200 C 
BRANCH  28   3
ATOM      3  O   UNL     1      -6.553  -9.811   8.600  0.00  0.00    -0.380 OA
ATOM     29  C   UNL     1      -7.444  -9.201   7.676  0.00  0.00    +0.194 C 
ENDBRANCH  28   3
ENDBRANCH  27  28
ENDBRANCH   2  27
ENDBRANCH  24   2
ENDBRANCH  17  21
BRANCH  13   8
ATOM      4  N   UNL     1      -7.140 -10.528  17.837  0.00  0.00    -0.287 NA
ATOM      8  C   UNL     1      -5.682 -10.715  17.975  0.00  0.00    +0.146 C 
ATOM      9  C   UNL     1      -5.528 -11.836  19.018  0.00  0.00    +0.030 C 
ATOM     10  C   UNL     1      -6.946 -12.172  19.454  0.00  0.00    +0.017 C 
ATOM     11  C   UNL     1      -7.729 -10.920  19.119  0.00  0.00    +0.085 C 
BRANCH   4  12
ATOM     12  C   UNL     1      -7.512  -9.172  17.455  0.00  0.00    +0.120 C 
BRANCH  12  14
ATOM     14  C   UNL     1      -8.946  -9.092  17.002  0.00  0.00    -0.033 A 
ATOM     15  C   UNL     1      -9.452 -10.047  16.119  0.00  0.00    +0.005 A 
ATOM     16  C   UNL     1      -9.767  -8.064  17.463  0.00  0.00    +0.005 A 
ATOM     18  C   UNL     1     -10.779  -9.972  15.697  0.00  0.00    +0.003 A 
ATOM     19  C   UNL     1     -11.095  -7.989  17.041  0.00  0.00    +0.003 A 
ATOM     20  C   UNL     1     -11.601  -8.943  16.157  0.00  0.00    -0.050 A 
ATOM     22  C   UNL     1     -13.020  -8.863  15.705  0.00  0.00    +0.044 C 
ENDBRANCH  12  14
ENDBRANCH   4  12
ENDBRANCH  13   8
TORSDOF 8
ENDMDL
MODEL 9
REMARK VINA RESULT:      -5.7     26.571     30.143
REMARK  Name = 45783455
REMARK  10 active torsions:
REMARK  status: ('A' for Active; 'I' for Inactive)
REMARK    1  A    between atoms: O_2  and  C_24
REMARK    2  A    between atoms: O_2  and  C_27
REMARK    3  A    between atoms: O_3  and  C_28
REMARK    4  A    between atoms: O_3  and  C_29
REMARK    5  A    between atoms: N_4  and  C_12
REMARK    6  A    between atoms: C_8  and  C_13
REMARK    7  A    between atoms: C_12  and  C_14
REMARK    8  A    between atoms: C_17  and  C_21
REMARK    9  A    between atoms: C_20  and  C_22
REMARK   10  A    between atoms: C_27  and  C_28
REMARK                            x       y       z     vdW  Elec       q    Type
REMARK                         _______ _______ _______ _____ _____    ______ ____
ROOT
ATOM      1  O   UNL     1      15.356   9.746  21.486  0.00  0.00    -0.336 OA
ATOM      5  N   UNL     1      15.294   7.565  20.982  0.00  0.00    -0.189 NA
ATOM      6  N   UNL     1      16.689   9.332  21.383  0.00  0.00    -0.054 NA
ATOM     13  C   UNL     1      14.599   8.645  21.235  0.00  0.00    +0.245 A 
ATOM     17  C   UNL     1      16.570   8.035  21.084  0.00  0.00    +0.221 A 
ENDROOT
BRANCH  17  21
ATOM      7  N   UNL     1      17.552   6.211  19.955  0.00  0.00    -0.252 NA
ATOM     21  C   UNL     1      17.706   7.183  20.882  0.00  0.00    +0.115 A 
ATOM     23  C   UNL     1      18.865   7.379  21.614  0.00  0.00    +0.077 A 
ATOM     24  C   UNL     1      19.936   6.523  21.379  0.00  0.00    +0.124 A 
ATOM     25  C   UNL     1      18.613   5.398  19.754  0.00  0.00    +0.115 A 
ATOM     26  C   UNL     1      19.816   5.512  20.433  0.00  0.00    +0.065 A 
BRANCH  24   2
ATOM      2  O   UNL     1      21.097   6.675  22.072  0.00  0.00    -0.490 OA
BRANCH   2  27
ATOM     27  C   UNL     1      21.838   5.492  22.367  0.00  0.00    +0.257 C 
BRANCH  27  28
ATOM     28  C   UNL     1      22.435   5.615  23.756  0.00  0.00    +0.200 C 
BRANCH  28   3
ATOM      3  O   UNL     1      21.395   5.902  24.683  0.00  0.00    -0.380 OA
ATOM     29  C   UNL     1      21.908   6.114  25.991  0.00  0.00    +0.194 C 
ENDBRANCH  28   3
ENDBRANCH  27  28
ENDBRANCH   2  27
ENDBRANCH  24   2
ENDBRANCH  17  21
BRANCH  13   8
ATOM      4  N   UNL     1      12.499   8.976  19.944  0.00  0.00    -0.287 NA
ATOM      8  C   UNL     1      13.097   8.832  21.286  0.00  0.00    +0.146 C 
ATOM      9  C   UNL     1      12.369   7.629  21.912  0.00  0.00    +0.030 C 
ATOM     10  C   UNL     1      11.340   7.203  20.876  0.00  0.00    +0.017 C 
ATOM     11  C   UNL     1      11.136   8.450  20.041  0.00  0.00    +0.085 C 
BRANCH   4  12
ATOM     12  C   UNL     1      12.524  10.345  19.446  0.00  0.00    +0.120 C 
BRANCH  12  14
ATOM     14  C   UNL     1      13.317  10.463  18.171  0.00  0.00    -0.033 A 
ATOM     15  C   UNL     1      13.041   9.613  17.099  0.00  0.00    +0.005 A 
ATOM     16  C   UNL     1      14.326  11.418  18.063  0.00  0.00    +0.005 A 
ATOM     18  C   UNL     1      13.777   9.720  15.918  0.00  0.00    +0.003 A 
ATOM     19  C   UNL     1      15.063  11.524  16.883  0.00  0.00    +0.003 A 
ATOM     20  C   UNL     1      14.788  10.675  15.810  0.00  0.00    -0.050 A 
ATOM     22  C   UNL     1      15.575  10.788  14.549  0.00  0.00    +0.044 C 
ENDBRANCH  12  14
ENDBRANCH   4  12
ENDBRANCH  13   8
TORSDOF 8
ENDMDL
MODEL 10
REMARK VINA RESULT:      -5.7      2.507      8.156
REMARK  Name = 45783455
REMARK  10 active torsions:
REMARK  status: ('A' for Active; 'I' for Inactive)
REMARK    1  A    between atoms: O_2  and  C_24
REMARK    2  A    between atoms: O_2  and  C_27
REMARK    3  A    between atoms: O_3  and  C_28
REMARK    4  A    between atoms: O_3  and  C_29
REMARK    5  A    between atoms: N_4  and  C_12
REMARK    6  A    between atoms: C_8  and  C_13
REMARK    7  A    between atoms: C_12  and  C_14
REMARK    8  A    between atoms: C_17  and  C_21
REMARK    9  A    between atoms: C_20  and  C_22
REMARK   10  A    between atoms: C_27  and  C_28
REMARK                            x       y       z     vdW  Elec       q    Type
REMARK                         _______ _______ _______ _____ _____    ______ ____
ROOT
ATOM      1  O   UNL     1      -8.960 -11.401  14.432  0.00  0.00    -0.336 OA
ATOM      5  N   UNL     1      -7.848  -9.484  14.103  0.00  0.00    -0.189 NA
ATOM      6  N   UNL     1      -7.901 -11.707  13.568  0.00  0.00    -0.054 NA
ATOM     13  C   UNL     1      -8.856 -10.072  14.698  0.00  0.00    +0.245 A 
ATOM     17  C   UNL     1      -7.292 -10.527  13.423  0.00  0.00    +0.221 A 
ENDROOT
BRANCH  17  21
ATOM      7  N   UNL     1      -6.126  -9.260  11.809  0.00  0.00    -0.252 NA
ATOM     21  C   UNL     1      -6.128 -10.355  12.602  0.00  0.00    +0.115 A 
ATOM     23  C   UNL     1      -5.096 -11.278  12.651  0.00  0.00    +0.077 A 
ATOM     24  C   UNL     1      -3.992 -11.064  11.834  0.00  0.00    +0.124 A 
ATOM     25  C   UNL     1      -5.036  -9.084  11.030  0.00  0.00    +0.115 A 
ATOM     26  C   UNL     1      -3.953  -9.948  11.006  0.00  0.00    +0.065 A 
BRANCH  24   2
ATOM      2  O   UNL     1      -2.952 -11.942  11.847  0.00  0.00    -0.490 OA
BRANCH   2  27
ATOM     27  C   UNL     1      -1.823 -11.601  12.651  0.00  0.00    +0.257 C 
BRANCH  27  28
ATOM     28  C   UNL     1      -1.821 -12.470  13.894  0.00  0.00    +0.200 C 
BRANCH  28   3
ATOM      3  O   UNL     1      -1.433 -11.680  15.011  0.00  0.00    -0.380 OA
ATOM     29  C   UNL     1      -2.524 -10.922  15.516  0.00  0.00    +0.194 C 
ENDBRANCH  28   3
ENDBRANCH  27  28
ENDBRANCH   2  27
ENDBRANCH  24   2
ENDBRANCH  17  21
BRANCH  13   8
ATOM      4  N   UNL     1      -9.354  -9.148  16.953  0.00  0.00    -0.287 NA
ATOM      8  C   UNL     1      -9.900  -9.485  15.624  0.00  0.00    +0.146 C 
ATOM      9  C   UNL     1     -10.489  -8.164  15.097  0.00  0.00    +0.030 C 
ATOM     10  C   UNL     1     -10.282  -7.159  16.220  0.00  0.00    +0.017 C 
ATOM     11  C   UNL     1     -10.149  -8.026  17.455  0.00  0.00    +0.085 C 
BRANCH   4  12
ATOM     12  C   UNL     1      -9.352 -10.275  17.878  0.00  0.00    +0.120 C 
BRANCH  12  14
ATOM     14  C   UNL     1      -7.953 -10.715  18.221  0.00  0.00    -0.033 A 
ATOM     15  C   UNL     1      -6.858 -10.037  17.683  0.00  0.00    +0.005 A 
ATOM     16  C   UNL     1      -7.753 -11.801  19.072  0.00  0.00    +0.005 A 
ATOM     18  C   UNL     1      -5.562 -10.446  17.998  0.00  0.00    +0.003 A 
ATOM     19  C   UNL     1      -6.457 -12.211  19.386  0.00  0.00    +0.003 A 
ATOM     20  C   UNL     1      -5.361 -11.533  18.849  0.00  0.00    -0.050 A 
ATOM     22  C   UNL     1      -3.976 -11.971  19.184  0.00  0.00    +0.044 C 
ENDBRANCH  12  14
ENDBRANCH   4  12
ENDBRANCH  13   8
TORSDOF 8
ENDMDL
