REMARK  Name = 45783501
REMARK  12 active torsions:
REMARK  status: ('A' for Active; 'I' for Inactive)
REMARK    1  A    between atoms: O_2  and  C_17
REMARK    2  A    between atoms: O_3  and  C_23
REMARK    3  A    between atoms: O_3  and  C_28
REMARK    4  A    between atoms: O_4  and  C_30
REMARK    5  A    between atoms: O_4  and  C_31
REMARK    6  A    between atoms: N_5  and  C_14
REMARK    7  A    between atoms: N_9  and  C_27
REMARK    8  A    between atoms: N_9  and  C_29
REMARK    9  A    between atoms: C_10  and  C_15
REMARK   10  A    between atoms: C_14  and  C_16
REMARK   11  A    between atoms: C_19  and  C_22
REMARK   12  A    between atoms: C_29  and  C_30
REMARK                            x       y       z     vdW  Elec       q    Type
REMARK                         _______ _______ _______ _____ _____    ______ ____
ROOT
ATOM      1  O   UNL     1      -2.377  -1.774   1.928  0.00  0.00    -0.336 OA
ATOM      6  N   UNL     1      -1.476  -1.162  -0.029  0.00  0.00    -0.190 NA
ATOM      7  N   UNL     1      -0.989  -1.792   2.116  0.00  0.00    -0.056 NA
ATOM     15  C   UNL     1      -2.577  -1.393   0.639  0.00  0.00    +0.245 A 
ATOM     19  C   UNL     1      -0.528  -1.420   0.918  0.00  0.00    +0.204 A 
ENDROOT
BRANCH  19  22
ATOM      8  N   UNL     1       3.159  -1.465   1.405  0.00  0.00    -0.240 NA
ATOM     22  C   UNL     1       0.873  -1.297   0.635  0.00  0.00    +0.041 A 
ATOM     24  C   UNL     1       1.318  -0.909  -0.624  0.00  0.00    +0.016 A 
ATOM     25  C   UNL     1       1.825  -1.561   1.606  0.00  0.00    +0.124 A 
ATOM     26  C   UNL     1       2.683  -0.798  -0.869  0.00  0.00    +0.044 A 
ATOM     27  C   UNL     1       3.554  -1.085   0.170  0.00  0.00    +0.119 A 
BRANCH  27   9
ATOM      9  N   UNL     1       4.940  -0.969  -0.096  0.00  0.00    -0.327 N 
ATOM     33  H   UNL     1       5.567  -1.178   0.673  0.00  0.00    +0.148 HD
BRANCH   9  29
ATOM     29  C   UNL     1       5.451  -0.576  -1.369  0.00  0.00    +0.131 C 
BRANCH  29  30
ATOM     30  C   UNL     1       6.970  -0.580  -1.344  0.00  0.00    +0.178 C 
BRANCH  30   4
ATOM      4  O   UNL     1       7.430   0.358  -0.379  0.00  0.00    -0.381 OA
ATOM     31  C   UNL     1       8.849   0.394  -0.323  0.00  0.00    +0.194 C 
ENDBRANCH  30   4
ENDBRANCH  29  30
ENDBRANCH   9  29
ENDBRANCH  27   9
ENDBRANCH  19  22
BRANCH  15  10
ATOM      5  N   UNL     1      -4.200  -0.318  -0.911  0.00  0.00    -0.287 NA
ATOM     10  C   UNL     1      -4.017  -1.295   0.181  0.00  0.00    +0.146 C 
ATOM     11  C   UNL     1      -4.552  -2.622  -0.387  0.00  0.00    +0.030 C 
ATOM     12  C   UNL     1      -5.068  -2.280  -1.778  0.00  0.00    +0.017 C 
ATOM     13  C   UNL     1      -5.336  -0.790  -1.702  0.00  0.00    +0.085 C 
BRANCH   5  14
ATOM     14  C   UNL     1      -4.391   1.046  -0.436  0.00  0.00    +0.124 C 
BRANCH  14  16
ATOM     16  C   UNL     1      -3.087   1.696  -0.058  0.00  0.00    +0.008 A 
ATOM     17  C   UNL     1      -2.061   1.832  -0.993  0.00  0.00    +0.125 A 
ATOM     18  C   UNL     1      -2.912   2.166   1.244  0.00  0.00    +0.012 A 
ATOM     20  C   UNL     1      -0.859   2.437  -0.626  0.00  0.00    +0.091 A 
ATOM     21  C   UNL     1      -1.710   2.771   1.611  0.00  0.00    +0.046 A 
ATOM     23  C   UNL     1      -0.683   2.907   0.676  0.00  0.00    +0.124 A 
BRANCH  17   2
ATOM      2  O   UNL     1      -2.216   1.378  -2.268  0.00  0.00    -0.506 OA
ATOM     32  H   UNL     1      -1.401   1.549  -2.771  0.00  0.00    +0.292 HD
ENDBRANCH  17   2
BRANCH  23   3
ATOM      3  O   UNL     1       0.489   3.498   1.034  0.00  0.00    -0.495 OA
ATOM     28  C   UNL     1       1.497   3.604   0.029  0.00  0.00    +0.277 C 
ENDBRANCH  23   3
ENDBRANCH  14  16
ENDBRANCH   5  14
ENDBRANCH  15  10
TORSDOF 10
