MODEL 1
REMARK VINA RESULT:      -7.4      0.000      0.000
REMARK  Name = 51138104
REMARK  10 active torsions:
REMARK  status: ('A' for Active; 'I' for Inactive)
REMARK    1  A    between atoms: N_4  and  C_7
REMARK    2  A    between atoms: N_5  and  C_24
REMARK    3  A    between atoms: C_8  and  C_17
REMARK    4  A    between atoms: C_11  and  C_18
REMARK    5  A    between atoms: C_17  and  C_20
REMARK    6  A    between atoms: C_20  and  C_26
REMARK    7  A    between atoms: C_20  and  C_27
REMARK    8  A    between atoms: C_24  and  C_28
REMARK    9  A    between atoms: C_29  and  C_31
REMARK   10  A    between atoms: C_30  and  C_32
REMARK                            x       y       z     vdW  Elec       q    Type
REMARK                         _______ _______ _______ _____ _____    ______ ____
ROOT
ATOM      3  N   UNL     1      19.286   8.611  21.713  0.00  0.00    -0.299 NA
ATOM      5  N   UNL     1      15.163   7.628  18.967  0.00  0.00    -0.342 N 
ATOM      8  C   UNL     1      18.375   9.740  21.944  0.00  0.00    +0.085 C 
ATOM     11  C   UNL     1      18.725   7.304  22.027  0.00  0.00    +0.145 C 
ATOM     13  C   UNL     1      18.183   6.612  20.778  0.00  0.00    +0.065 C 
ATOM     14  C   UNL     1      17.115   9.773  21.073  0.00  0.00    -0.021 A 
ATOM     15  C   UNL     1      16.600   8.668  20.335  0.00  0.00    +0.008 A 
ATOM     16  C   UNL     1      17.007   7.299  20.168  0.00  0.00    -0.020 A 
ATOM     19  C   UNL     1      15.428   8.826  19.587  0.00  0.00    +0.050 A 
ATOM     21  C   UNL     1      16.103   6.702  19.314  0.00  0.00    +0.091 A 
ATOM     22  C   UNL     1      16.342  10.961  21.043  0.00  0.00    +0.006 A 
ATOM     23  C   UNL     1      14.705  10.020  19.533  0.00  0.00    +0.026 A 
ATOM     25  C   UNL     1      15.177  11.085  20.287  0.00  0.00    +0.002 A 
ATOM     33  H   UNL     1      19.661   8.632  20.765  0.00  0.00    +0.123 HD
ENDROOT
BRANCH  11  18
ATOM      1  O   UNL     1      20.210   6.592  23.751  0.00  0.00    -0.274 OA
ATOM      4  N   UNL     1      20.465   5.682  21.630  0.00  0.00    -0.311 N 
ATOM     18  C   UNL     1      19.870   6.505  22.572  0.00  0.00    +0.231 C 
ATOM     34  H   UNL     1      20.095   5.692  20.683  0.00  0.00    +0.149 HD
BRANCH   4   7
ATOM      7  C   UNL     1      21.602   4.801  21.956  0.00  0.00    +0.073 C 
ATOM      9  C   UNL     1      22.919   5.176  21.247  0.00  0.00    +0.022 C 
ATOM     10  C   UNL     1      21.634   3.484  21.154  0.00  0.00    +0.022 C 
ATOM     12  C   UNL     1      23.164   3.664  21.068  0.00  0.00    +0.004 C 
ENDBRANCH   4   7
ENDBRANCH  11  18
BRANCH   8  17
ATOM     17  C   UNL     1      19.254  10.991  21.758  0.00  0.00    +0.026 C 
BRANCH  17  20
ATOM     20  C   UNL     1      19.965  11.028  20.402  0.00  0.00    -0.015 C 
ATOM     26  C   UNL     1      21.474  11.139  20.627  0.00  0.00    +0.007 C 
ATOM     27  C   UNL     1      19.487  12.180  19.518  0.00  0.00    +0.007 C 
ENDBRANCH  17  20
ENDBRANCH   8  17
BRANCH   5  24
ATOM     24  C   UNL     1      14.044   7.362  18.088  0.00  0.00    +0.162 C 
BRANCH  24  28
ATOM      2  O   UNL     1      11.000   7.904  20.116  0.00  0.00    -0.359 OA
ATOM      6  N   UNL     1      10.605   8.547  18.948  0.00  0.00    -0.083 NA
ATOM     28  C   UNL     1      12.709   7.711  18.698  0.00  0.00    +0.037 A 
ATOM     29  C   UNL     1      12.254   7.411  19.955  0.00  0.00    +0.139 A 
ATOM     30  C   UNL     1      11.643   8.419  18.117  0.00  0.00    +0.086 A 
ATOM     31  C   UNL     1      12.826   6.697  21.104  0.00  0.00    +0.089 C 
ATOM     32  C   UNL     1      11.566   8.995  16.763  0.00  0.00    +0.069 C 
ENDBRANCH  24  28
ENDBRANCH   5  24
TORSDOF 6
ENDMDL
MODEL 2
REMARK VINA RESULT:      -7.3     28.296     30.930
REMARK  Name = 51138104
REMARK  10 active torsions:
REMARK  status: ('A' for Active; 'I' for Inactive)
REMARK    1  A    between atoms: N_4  and  C_7
REMARK    2  A    between atoms: N_5  and  C_24
REMARK    3  A    between atoms: C_8  and  C_17
REMARK    4  A    between atoms: C_11  and  C_18
REMARK    5  A    between atoms: C_17  and  C_20
REMARK    6  A    between atoms: C_20  and  C_26
REMARK    7  A    between atoms: C_20  and  C_27
REMARK    8  A    between atoms: C_24  and  C_28
REMARK    9  A    between atoms: C_29  and  C_31
REMARK   10  A    between atoms: C_30  and  C_32
REMARK                            x       y       z     vdW  Elec       q    Type
REMARK                         _______ _______ _______ _____ _____    ______ ____
ROOT
ATOM      3  N   UNL     1      -6.916 -10.713  16.516  0.00  0.00    -0.299 NA
ATOM      5  N   UNL     1      -4.249 -10.118  12.269  0.00  0.00    -0.342 N 
ATOM      8  C   UNL     1      -5.510 -10.652  16.934  0.00  0.00    +0.085 C 
ATOM     11  C   UNL     1      -7.372  -9.564  15.746  0.00  0.00    +0.145 C 
ATOM     13  C   UNL     1      -7.323  -9.839  14.245  0.00  0.00    +0.065 C 
ATOM     14  C   UNL     1      -4.474 -10.657  15.805  0.00  0.00    -0.021 A 
ATOM     15  C   UNL     1      -4.753 -10.378  14.436  0.00  0.00    +0.008 A 
ATOM     16  C   UNL     1      -5.942 -10.024  13.709  0.00  0.00    -0.020 A 
ATOM     19  C   UNL     1      -3.711 -10.402  13.502  0.00  0.00    +0.050 A 
ATOM     21  C   UNL     1      -5.587  -9.884  12.383  0.00  0.00    +0.091 A 
ATOM     22  C   UNL     1      -3.113 -10.878  16.134  0.00  0.00    +0.006 A 
ATOM     23  C   UNL     1      -2.382 -10.668  13.839  0.00  0.00    +0.026 A 
ATOM     25  C   UNL     1      -2.098 -10.894  15.179  0.00  0.00    +0.002 A 
ATOM     33  H   UNL     1      -7.113 -11.586  16.026  0.00  0.00    +0.123 HD
ENDROOT
BRANCH  11  18
ATOM      1  O   UNL     1      -9.434 -10.235  16.736  0.00  0.00    -0.274 OA
ATOM      4  N   UNL     1      -9.285  -8.098  15.840  0.00  0.00    -0.311 N 
ATOM     18  C   UNL     1      -8.797  -9.355  16.160  0.00  0.00    +0.231 C 
ATOM     34  H   UNL     1      -8.662  -7.449  15.364  0.00  0.00    +0.149 HD
BRANCH   4   7
ATOM      7  C   UNL     1     -10.660  -7.677  16.167  0.00  0.00    +0.073 C 
ATOM      9  C   UNL     1     -11.686  -7.933  15.044  0.00  0.00    +0.022 C 
ATOM     10  C   UNL     1     -10.927  -6.171  15.963  0.00  0.00    +0.022 C 
ATOM     12  C   UNL     1     -12.311  -6.571  15.410  0.00  0.00    +0.004 C 
ENDBRANCH   4   7
ENDBRANCH  11  18
BRANCH   8  17
ATOM     17  C   UNL     1      -5.339 -11.841  17.897  0.00  0.00    +0.026 C 
BRANCH  17  20
ATOM     20  C   UNL     1      -4.832 -11.423  19.281  0.00  0.00    -0.015 C 
ATOM     26  C   UNL     1      -3.707 -12.366  19.713  0.00  0.00    +0.007 C 
ATOM     27  C   UNL     1      -5.939 -11.420  20.337  0.00  0.00    +0.007 C 
ENDBRANCH  17  20
ENDBRANCH   8  17
BRANCH   5  24
ATOM     24  C   UNL     1      -3.514 -10.052  11.024  0.00  0.00    +0.162 C 
BRANCH  24  28
ATOM      2  O   UNL     1      -4.319 -13.064   9.035  0.00  0.00    -0.359 OA
ATOM      6  N   UNL     1      -4.750 -12.089   8.144  0.00  0.00    -0.083 NA
ATOM     28  C   UNL     1      -3.931 -11.107  10.028  0.00  0.00    +0.037 A 
ATOM     29  C   UNL     1      -3.834 -12.467  10.154  0.00  0.00    +0.139 A 
ATOM     30  C   UNL     1      -4.509 -10.928   8.759  0.00  0.00    +0.086 A 
ATOM     31  C   UNL     1      -3.332 -13.362  11.205  0.00  0.00    +0.089 C 
ATOM     32  C   UNL     1      -4.850  -9.663   8.086  0.00  0.00    +0.069 C 
ENDBRANCH  24  28
ENDBRANCH   5  24
TORSDOF 6
ENDMDL
MODEL 3
REMARK VINA RESULT:      -7.1     27.655     31.051
REMARK  Name = 51138104
REMARK  10 active torsions:
REMARK  status: ('A' for Active; 'I' for Inactive)
REMARK    1  A    between atoms: N_4  and  C_7
REMARK    2  A    between atoms: N_5  and  C_24
REMARK    3  A    between atoms: C_8  and  C_17
REMARK    4  A    between atoms: C_11  and  C_18
REMARK    5  A    between atoms: C_17  and  C_20
REMARK    6  A    between atoms: C_20  and  C_26
REMARK    7  A    between atoms: C_20  and  C_27
REMARK    8  A    between atoms: C_24  and  C_28
REMARK    9  A    between atoms: C_29  and  C_31
REMARK   10  A    between atoms: C_30  and  C_32
REMARK                            x       y       z     vdW  Elec       q    Type
REMARK                         _______ _______ _______ _____ _____    ______ ____
ROOT
ATOM      3  N   UNL     1      -4.872 -10.170  14.900  0.00  0.00    -0.299 NA
ATOM      5  N   UNL     1      -8.175 -10.606  18.696  0.00  0.00    -0.342 N 
ATOM      8  C   UNL     1      -4.209 -11.005  15.911  0.00  0.00    +0.085 C 
ATOM     11  C   UNL     1      -6.159 -10.675  14.443  0.00  0.00    +0.145 C 
ATOM     13  C   UNL     1      -7.318 -10.010  15.183  0.00  0.00    +0.065 C 
ATOM     14  C   UNL     1      -4.937 -11.138  17.252  0.00  0.00    -0.021 A 
ATOM     15  C   UNL     1      -6.308 -10.819  17.476  0.00  0.00    +0.008 A 
ATOM     16  C   UNL     1      -7.372 -10.336  16.638  0.00  0.00    -0.020 A 
ATOM     19  C   UNL     1      -6.858 -10.999  18.750  0.00  0.00    +0.050 A 
ATOM     21  C   UNL     1      -8.495 -10.211  17.430  0.00  0.00    +0.091 A 
ATOM     22  C   UNL     1      -4.235 -11.690  18.353  0.00  0.00    +0.006 A 
ATOM     23  C   UNL     1      -6.137 -11.501  19.835  0.00  0.00    +0.026 A 
ATOM     25  C   UNL     1      -4.813 -11.857  19.610  0.00  0.00    +0.002 A 
ATOM     33  H   UNL     1      -4.947  -9.204  15.218  0.00  0.00    +0.123 HD
ENDROOT
BRANCH  11  18
ATOM      1  O   UNL     1      -7.280  -9.933  12.475  0.00  0.00    -0.274 OA
ATOM      4  N   UNL     1      -5.018 -10.435  12.331  0.00  0.00    -0.311 N 
ATOM     18  C   UNL     1      -6.230 -10.311  12.991  0.00  0.00    +0.231 C 
ATOM     34  H   UNL     1      -4.213 -10.756  12.864  0.00  0.00    +0.149 HD
BRANCH   4   7
ATOM      7  C   UNL     1      -4.861 -10.116  10.900  0.00  0.00    +0.073 C 
ATOM      9  C   UNL     1      -3.409 -10.202  10.387  0.00  0.00    +0.022 C 
ATOM     10  C   UNL     1      -4.801  -8.606  10.589  0.00  0.00    +0.022 C 
ATOM     12  C   UNL     1      -3.712  -8.942   9.550  0.00  0.00    +0.004 C 
ENDBRANCH   4   7
ENDBRANCH  11  18
BRANCH   8  17
ATOM     17  C   UNL     1      -2.804 -10.393  16.059  0.00  0.00    +0.026 C 
BRANCH  17  20
ATOM     20  C   UNL     1      -1.775 -11.018  15.113  0.00  0.00    -0.015 C 
ATOM     26  C   UNL     1      -1.511 -10.059  13.950  0.00  0.00    +0.007 C 
ATOM     27  C   UNL     1      -2.221 -12.377  14.572  0.00  0.00    +0.007 C 
ENDBRANCH  17  20
ENDBRANCH   8  17
BRANCH   5  24
ATOM     24  C   UNL     1      -9.105 -10.621  19.804  0.00  0.00    +0.162 C 
BRANCH  24  28
ATOM      2  O   UNL     1     -11.299 -13.593  19.609  0.00  0.00    -0.359 OA
ATOM      6  N   UNL     1     -12.223 -12.612  19.270  0.00  0.00    -0.083 NA
ATOM     28  C   UNL     1     -10.192 -11.658  19.657  0.00  0.00    +0.037 A 
ATOM     29  C   UNL     1     -10.093 -13.013  19.838  0.00  0.00    +0.139 A 
ATOM     30  C   UNL     1     -11.539 -11.465  19.305  0.00  0.00    +0.086 A 
ATOM     31  C   UNL     1      -8.996 -13.915  20.210  0.00  0.00    +0.089 C 
ATOM     32  C   UNL     1     -12.224 -10.200  18.992  0.00  0.00    +0.069 C 
ENDBRANCH  24  28
ENDBRANCH   5  24
TORSDOF 6
ENDMDL
MODEL 4
REMARK VINA RESULT:      -6.8     15.610     19.332
REMARK  Name = 51138104
REMARK  10 active torsions:
REMARK  status: ('A' for Active; 'I' for Inactive)
REMARK    1  A    between atoms: N_4  and  C_7
REMARK    2  A    between atoms: N_5  and  C_24
REMARK    3  A    between atoms: C_8  and  C_17
REMARK    4  A    between atoms: C_11  and  C_18
REMARK    5  A    between atoms: C_17  and  C_20
REMARK    6  A    between atoms: C_20  and  C_26
REMARK    7  A    between atoms: C_20  and  C_27
REMARK    8  A    between atoms: C_24  and  C_28
REMARK    9  A    between atoms: C_29  and  C_31
REMARK   10  A    between atoms: C_30  and  C_32
REMARK                            x       y       z     vdW  Elec       q    Type
REMARK                         _______ _______ _______ _____ _____    ______ ____
ROOT
ATOM      3  N   UNL     1      12.353   6.433   5.036  0.00  0.00    -0.299 NA
ATOM      5  N   UNL     1      13.502   4.652   0.452  0.00  0.00    -0.342 N 
ATOM      8  C   UNL     1      13.353   7.358   4.488  0.00  0.00    +0.085 C 
ATOM     11  C   UNL     1      11.167   6.260   4.209  0.00  0.00    +0.145 C 
ATOM     13  C   UNL     1      11.269   5.011   3.335  0.00  0.00    +0.065 C 
ATOM     14  C   UNL     1      14.006   6.935   3.168  0.00  0.00    -0.021 A 
ATOM     15  C   UNL     1      13.500   5.936   2.287  0.00  0.00    +0.008 A 
ATOM     16  C   UNL     1      12.342   5.083   2.301  0.00  0.00    -0.020 A 
ATOM     19  C   UNL     1      14.186   5.652   1.101  0.00  0.00    +0.050 A 
ATOM     21  C   UNL     1      12.390   4.306   1.162  0.00  0.00    +0.091 A 
ATOM     22  C   UNL     1      15.162   7.629   2.730  0.00  0.00    +0.006 A 
ATOM     23  C   UNL     1      15.351   6.316   0.708  0.00  0.00    +0.026 A 
ATOM     25  C   UNL     1      15.822   7.322   1.541  0.00  0.00    +0.002 A 
ATOM     33  H   UNL     1      12.776   5.534   5.266  0.00  0.00    +0.123 HD
ENDROOT
BRANCH  11  18
ATOM      1  O   UNL     1       8.894   6.458   4.900  0.00  0.00    -0.274 OA
ATOM      4  N   UNL     1      10.411   5.485   6.364  0.00  0.00    -0.311 N 
ATOM     18  C   UNL     1      10.035   6.091   5.176  0.00  0.00    +0.231 C 
ATOM     34  H   UNL     1      11.386   5.221   6.479  0.00  0.00    +0.149 HD
BRANCH   4   7
ATOM      7  C   UNL     1       9.451   5.212   7.449  0.00  0.00    +0.073 C 
ATOM      9  C   UNL     1       9.617   6.118   8.687  0.00  0.00    +0.022 C 
ATOM     10  C   UNL     1       9.843   4.028   8.359  0.00  0.00    +0.022 C 
ATOM     12  C   UNL     1       9.327   4.870   9.545  0.00  0.00    +0.004 C 
ENDBRANCH   4   7
ENDBRANCH  11  18
BRANCH   8  17
ATOM     17  C   UNL     1      14.379   7.538   5.623  0.00  0.00    +0.026 C 
BRANCH  17  20
ATOM     20  C   UNL     1      14.437   8.973   6.156  0.00  0.00    -0.015 C 
ATOM     26  C   UNL     1      13.462   9.846   5.363  0.00  0.00    +0.007 C 
ATOM     27  C   UNL     1      15.843   9.571   6.085  0.00  0.00    +0.007 C 
ENDBRANCH  17  20
ENDBRANCH   8  17
BRANCH   5  24
ATOM     24  C   UNL     1      13.880   4.054  -0.810  0.00  0.00    +0.162 C 
BRANCH  24  28
ATOM      2  O   UNL     1      11.724   5.427  -3.483  0.00  0.00    -0.359 OA
ATOM      6  N   UNL     1      11.348   4.091  -3.560  0.00  0.00    -0.083 NA
ATOM     28  C   UNL     1      12.915   4.361  -1.930  0.00  0.00    +0.037 A 
ATOM     29  C   UNL     1      12.658   5.575  -2.509  0.00  0.00    +0.139 A 
ATOM     30  C   UNL     1      12.074   3.474  -2.623  0.00  0.00    +0.086 A 
ATOM     31  C   UNL     1      13.166   6.936  -2.295  0.00  0.00    +0.089 C 
ATOM     32  C   UNL     1      11.924   2.022  -2.426  0.00  0.00    +0.069 C 
ENDBRANCH  24  28
ENDBRANCH   5  24
TORSDOF 6
ENDMDL
MODEL 5
REMARK VINA RESULT:      -6.8     28.496     31.253
REMARK  Name = 51138104
REMARK  10 active torsions:
REMARK  status: ('A' for Active; 'I' for Inactive)
REMARK    1  A    between atoms: N_4  and  C_7
REMARK    2  A    between atoms: N_5  and  C_24
REMARK    3  A    between atoms: C_8  and  C_17
REMARK    4  A    between atoms: C_11  and  C_18
REMARK    5  A    between atoms: C_17  and  C_20
REMARK    6  A    between atoms: C_20  and  C_26
REMARK    7  A    between atoms: C_20  and  C_27
REMARK    8  A    between atoms: C_24  and  C_28
REMARK    9  A    between atoms: C_29  and  C_31
REMARK   10  A    between atoms: C_30  and  C_32
REMARK                            x       y       z     vdW  Elec       q    Type
REMARK                         _______ _______ _______ _____ _____    ______ ____
ROOT
ATOM      3  N   UNL     1      -7.256 -11.258  16.399  0.00  0.00    -0.299 NA
ATOM      5  N   UNL     1      -4.569 -10.081  12.288  0.00  0.00    -0.342 N 
ATOM      8  C   UNL     1      -5.871 -11.102  16.860  0.00  0.00    +0.085 C 
ATOM     11  C   UNL     1      -7.802 -10.096  15.709  0.00  0.00    +0.145 C 
ATOM     13  C   UNL     1      -7.695 -10.244  14.193  0.00  0.00    +0.065 C 
ATOM     14  C   UNL     1      -4.816 -10.922  15.764  0.00  0.00    -0.021 A 
ATOM     15  C   UNL     1      -5.091 -10.560  14.413  0.00  0.00    +0.008 A 
ATOM     16  C   UNL     1      -6.293 -10.259  13.683  0.00  0.00    -0.020 A 
ATOM     19  C   UNL     1      -4.033 -10.414  13.509  0.00  0.00    +0.050 A 
ATOM     21  C   UNL     1      -5.926  -9.981  12.383  0.00  0.00    +0.091 A 
ATOM     22  C   UNL     1      -3.447 -11.044  16.112  0.00  0.00    +0.006 A 
ATOM     23  C   UNL     1      -2.692 -10.584  13.861  0.00  0.00    +0.026 A 
ATOM     25  C   UNL     1      -2.416 -10.891  15.187  0.00  0.00    +0.002 A 
ATOM     33  H   UNL     1      -7.361 -12.102  15.837  0.00  0.00    +0.123 HD
ENDROOT
BRANCH  11  18
ATOM      1  O   UNL     1     -10.106  -9.621  15.330  0.00  0.00    -0.274 OA
ATOM      4  N   UNL     1      -9.493 -10.546  17.369  0.00  0.00    -0.311 N 
ATOM     18  C   UNL     1      -9.248 -10.052  16.098  0.00  0.00    +0.231 C 
ATOM     34  H   UNL     1      -8.701 -10.879  17.914  0.00  0.00    +0.149 HD
BRANCH   4   7
ATOM      7  C   UNL     1     -10.848 -10.606  17.946  0.00  0.00    +0.073 C 
ATOM      9  C   UNL     1     -11.387  -9.249  18.443  0.00  0.00    +0.022 C 
ATOM     10  C   UNL     1     -10.892 -11.074  19.416  0.00  0.00    +0.022 C 
ATOM     12  C   UNL     1     -11.988 -10.012  19.641  0.00  0.00    +0.004 C 
ENDBRANCH   4   7
ENDBRANCH  11  18
BRANCH   8  17
ATOM     17  C   UNL     1      -5.610 -12.345  17.731  0.00  0.00    +0.026 C 
BRANCH  17  20
ATOM     20  C   UNL     1      -5.292 -11.998  19.189  0.00  0.00    -0.015 C 
ATOM     26  C   UNL     1      -5.799 -10.587  19.495  0.00  0.00    +0.007 C 
ATOM     27  C   UNL     1      -3.799 -12.091  19.505  0.00  0.00    +0.007 C 
ENDBRANCH  17  20
ENDBRANCH   8  17
BRANCH   5  24
ATOM     24  C   UNL     1      -3.818  -9.849  11.073  0.00  0.00    +0.162 C 
BRANCH  24  28
ATOM      2  O   UNL     1      -4.082 -12.883   8.975  0.00  0.00    -0.359 OA
ATOM      6  N   UNL     1      -4.575 -11.947   8.073  0.00  0.00    -0.083 NA
ATOM     28  C   UNL     1      -4.023 -10.920  10.030  0.00  0.00    +0.037 A 
ATOM     29  C   UNL     1      -3.757 -12.260  10.136  0.00  0.00    +0.139 A 
ATOM     30  C   UNL     1      -4.531 -10.782   8.726  0.00  0.00    +0.086 A 
ATOM     31  C   UNL     1      -3.216 -13.111  11.204  0.00  0.00    +0.089 C 
ATOM     32  C   UNL     1      -4.988  -9.554   8.055  0.00  0.00    +0.069 C 
ENDBRANCH  24  28
ENDBRANCH   5  24
TORSDOF 6
ENDMDL
MODEL 6
REMARK VINA RESULT:      -6.8     14.999     19.644
REMARK  Name = 51138104
REMARK  10 active torsions:
REMARK  status: ('A' for Active; 'I' for Inactive)
REMARK    1  A    between atoms: N_4  and  C_7
REMARK    2  A    between atoms: N_5  and  C_24
REMARK    3  A    between atoms: C_8  and  C_17
REMARK    4  A    between atoms: C_11  and  C_18
REMARK    5  A    between atoms: C_17  and  C_20
REMARK    6  A    between atoms: C_20  and  C_26
REMARK    7  A    between atoms: C_20  and  C_27
REMARK    8  A    between atoms: C_24  and  C_28
REMARK    9  A    between atoms: C_29  and  C_31
REMARK   10  A    between atoms: C_30  and  C_32
REMARK                            x       y       z     vdW  Elec       q    Type
REMARK                         _______ _______ _______ _____ _____    ______ ____
ROOT
ATOM      3  N   UNL     1      10.393   5.907   3.752  0.00  0.00    -0.299 NA
ATOM      5  N   UNL     1       7.649   9.856   2.208  0.00  0.00    -0.342 N 
ATOM      8  C   UNL     1      10.737   6.102   2.337  0.00  0.00    +0.085 C 
ATOM     11  C   UNL     1      10.603   7.076   4.596  0.00  0.00    +0.145 C 
ATOM     13  C   UNL     1       9.309   7.862   4.797  0.00  0.00    +0.065 C 
ATOM     14  C   UNL     1       9.896   7.135   1.580  0.00  0.00    -0.021 A 
ATOM     15  C   UNL     1       9.074   8.128   2.188  0.00  0.00    +0.008 A 
ATOM     16  C   UNL     1       8.783   8.489   3.549  0.00  0.00    -0.020 A 
ATOM     19  C   UNL     1       8.365   9.024   1.380  0.00  0.00    +0.050 A 
ATOM     21  C   UNL     1       7.897   9.547   3.513  0.00  0.00    +0.091 A 
ATOM     22  C   UNL     1       9.983   7.175   0.166  0.00  0.00    +0.006 A 
ATOM     23  C   UNL     1       8.427   9.018  -0.015  0.00  0.00    +0.026 A 
ATOM     25  C   UNL     1       9.262   8.081  -0.610  0.00  0.00    +0.002 A 
ATOM     33  H   UNL     1       9.444   5.548   3.850  0.00  0.00    +0.123 HD
ENDROOT
BRANCH  11  18
ATOM      1  O   UNL     1      12.245   6.514   6.230  0.00  0.00    -0.274 OA
ATOM      4  N   UNL     1      10.015   6.079   6.712  0.00  0.00    -0.311 N 
ATOM     18  C   UNL     1      11.056   6.531   5.916  0.00  0.00    +0.231 C 
ATOM     34  H   UNL     1       9.069   6.146   6.346  0.00  0.00    +0.149 HD
BRANCH   4   7
ATOM      7  C   UNL     1      10.236   5.515   8.056  0.00  0.00    +0.073 C 
ATOM      9  C   UNL     1       9.764   4.055   8.217  0.00  0.00    +0.022 C 
ATOM     10  C   UNL     1       9.156   5.898   9.090  0.00  0.00    +0.022 C 
ATOM     12  C   UNL     1       9.263   4.453   9.621  0.00  0.00    +0.004 C 
ENDBRANCH   4   7
ENDBRANCH  11  18
BRANCH   8  17
ATOM     17  C   UNL     1      10.644   4.696   1.718  0.00  0.00    +0.026 C 
BRANCH  17  20
ATOM     20  C   UNL     1      11.911   4.291   0.958  0.00  0.00    -0.015 C 
ATOM     26  C   UNL     1      11.528   3.829  -0.450  0.00  0.00    +0.007 C 
ATOM     27  C   UNL     1      12.698   3.190   1.669  0.00  0.00    +0.007 C 
ENDBRANCH  17  20
ENDBRANCH   8  17
BRANCH   5  24
ATOM     24  C   UNL     1       6.771  10.923   1.778  0.00  0.00    +0.162 C 
BRANCH  24  28
ATOM      2  O   UNL     1       3.314  10.677   3.068  0.00  0.00    -0.359 OA
ATOM      6  N   UNL     1       3.187   9.875   1.941  0.00  0.00    -0.083 NA
ATOM     28  C   UNL     1       5.318  10.664   2.091  0.00  0.00    +0.037 A 
ATOM     29  C   UNL     1       4.587  11.142   3.147  0.00  0.00    +0.139 A 
ATOM     30  C   UNL     1       4.397   9.883   1.373  0.00  0.00    +0.086 A 
ATOM     31  C   UNL     1       4.894  12.012   4.290  0.00  0.00    +0.089 C 
ATOM     32  C   UNL     1       4.624   9.120   0.134  0.00  0.00    +0.069 C 
ENDBRANCH  24  28
ENDBRANCH   5  24
TORSDOF 6
ENDMDL
MODEL 7
REMARK VINA RESULT:      -6.6     23.924     25.992
REMARK  Name = 51138104
REMARK  10 active torsions:
REMARK  status: ('A' for Active; 'I' for Inactive)
REMARK    1  A    between atoms: N_4  and  C_7
REMARK    2  A    between atoms: N_5  and  C_24
REMARK    3  A    between atoms: C_8  and  C_17
REMARK    4  A    between atoms: C_11  and  C_18
REMARK    5  A    between atoms: C_17  and  C_20
REMARK    6  A    between atoms: C_20  and  C_26
REMARK    7  A    between atoms: C_20  and  C_27
REMARK    8  A    between atoms: C_24  and  C_28
REMARK    9  A    between atoms: C_29  and  C_31
REMARK   10  A    between atoms: C_30  and  C_32
REMARK                            x       y       z     vdW  Elec       q    Type
REMARK                         _______ _______ _______ _____ _____    ______ ____
ROOT
ATOM      3  N   UNL     1      20.320  -9.774   2.132  0.00  0.00    -0.299 NA
ATOM      5  N   UNL     1      19.608  -6.527  -1.670  0.00  0.00    -0.342 N 
ATOM      8  C   UNL     1      20.670  -8.452   2.667  0.00  0.00    +0.085 C 
ATOM     11  C   UNL     1      18.974  -9.871   1.582  0.00  0.00    +0.145 C 
ATOM     13  C   UNL     1      18.975  -9.693   0.065  0.00  0.00    +0.065 C 
ATOM     14  C   UNL     1      20.714  -7.308   1.649  0.00  0.00    -0.021 A 
ATOM     15  C   UNL     1      20.132  -7.345   0.348  0.00  0.00    +0.008 A 
ATOM     16  C   UNL     1      19.381  -8.329  -0.384  0.00  0.00    -0.020 A 
ATOM     19  C   UNL     1      20.231  -6.224  -0.483  0.00  0.00    +0.050 A 
ATOM     21  C   UNL     1      19.089  -7.788  -1.619  0.00  0.00    +0.091 A 
ATOM     22  C   UNL     1      21.307  -6.079   2.034  0.00  0.00    +0.006 A 
ATOM     23  C   UNL     1      20.861  -5.037  -0.102  0.00  0.00    +0.026 A 
ATOM     25  C   UNL     1      21.389  -4.980   1.182  0.00  0.00    +0.002 A 
ATOM     33  H   UNL     1      21.016 -10.092   1.459  0.00  0.00    +0.123 HD
ENDROOT
BRANCH  11  18
ATOM      1  O   UNL     1      19.126 -12.249   1.521  0.00  0.00    -0.274 OA
ATOM      4  N   UNL     1      17.367 -11.286   2.692  0.00  0.00    -0.311 N 
ATOM     18  C   UNL     1      18.513 -11.257   1.913  0.00  0.00    +0.231 C 
ATOM     34  H   UNL     1      16.948 -10.399   2.960  0.00  0.00    +0.149 HD
BRANCH   4   7
ATOM      7  C   UNL     1      16.749 -12.546   3.143  0.00  0.00    +0.073 C 
ATOM      9  C   UNL     1      15.454 -12.922   2.393  0.00  0.00    +0.022 C 
ATOM     10  C   UNL     1      15.883 -12.410   4.412  0.00  0.00    +0.022 C 
ATOM     12  C   UNL     1      14.895 -13.393   3.751  0.00  0.00    +0.004 C 
ENDBRANCH   4   7
ENDBRANCH  11  18
BRANCH   8  17
ATOM     17  C   UNL     1      22.021  -8.665   3.374  0.00  0.00    +0.026 C 
BRANCH  17  20
ATOM     20  C   UNL     1      21.878  -8.894   4.882  0.00  0.00    -0.015 C 
ATOM     26  C   UNL     1      22.004  -7.554   5.610  0.00  0.00    +0.007 C 
ATOM     27  C   UNL     1      22.911  -9.880   5.429  0.00  0.00    +0.007 C 
ENDBRANCH  17  20
ENDBRANCH   8  17
BRANCH   5  24
ATOM     24  C   UNL     1      19.492  -5.645  -2.811  0.00  0.00    +0.162 C 
BRANCH  24  28
ATOM      2  O   UNL     1      16.123  -4.126  -2.950  0.00  0.00    -0.359 OA
ATOM      6  N   UNL     1      16.850  -3.015  -2.539  0.00  0.00    -0.083 NA
ATOM     28  C   UNL     1      18.241  -4.801  -2.789  0.00  0.00    +0.037 A 
ATOM     29  C   UNL     1      16.962  -5.183  -3.096  0.00  0.00    +0.139 A 
ATOM     30  C   UNL     1      18.113  -3.443  -2.449  0.00  0.00    +0.086 A 
ATOM     31  C   UNL     1      16.351  -6.446  -3.529  0.00  0.00    +0.089 C 
ATOM     32  C   UNL     1      19.170  -2.507  -2.030  0.00  0.00    +0.069 C 
ENDBRANCH  24  28
ENDBRANCH   5  24
TORSDOF 6
ENDMDL
MODEL 8
REMARK VINA RESULT:      -6.6      2.025      2.647
REMARK  Name = 51138104
REMARK  10 active torsions:
REMARK  status: ('A' for Active; 'I' for Inactive)
REMARK    1  A    between atoms: N_4  and  C_7
REMARK    2  A    between atoms: N_5  and  C_24
REMARK    3  A    between atoms: C_8  and  C_17
REMARK    4  A    between atoms: C_11  and  C_18
REMARK    5  A    between atoms: C_17  and  C_20
REMARK    6  A    between atoms: C_20  and  C_26
REMARK    7  A    between atoms: C_20  and  C_27
REMARK    8  A    between atoms: C_24  and  C_28
REMARK    9  A    between atoms: C_29  and  C_31
REMARK   10  A    between atoms: C_30  and  C_32
REMARK                            x       y       z     vdW  Elec       q    Type
REMARK                         _______ _______ _______ _____ _____    ______ ____
ROOT
ATOM      3  N   UNL     1      19.073   7.910  20.716  0.00  0.00    -0.299 NA
ATOM      5  N   UNL     1      14.180   8.992  20.083  0.00  0.00    -0.342 N 
ATOM      8  C   UNL     1      18.766   8.957  21.699  0.00  0.00    +0.085 C 
ATOM     11  C   UNL     1      18.238   6.720  20.814  0.00  0.00    +0.145 C 
ATOM     13  C   UNL     1      17.079   6.765  19.819  0.00  0.00    +0.065 C 
ATOM     14  C   UNL     1      17.377   9.594  21.588  0.00  0.00    -0.021 A 
ATOM     15  C   UNL     1      16.278   9.044  20.867  0.00  0.00    +0.008 A 
ATOM     16  C   UNL     1      16.088   7.846  20.094  0.00  0.00    -0.020 A 
ATOM     19  C   UNL     1      15.054   9.721  20.855  0.00  0.00    +0.050 A 
ATOM     21  C   UNL     1      14.790   7.861  19.625  0.00  0.00    +0.091 A 
ATOM     22  C   UNL     1      17.117  10.785  22.312  0.00  0.00    +0.006 A 
ATOM     23  C   UNL     1      14.830  10.918  21.538  0.00  0.00    +0.026 A 
ATOM     25  C   UNL     1      15.884  11.434  22.280  0.00  0.00    +0.002 A 
ATOM     33  H   UNL     1      19.067   8.287  19.768  0.00  0.00    +0.123 HD
ENDROOT
BRANCH  11  18
ATOM      1  O   UNL     1      18.793   4.703  19.671  0.00  0.00    -0.274 OA
ATOM      4  N   UNL     1      20.368   5.628  21.104  0.00  0.00    -0.311 N 
ATOM     18  C   UNL     1      19.141   5.577  20.464  0.00  0.00    +0.231 C 
ATOM     34  H   UNL     1      20.546   6.403  21.738  0.00  0.00    +0.149 HD
BRANCH   4   7
ATOM      7  C   UNL     1      21.412   4.608  20.894  0.00  0.00    +0.073 C 
ATOM      9  C   UNL     1      22.093   4.120  22.189  0.00  0.00    +0.022 C 
ATOM     10  C   UNL     1      22.784   5.181  20.480  0.00  0.00    +0.022 C 
ATOM     12  C   UNL     1      23.419   4.118  21.402  0.00  0.00    +0.004 C 
ENDBRANCH   4   7
ENDBRANCH  11  18
BRANCH   8  17
ATOM     17  C   UNL     1      19.901   9.984  21.539  0.00  0.00    +0.026 C 
BRANCH  17  20
ATOM     20  C   UNL     1      21.017   9.811  22.575  0.00  0.00    -0.015 C 
ATOM     26  C   UNL     1      22.178   9.042  21.942  0.00  0.00    +0.007 C 
ATOM     27  C   UNL     1      20.542   9.088  23.836  0.00  0.00    +0.007 C 
ENDBRANCH  17  20
ENDBRANCH   8  17
BRANCH   5  24
ATOM     24  C   UNL     1      12.806   9.346  19.801  0.00  0.00    +0.162 C 
BRANCH  24  28
ATOM      2  O   UNL     1      10.529   9.456  22.714  0.00  0.00    -0.359 OA
ATOM      6  N   UNL     1      10.604   8.078  22.543  0.00  0.00    -0.083 NA
ATOM     28  C   UNL     1      11.880   9.123  20.972  0.00  0.00    +0.037 A 
ATOM     29  C   UNL     1      11.293  10.067  21.773  0.00  0.00    +0.139 A 
ATOM     30  C   UNL     1      11.416   7.904  21.496  0.00  0.00    +0.086 A 
ATOM     31  C   UNL     1      11.326  11.534  21.812  0.00  0.00    +0.089 C 
ATOM     32  C   UNL     1      11.721   6.540  21.031  0.00  0.00    +0.069 C 
ENDBRANCH  24  28
ENDBRANCH   5  24
TORSDOF 6
ENDMDL
MODEL 9
REMARK VINA RESULT:      -6.6     28.772     33.359
REMARK  Name = 51138104
REMARK  10 active torsions:
REMARK  status: ('A' for Active; 'I' for Inactive)
REMARK    1  A    between atoms: N_4  and  C_7
REMARK    2  A    between atoms: N_5  and  C_24
REMARK    3  A    between atoms: C_8  and  C_17
REMARK    4  A    between atoms: C_11  and  C_18
REMARK    5  A    between atoms: C_17  and  C_20
REMARK    6  A    between atoms: C_20  and  C_26
REMARK    7  A    between atoms: C_20  and  C_27
REMARK    8  A    between atoms: C_24  and  C_28
REMARK    9  A    between atoms: C_29  and  C_31
REMARK   10  A    between atoms: C_30  and  C_32
REMARK                            x       y       z     vdW  Elec       q    Type
REMARK                         _______ _______ _______ _____ _____    ______ ____
ROOT
ATOM      3  N   UNL     1      -5.995  -9.257   6.760  0.00  0.00    -0.299 NA
ATOM      5  N   UNL     1      -4.639 -13.237   3.961  0.00  0.00    -0.342 N 
ATOM      8  C   UNL     1      -7.090  -9.463   5.803  0.00  0.00    +0.085 C 
ATOM     11  C   UNL     1      -5.681 -10.417   7.583  0.00  0.00    +0.145 C 
ATOM     13  C   UNL     1      -4.507 -11.209   7.011  0.00  0.00    +0.065 C 
ATOM     14  C   UNL     1      -6.838 -10.508   4.711  0.00  0.00    -0.021 A 
ATOM     15  C   UNL     1      -5.817 -11.501   4.746  0.00  0.00    +0.008 A 
ATOM     16  C   UNL     1      -4.794 -11.851   5.695  0.00  0.00    -0.020 A 
ATOM     19  C   UNL     1      -5.701 -12.408   3.687  0.00  0.00    +0.050 A 
ATOM     21  C   UNL     1      -4.091 -12.914   5.167  0.00  0.00    +0.091 A 
ATOM     22  C   UNL     1      -7.724 -10.560   3.605  0.00  0.00    +0.006 A 
ATOM     23  C   UNL     1      -6.556 -12.414   2.583  0.00  0.00    +0.026 A 
ATOM     25  C   UNL     1      -7.582 -11.478   2.566  0.00  0.00    +0.002 A 
ATOM     33  H   UNL     1      -5.162  -8.903   6.290  0.00  0.00    +0.123 HD
ENDROOT
BRANCH  11  18
ATOM      1  O   UNL     1      -5.936  -8.956   9.449  0.00  0.00    -0.274 OA
ATOM      4  N   UNL     1      -4.169 -10.462   9.462  0.00  0.00    -0.311 N 
ATOM     18  C   UNL     1      -5.291  -9.857   8.917  0.00  0.00    +0.231 C 
ATOM     34  H   UNL     1      -3.718 -11.202   8.930  0.00  0.00    +0.149 HD
BRANCH   4   7
ATOM      7  C   UNL     1      -3.621 -10.073  10.774  0.00  0.00    +0.073 C 
ATOM      9  C   UNL     1      -2.252  -9.365  10.705  0.00  0.00    +0.022 C 
ATOM     10  C   UNL     1      -2.907 -11.215  11.527  0.00  0.00    +0.022 C 
ATOM     12  C   UNL     1      -1.859 -10.169  11.962  0.00  0.00    +0.004 C 
ENDBRANCH   4   7
ENDBRANCH  11  18
BRANCH   8  17
ATOM     17  C   UNL     1      -7.372  -8.063   5.228  0.00  0.00    +0.026 C 
BRANCH  17  20
ATOM     20  C   UNL     1      -8.663  -7.442   5.768  0.00  0.00    -0.015 C 
ATOM     26  C   UNL     1      -8.396  -6.846   7.152  0.00  0.00    +0.007 C 
ATOM     27  C   UNL     1      -9.812  -8.448   5.850  0.00  0.00    +0.007 C 
ENDBRANCH  17  20
ENDBRANCH   8  17
BRANCH   5  24
ATOM     24  C   UNL     1      -4.169 -14.313   3.115  0.00  0.00    +0.162 C 
BRANCH  24  28
ATOM      2  O   UNL     1      -1.680 -13.222   0.607  0.00  0.00    -0.359 OA
ATOM      6  N   UNL     1      -0.816 -13.595   1.629  0.00  0.00    -0.083 NA
ATOM     28  C   UNL     1      -2.972 -13.935   2.278  0.00  0.00    +0.037 A 
ATOM     29  C   UNL     1      -2.961 -13.428   1.005  0.00  0.00    +0.139 A 
ATOM     30  C   UNL     1      -1.610 -14.017   2.616  0.00  0.00    +0.086 A 
ATOM     31  C   UNL     1      -4.009 -13.083   0.035  0.00  0.00    +0.089 C 
ATOM     32  C   UNL     1      -1.014 -14.495   3.876  0.00  0.00    +0.069 C 
ENDBRANCH  24  28
ENDBRANCH   5  24
TORSDOF 6
ENDMDL
MODEL 10
REMARK VINA RESULT:      -6.5     28.702     30.773
REMARK  Name = 51138104
REMARK  10 active torsions:
REMARK  status: ('A' for Active; 'I' for Inactive)
REMARK    1  A    between atoms: N_4  and  C_7
REMARK    2  A    between atoms: N_5  and  C_24
REMARK    3  A    between atoms: C_8  and  C_17
REMARK    4  A    between atoms: C_11  and  C_18
REMARK    5  A    between atoms: C_17  and  C_20
REMARK    6  A    between atoms: C_20  and  C_26
REMARK    7  A    between atoms: C_20  and  C_27
REMARK    8  A    between atoms: C_24  and  C_28
REMARK    9  A    between atoms: C_29  and  C_31
REMARK   10  A    between atoms: C_30  and  C_32
REMARK                            x       y       z     vdW  Elec       q    Type
REMARK                         _______ _______ _______ _____ _____    ______ ____
ROOT
ATOM      3  N   UNL     1      -4.603 -11.571  14.238  0.00  0.00    -0.299 NA
ATOM      5  N   UNL     1      -6.139  -8.869  10.257  0.00  0.00    -0.342 N 
ATOM      8  C   UNL     1      -3.384 -10.999  13.651  0.00  0.00    +0.085 C 
ATOM     11  C   UNL     1      -5.618 -10.593  14.606  0.00  0.00    +0.145 C 
ATOM     13  C   UNL     1      -6.681 -10.452  13.518  0.00  0.00    +0.065 C 
ATOM     14  C   UNL     1      -3.561 -10.278  12.311  0.00  0.00    -0.021 A 
ATOM     15  C   UNL     1      -4.805  -9.833  11.777  0.00  0.00    +0.008 A 
ATOM     16  C   UNL     1      -6.166  -9.877  12.241  0.00  0.00    -0.020 A 
ATOM     19  C   UNL     1      -4.829  -9.172  10.543  0.00  0.00    +0.050 A 
ATOM     21  C   UNL     1      -6.950  -9.283  11.273  0.00  0.00    +0.091 A 
ATOM     22  C   UNL     1      -2.405  -9.949  11.559  0.00  0.00    +0.006 A 
ATOM     23  C   UNL     1      -3.682  -8.898   9.796  0.00  0.00    +0.026 A 
ATOM     25  C   UNL     1      -2.463  -9.288  10.333  0.00  0.00    +0.002 A 
ATOM     33  H   UNL     1      -4.992 -12.296  13.636  0.00  0.00    +0.123 HD
ENDROOT
BRANCH  11  18
ATOM      1  O   UNL     1      -7.425 -11.518  15.854  0.00  0.00    -0.274 OA
ATOM      4  N   UNL     1      -5.401 -11.172  16.937  0.00  0.00    -0.311 N 
ATOM     18  C   UNL     1      -6.256 -11.138  15.847  0.00  0.00    +0.231 C 
ATOM     34  H   UNL     1      -4.451 -10.832  16.811  0.00  0.00    +0.149 HD
BRANCH   4   7
ATOM      7  C   UNL     1      -5.821 -11.682  18.255  0.00  0.00    +0.073 C 
ATOM      9  C   UNL     1      -6.477 -10.624  19.166  0.00  0.00    +0.022 C 
ATOM     10  C   UNL     1      -4.685 -11.762  19.296  0.00  0.00    +0.022 C 
ATOM     12  C   UNL     1      -5.709 -11.268  20.338  0.00  0.00    +0.004 C 
ENDBRANCH   4   7
ENDBRANCH  11  18
BRANCH   8  17
ATOM     17  C   UNL     1      -2.404 -12.182  13.560  0.00  0.00    +0.026 C 
BRANCH  17  20
ATOM     20  C   UNL     1      -3.101 -13.517  13.277  0.00  0.00    -0.015 C 
ATOM     26  C   UNL     1      -2.466 -14.610  14.138  0.00  0.00    +0.007 C 
ATOM     27  C   UNL     1      -3.034 -13.915  11.802  0.00  0.00    +0.007 C 
ENDBRANCH  17  20
ENDBRANCH   8  17
BRANCH   5  24
ATOM     24  C   UNL     1      -6.607  -8.192   9.067  0.00  0.00    +0.162 C 
BRANCH  24  28
ATOM      2  O   UNL     1      -9.037 -10.114   7.047  0.00  0.00    -0.359 OA
ATOM      6  N   UNL     1      -7.857 -10.647   6.541  0.00  0.00    -0.083 NA
ATOM     28  C   UNL     1      -7.382  -9.091   8.134  0.00  0.00    +0.037 A 
ATOM     29  C   UNL     1      -8.741  -9.188   7.994  0.00  0.00    +0.139 A 
ATOM     30  C   UNL     1      -6.882 -10.020   7.205  0.00  0.00    +0.086 A 
ATOM     31  C   UNL     1      -9.883  -8.523   8.636  0.00  0.00    +0.089 C 
ATOM     32  C   UNL     1      -5.476 -10.348   6.914  0.00  0.00    +0.069 C 
ENDBRANCH  24  28
ENDBRANCH   5  24
TORSDOF 6
ENDMDL
