MODEL 1
REMARK VINA RESULT:      -7.0      0.000      0.000
REMARK  Name = 71693834
REMARK  8 active torsions:
REMARK  status: ('A' for Active; 'I' for Inactive)
REMARK    1  A    between atoms: O_1  and  C_7
REMARK    2  A    between atoms: O_2  and  C_9
REMARK    3  A    between atoms: N_3  and  C_5
REMARK    4  A    between atoms: N_3  and  C_11
REMARK    5  A    between atoms: C_6  and  C_10
REMARK    6  A    between atoms: C_11  and  C_12
REMARK    7  A    between atoms: C_12  and  C_15
REMARK    8  A    between atoms: C_12  and  C_16
REMARK                            x       y       z     vdW  Elec       q    Type
REMARK                         _______ _______ _______ _____ _____    ______ ____
ROOT
ATOM      5  C   UNL     1      -1.414   1.412  25.392  0.00  0.00    +0.092 C 
ATOM      6  C   UNL     1      -2.432   1.740  24.276  0.00  0.00    +0.042 C 
ATOM      7  C   UNL     1      -0.077   1.821  24.773  0.00  0.00    +0.160 C 
ATOM      8  C   UNL     1      -1.773   2.864  23.431  0.00  0.00    +0.043 C 
ATOM      9  C   UNL     1      -0.417   3.138  24.082  0.00  0.00    +0.145 C 
ENDROOT
BRANCH   6  10
ATOM      4  N   UNL     1      -5.247   3.668  25.933  0.00  0.00    -0.263 NA
ATOM     10  C   UNL     1      -3.807   2.087  24.806  0.00  0.00    -0.025 A 
ATOM     13  C   UNL     1      -4.869   1.200  24.676  0.00  0.00    +0.007 A 
ATOM     14  C   UNL     1      -4.045   3.297  25.436  0.00  0.00    +0.114 A 
ATOM     17  C   UNL     1      -6.121   1.546  25.174  0.00  0.00    +0.020 A 
ATOM     18  C   UNL     1      -6.256   2.780  25.788  0.00  0.00    +0.111 A 
ENDBRANCH   6  10
BRANCH   7   1
ATOM      1  O   UNL     1       0.926   1.980  25.758  0.00  0.00    -0.388 OA
ATOM     20  H   UNL     1       0.886   1.205  26.343  0.00  0.00    +0.210 HD
ENDBRANCH   7   1
BRANCH   9   2
ATOM      2  O   UNL     1      -0.552   4.178  25.046  0.00  0.00    -0.389 OA
ATOM     21  H   UNL     1      -0.414   3.782  25.923  0.00  0.00    +0.210 HD
ENDBRANCH   9   2
BRANCH   5   3
ATOM      3  N   UNL     1      -1.432  -0.000  25.755  0.00  0.00    -0.310 NA
ATOM     19  H   UNL     1      -0.514  -0.279  26.102  0.00  0.00    +0.122 HD
BRANCH   3  11
ATOM     11  C   UNL     1      -1.767  -0.828  24.604  0.00  0.00    +0.084 C 
BRANCH  11  12
ATOM     12  C   UNL     1      -2.792  -1.922  24.947  0.00  0.00    -0.003 C 
ATOM     15  C   UNL     1      -3.901  -2.038  23.897  0.00  0.00    +0.008 C 
ATOM     16  C   UNL     1      -3.411  -1.640  26.319  0.00  0.00    +0.008 C 
ENDBRANCH  11  12
ENDBRANCH   3  11
ENDBRANCH   5   3
TORSDOF 6
ENDMDL
MODEL 2
REMARK VINA RESULT:      -6.3     16.619     19.563
REMARK  Name = 71693834
REMARK  8 active torsions:
REMARK  status: ('A' for Active; 'I' for Inactive)
REMARK    1  A    between atoms: O_1  and  C_7
REMARK    2  A    between atoms: O_2  and  C_9
REMARK    3  A    between atoms: N_3  and  C_5
REMARK    4  A    between atoms: N_3  and  C_11
REMARK    5  A    between atoms: C_6  and  C_10
REMARK    6  A    between atoms: C_11  and  C_12
REMARK    7  A    between atoms: C_12  and  C_15
REMARK    8  A    between atoms: C_12  and  C_16
REMARK                            x       y       z     vdW  Elec       q    Type
REMARK                         _______ _______ _______ _____ _____    ______ ____
ROOT
ATOM      5  C   UNL     1      13.577   7.053  19.170  0.00  0.00    +0.092 C 
ATOM      6  C   UNL     1      14.679   8.084  19.500  0.00  0.00    +0.042 C 
ATOM      7  C   UNL     1      12.617   7.842  18.279  0.00  0.00    +0.160 C 
ATOM      8  C   UNL     1      14.665   9.097  18.323  0.00  0.00    +0.043 C 
ATOM      9  C   UNL     1      13.568   8.618  17.371  0.00  0.00    +0.145 C 
ENDROOT
BRANCH   6  10
ATOM      4  N   UNL     1      18.116   7.459  20.978  0.00  0.00    -0.263 NA
ATOM     10  C   UNL     1      16.031   7.451  19.757  0.00  0.00    -0.025 A 
ATOM     13  C   UNL     1      16.440   6.325  19.049  0.00  0.00    +0.007 A 
ATOM     14  C   UNL     1      16.897   7.974  20.702  0.00  0.00    +0.114 A 
ATOM     17  C   UNL     1      17.687   5.767  19.306  0.00  0.00    +0.020 A 
ATOM     18  C   UNL     1      18.480   6.365  20.271  0.00  0.00    +0.111 A 
ENDBRANCH   6  10
BRANCH   7   1
ATOM      1  O   UNL     1      11.762   6.986  17.546  0.00  0.00    -0.388 OA
ATOM     20  H   UNL     1      11.042   6.716  18.141  0.00  0.00    +0.210 HD
ENDBRANCH   7   1
BRANCH   9   2
ATOM      2  O   UNL     1      14.131   7.751  16.392  0.00  0.00    -0.389 OA
ATOM     21  H   UNL     1      13.446   7.104  16.147  0.00  0.00    +0.210 HD
ENDBRANCH   9   2
BRANCH   5   3
ATOM      3  N   UNL     1      12.913   6.556  20.370  0.00  0.00    -0.310 NA
ATOM     19  H   UNL     1      11.910   6.479  20.203  0.00  0.00    +0.122 HD
BRANCH   3  11
ATOM     11  C   UNL     1      13.131   7.455  21.494  0.00  0.00    +0.084 C 
BRANCH  11  12
ATOM     12  C   UNL     1      11.825   8.093  21.998  0.00  0.00    -0.003 C 
ATOM     15  C   UNL     1      10.593   7.244  21.673  0.00  0.00    +0.008 C 
ATOM     16  C   UNL     1      11.663   9.488  21.388  0.00  0.00    +0.008 C 
ENDBRANCH  11  12
ENDBRANCH   3  11
ENDBRANCH   5   3
TORSDOF 6
ENDMDL
MODEL 3
REMARK VINA RESULT:      -6.2     16.408     18.839
REMARK  Name = 71693834
REMARK  8 active torsions:
REMARK  status: ('A' for Active; 'I' for Inactive)
REMARK    1  A    between atoms: O_1  and  C_7
REMARK    2  A    between atoms: O_2  and  C_9
REMARK    3  A    between atoms: N_3  and  C_5
REMARK    4  A    between atoms: N_3  and  C_11
REMARK    5  A    between atoms: C_6  and  C_10
REMARK    6  A    between atoms: C_11  and  C_12
REMARK    7  A    between atoms: C_12  and  C_15
REMARK    8  A    between atoms: C_12  and  C_16
REMARK                            x       y       z     vdW  Elec       q    Type
REMARK                         _______ _______ _______ _____ _____    ______ ____
ROOT
ATOM      5  C   UNL     1      13.017   6.951  20.261  0.00  0.00    +0.092 C 
ATOM      6  C   UNL     1      13.205   8.464  20.013  0.00  0.00    +0.042 C 
ATOM      7  C   UNL     1      12.303   6.906  21.612  0.00  0.00    +0.160 C 
ATOM      8  C   UNL     1      12.073   9.160  20.816  0.00  0.00    +0.043 C 
ATOM      9  C   UNL     1      11.285   8.035  21.490  0.00  0.00    +0.145 C 
ENDROOT
BRANCH   6  10
ATOM      4  N   UNL     1      12.158   8.783  16.381  0.00  0.00    -0.263 NA
ATOM     10  C   UNL     1      13.237   8.828  18.543  0.00  0.00    -0.025 A 
ATOM     13  C   UNL     1      14.318   9.513  17.999  0.00  0.00    +0.007 A 
ATOM     14  C   UNL     1      12.192   8.489  17.700  0.00  0.00    +0.114 A 
ATOM     17  C   UNL     1      14.320   9.833  16.646  0.00  0.00    +0.020 A 
ATOM     18  C   UNL     1      13.226   9.450  15.887  0.00  0.00    +0.111 A 
ENDBRANCH   6  10
BRANCH   7   1
ATOM      1  O   UNL     1      11.684   5.653  21.834  0.00  0.00    -0.388 OA
ATOM     20  H   UNL     1      12.329   5.086  22.291  0.00  0.00    +0.210 HD
ENDBRANCH   7   1
BRANCH   9   2
ATOM      2  O   UNL     1      10.208   7.637  20.648  0.00  0.00    -0.389 OA
ATOM     21  H   UNL     1      10.539   7.633  19.733  0.00  0.00    +0.210 HD
ENDBRANCH   9   2
BRANCH   5   3
ATOM      3  N   UNL     1      14.288   6.237  20.297  0.00  0.00    -0.310 NA
ATOM     19  H   UNL     1      14.170   5.344  20.777  0.00  0.00    +0.122 HD
BRANCH   3  11
ATOM     11  C   UNL     1      15.299   7.014  21.001  0.00  0.00    +0.084 C 
BRANCH  11  12
ATOM     12  C   UNL     1      16.642   7.047  20.251  0.00  0.00    -0.003 C 
ATOM     15  C   UNL     1      16.670   6.092  19.055  0.00  0.00    +0.008 C 
ATOM     16  C   UNL     1      17.781   6.699  21.213  0.00  0.00    +0.008 C 
ENDBRANCH  11  12
ENDBRANCH   3  11
ENDBRANCH   5   3
TORSDOF 6
ENDMDL
MODEL 4
REMARK VINA RESULT:      -6.2     16.081     19.047
REMARK  Name = 71693834
REMARK  8 active torsions:
REMARK  status: ('A' for Active; 'I' for Inactive)
REMARK    1  A    between atoms: O_1  and  C_7
REMARK    2  A    between atoms: O_2  and  C_9
REMARK    3  A    between atoms: N_3  and  C_5
REMARK    4  A    between atoms: N_3  and  C_11
REMARK    5  A    between atoms: C_6  and  C_10
REMARK    6  A    between atoms: C_11  and  C_12
REMARK    7  A    between atoms: C_12  and  C_15
REMARK    8  A    between atoms: C_12  and  C_16
REMARK                            x       y       z     vdW  Elec       q    Type
REMARK                         _______ _______ _______ _____ _____    ______ ____
ROOT
ATOM      5  C   UNL     1      12.515   7.826  18.286  0.00  0.00    +0.092 C 
ATOM      6  C   UNL     1      13.649   8.772  18.741  0.00  0.00    +0.042 C 
ATOM      7  C   UNL     1      11.736   8.675  17.281  0.00  0.00    +0.160 C 
ATOM      8  C   UNL     1      13.857   9.765  17.566  0.00  0.00    +0.043 C 
ATOM      9  C   UNL     1      12.847   9.360  16.491  0.00  0.00    +0.145 C 
ENDROOT
BRANCH   6  10
ATOM      4  N   UNL     1      16.301   6.072  19.002  0.00  0.00    -0.263 NA
ATOM     10  C   UNL     1      14.905   8.039  19.163  0.00  0.00    -0.025 A 
ATOM     13  C   UNL     1      15.798   8.610  20.063  0.00  0.00    +0.007 A 
ATOM     14  C   UNL     1      15.199   6.780  18.666  0.00  0.00    +0.114 A 
ATOM     17  C   UNL     1      16.943   7.912  20.433  0.00  0.00    +0.020 A 
ATOM     18  C   UNL     1      17.146   6.658  19.879  0.00  0.00    +0.111 A 
ENDBRANCH   6  10
BRANCH   7   1
ATOM      1  O   UNL     1      10.910   7.877  16.455  0.00  0.00    -0.388 OA
ATOM     20  H   UNL     1      11.481   7.224  16.016  0.00  0.00    +0.210 HD
ENDBRANCH   7   1
BRANCH   9   2
ATOM      2  O   UNL     1      13.453   8.436  15.592  0.00  0.00    -0.389 OA
ATOM     21  H   UNL     1      13.005   8.529  14.733  0.00  0.00    +0.210 HD
ENDBRANCH   9   2
BRANCH   5   3
ATOM      3  N   UNL     1      11.675   7.400  19.400  0.00  0.00    -0.310 NA
ATOM     19  H   UNL     1      10.920   6.807  19.055  0.00  0.00    +0.122 HD
BRANCH   3  11
ATOM     11  C   UNL     1      11.093   8.549  20.080  0.00  0.00    +0.084 C 
BRANCH  11  12
ATOM     12  C   UNL     1      10.562   8.195  21.480  0.00  0.00    -0.003 C 
ATOM     15  C   UNL     1      11.133   9.104  22.571  0.00  0.00    +0.008 C 
ATOM     16  C   UNL     1      10.889   6.735  21.803  0.00  0.00    +0.008 C 
ENDBRANCH  11  12
ENDBRANCH   3  11
ENDBRANCH   5   3
TORSDOF 6
ENDMDL
MODEL 5
REMARK VINA RESULT:      -5.7     16.745     19.378
REMARK  Name = 71693834
REMARK  8 active torsions:
REMARK  status: ('A' for Active; 'I' for Inactive)
REMARK    1  A    between atoms: O_1  and  C_7
REMARK    2  A    between atoms: O_2  and  C_9
REMARK    3  A    between atoms: N_3  and  C_5
REMARK    4  A    between atoms: N_3  and  C_11
REMARK    5  A    between atoms: C_6  and  C_10
REMARK    6  A    between atoms: C_11  and  C_12
REMARK    7  A    between atoms: C_12  and  C_15
REMARK    8  A    between atoms: C_12  and  C_16
REMARK                            x       y       z     vdW  Elec       q    Type
REMARK                         _______ _______ _______ _____ _____    ______ ____
ROOT
ATOM      5  C   UNL     1      12.989   8.212  20.309  0.00  0.00    +0.092 C 
ATOM      6  C   UNL     1      14.193   8.726  19.489  0.00  0.00    +0.042 C 
ATOM      7  C   UNL     1      11.785   8.729  19.521  0.00  0.00    +0.160 C 
ATOM      8  C   UNL     1      13.667   8.889  18.037  0.00  0.00    +0.043 C 
ATOM      9  C   UNL     1      12.197   8.469  18.074  0.00  0.00    +0.145 C 
ENDROOT
BRANCH   6  10
ATOM      4  N   UNL     1      16.597   5.844  18.932  0.00  0.00    -0.263 NA
ATOM     10  C   UNL     1      15.418   7.843  19.609  0.00  0.00    -0.025 A 
ATOM     13  C   UNL     1      16.460   8.178  20.465  0.00  0.00    +0.007 A 
ATOM     14  C   UNL     1      15.533   6.677  18.871  0.00  0.00    +0.114 A 
ATOM     17  C   UNL     1      17.572   7.347  20.556  0.00  0.00    +0.020 A 
ATOM     18  C   UNL     1      17.591   6.203  19.775  0.00  0.00    +0.111 A 
ENDBRANCH   6  10
BRANCH   7   1
ATOM      1  O   UNL     1      10.599   8.039  19.868  0.00  0.00    -0.388 OA
ATOM     20  H   UNL     1       9.989   8.688  20.258  0.00  0.00    +0.210 HD
ENDBRANCH   7   1
BRANCH   9   2
ATOM      2  O   UNL     1      12.090   7.081  17.774  0.00  0.00    -0.389 OA
ATOM     21  H   UNL     1      11.166   6.908  17.524  0.00  0.00    +0.210 HD
ENDBRANCH   9   2
BRANCH   5   3
ATOM      3  N   UNL     1      12.998   8.719  21.676  0.00  0.00    -0.310 NA
ATOM     19  H   UNL     1      12.099   8.530  22.121  0.00  0.00    +0.122 HD
BRANCH   3  11
ATOM     11  C   UNL     1      13.233  10.156  21.694  0.00  0.00    +0.084 C 
BRANCH  11  12
ATOM     12  C   UNL     1      12.123  10.924  22.433  0.00  0.00    -0.003 C 
ATOM     15  C   UNL     1      11.007  10.004  22.934  0.00  0.00    +0.008 C 
ATOM     16  C   UNL     1      11.531  11.993  21.509  0.00  0.00    +0.008 C 
ENDBRANCH  11  12
ENDBRANCH   3  11
ENDBRANCH   5   3
TORSDOF 6
ENDMDL
MODEL 6
REMARK VINA RESULT:      -5.6     15.790     18.574
REMARK  Name = 71693834
REMARK  8 active torsions:
REMARK  status: ('A' for Active; 'I' for Inactive)
REMARK    1  A    between atoms: O_1  and  C_7
REMARK    2  A    between atoms: O_2  and  C_9
REMARK    3  A    between atoms: N_3  and  C_5
REMARK    4  A    between atoms: N_3  and  C_11
REMARK    5  A    between atoms: C_6  and  C_10
REMARK    6  A    between atoms: C_11  and  C_12
REMARK    7  A    between atoms: C_12  and  C_15
REMARK    8  A    between atoms: C_12  and  C_16
REMARK                            x       y       z     vdW  Elec       q    Type
REMARK                         _______ _______ _______ _____ _____    ______ ____
ROOT
ATOM      5  C   UNL     1      14.614   7.234  19.647  0.00  0.00    +0.092 C 
ATOM      6  C   UNL     1      14.143   8.324  20.636  0.00  0.00    +0.042 C 
ATOM      7  C   UNL     1      16.136   7.268  19.790  0.00  0.00    +0.160 C 
ATOM      8  C   UNL     1      15.264   8.425  21.706  0.00  0.00    +0.043 C 
ATOM      9  C   UNL     1      16.326   7.403  21.298  0.00  0.00    +0.145 C 
ENDROOT
BRANCH   6  10
ATOM      4  N   UNL     1      10.993   6.484  21.675  0.00  0.00    -0.263 NA
ATOM     10  C   UNL     1      12.765   8.059  21.205  0.00  0.00    -0.025 A 
ATOM     13  C   UNL     1      12.011   9.086  21.762  0.00  0.00    +0.007 A 
ATOM     14  C   UNL     1      12.216   6.787  21.186  0.00  0.00    +0.114 A 
ATOM     17  C   UNL     1      10.748   8.813  22.275  0.00  0.00    +0.020 A 
ATOM     18  C   UNL     1      10.289   7.507  22.209  0.00  0.00    +0.111 A 
ENDBRANCH   6  10
BRANCH   7   1
ATOM      1  O   UNL     1      16.734   6.091  19.282  0.00  0.00    -0.388 OA
ATOM     20  H   UNL     1      17.635   6.322  18.998  0.00  0.00    +0.210 HD
ENDBRANCH   7   1
BRANCH   9   2
ATOM      2  O   UNL     1      16.062   6.160  21.941  0.00  0.00    -0.389 OA
ATOM     21  H   UNL     1      15.232   5.812  21.572  0.00  0.00    +0.210 HD
ENDBRANCH   9   2
BRANCH   5   3
ATOM      3  N   UNL     1      14.193   7.514  18.279  0.00  0.00    -0.310 NA
ATOM     19  H   UNL     1      14.811   7.036  17.623  0.00  0.00    +0.122 HD
BRANCH   3  11
ATOM     11  C   UNL     1      14.239   8.943  18.005  0.00  0.00    +0.084 C 
BRANCH  11  12
ATOM     12  C   UNL     1      12.939   9.460  17.364  0.00  0.00    -0.003 C 
ATOM     15  C   UNL     1      11.737   8.563  17.670  0.00  0.00    +0.008 C 
ATOM     16  C   UNL     1      13.121   9.576  15.848  0.00  0.00    +0.008 C 
ENDBRANCH  11  12
ENDBRANCH   3  11
ENDBRANCH   5   3
TORSDOF 6
ENDMDL
MODEL 7
REMARK VINA RESULT:      -5.5      1.700      2.586
REMARK  Name = 71693834
REMARK  8 active torsions:
REMARK  status: ('A' for Active; 'I' for Inactive)
REMARK    1  A    between atoms: O_1  and  C_7
REMARK    2  A    between atoms: O_2  and  C_9
REMARK    3  A    between atoms: N_3  and  C_5
REMARK    4  A    between atoms: N_3  and  C_11
REMARK    5  A    between atoms: C_6  and  C_10
REMARK    6  A    between atoms: C_11  and  C_12
REMARK    7  A    between atoms: C_12  and  C_15
REMARK    8  A    between atoms: C_12  and  C_16
REMARK                            x       y       z     vdW  Elec       q    Type
REMARK                         _______ _______ _______ _____ _____    ______ ____
ROOT
ATOM      5  C   UNL     1      -1.401   0.017  25.326  0.00  0.00    +0.092 C 
ATOM      6  C   UNL     1      -2.163   0.918  24.329  0.00  0.00    +0.042 C 
ATOM      7  C   UNL     1      -0.471  -0.793  24.422  0.00  0.00    +0.160 C 
ATOM      8  C   UNL     1      -1.222   1.068  23.103  0.00  0.00    +0.043 C 
ATOM      9  C   UNL     1       0.032   0.256  23.435  0.00  0.00    +0.145 C 
ENDROOT
BRANCH   6  10
ATOM      4  N   UNL     1      -4.414   3.673  25.646  0.00  0.00    -0.263 NA
ATOM     10  C   UNL     1      -2.608   2.234  24.934  0.00  0.00    -0.025 A 
ATOM     13  C   UNL     1      -1.679   3.192  25.325  0.00  0.00    +0.007 A 
ATOM     14  C   UNL     1      -3.951   2.519  25.114  0.00  0.00    +0.114 A 
ATOM     17  C   UNL     1      -2.118   4.391  25.876  0.00  0.00    +0.020 A 
ATOM     18  C   UNL     1      -3.483   4.581  26.014  0.00  0.00    +0.111 A 
ENDBRANCH   6  10
BRANCH   7   1
ATOM      1  O   UNL     1       0.586  -1.382  25.156  0.00  0.00    -0.388 OA
ATOM     20  H   UNL     1       1.248  -0.689  25.320  0.00  0.00    +0.210 HD
ENDBRANCH   7   1
BRANCH   9   2
ATOM      2  O   UNL     1       0.994   1.099  24.060  0.00  0.00    -0.389 OA
ATOM     21  H   UNL     1       1.859   0.661  23.983  0.00  0.00    +0.210 HD
ENDBRANCH   9   2
BRANCH   5   3
ATOM      3  N   UNL     1      -2.301  -0.845  26.086  0.00  0.00    -0.310 NA
ATOM     19  H   UNL     1      -1.885  -1.771  26.191  0.00  0.00    +0.122 HD
BRANCH   3  11
ATOM     11  C   UNL     1      -3.582  -0.984  25.408  0.00  0.00    +0.084 C 
BRANCH  11  12
ATOM     12  C   UNL     1      -3.779  -2.386  24.807  0.00  0.00    -0.003 C 
ATOM     15  C   UNL     1      -2.455  -3.124  24.591  0.00  0.00    +0.008 C 
ATOM     16  C   UNL     1      -4.530  -2.278  23.476  0.00  0.00    +0.008 C 
ENDBRANCH  11  12
ENDBRANCH   3  11
ENDBRANCH   5   3
TORSDOF 6
ENDMDL
MODEL 8
REMARK VINA RESULT:      -5.4     17.033     19.418
REMARK  Name = 71693834
REMARK  8 active torsions:
REMARK  status: ('A' for Active; 'I' for Inactive)
REMARK    1  A    between atoms: O_1  and  C_7
REMARK    2  A    between atoms: O_2  and  C_9
REMARK    3  A    between atoms: N_3  and  C_5
REMARK    4  A    between atoms: N_3  and  C_11
REMARK    5  A    between atoms: C_6  and  C_10
REMARK    6  A    between atoms: C_11  and  C_12
REMARK    7  A    between atoms: C_12  and  C_15
REMARK    8  A    between atoms: C_12  and  C_16
REMARK                            x       y       z     vdW  Elec       q    Type
REMARK                         _______ _______ _______ _____ _____    ______ ____
ROOT
ATOM      5  C   UNL     1      14.302   7.358  20.272  0.00  0.00    +0.092 C 
ATOM      6  C   UNL     1      14.598   7.069  18.784  0.00  0.00    +0.042 C 
ATOM      7  C   UNL     1      15.265   6.424  21.006  0.00  0.00    +0.160 C 
ATOM      8  C   UNL     1      16.063   6.555  18.744  0.00  0.00    +0.043 C 
ATOM      9  C   UNL     1      16.550   6.565  20.194  0.00  0.00    +0.145 C 
ENDROOT
BRANCH   6  10
ATOM      4  N   UNL     1      13.717   9.094  15.699  0.00  0.00    -0.263 NA
ATOM     10  C   UNL     1      14.333   8.256  17.881  0.00  0.00    -0.025 A 
ATOM     13  C   UNL     1      14.452   9.557  18.357  0.00  0.00    +0.007 A 
ATOM     14  C   UNL     1      13.966   8.079  16.557  0.00  0.00    +0.114 A 
ATOM     17  C   UNL     1      14.204  10.627  17.504  0.00  0.00    +0.020 A 
ATOM     18  C   UNL     1      13.842  10.345  16.197  0.00  0.00    +0.111 A 
ENDBRANCH   6  10
BRANCH   7   1
ATOM      1  O   UNL     1      15.443   6.814  22.355  0.00  0.00    -0.388 OA
ATOM     20  H   UNL     1      16.385   6.704  22.567  0.00  0.00    +0.210 HD
ENDBRANCH   7   1
BRANCH   9   2
ATOM      2  O   UNL     1      17.176   7.812  20.478  0.00  0.00    -0.389 OA
ATOM     21  H   UNL     1      16.480   8.491  20.492  0.00  0.00    +0.210 HD
ENDBRANCH   9   2
BRANCH   5   3
ATOM      3  N   UNL     1      12.912   7.082  20.619  0.00  0.00    -0.310 NA
ATOM     19  H   UNL     1      12.333   7.113  19.780  0.00  0.00    +0.122 HD
BRANCH   3  11
ATOM     11  C   UNL     1      12.410   8.064  21.569  0.00  0.00    +0.084 C 
BRANCH  11  12
ATOM     12  C   UNL     1      11.368   9.007  20.943  0.00  0.00    -0.003 C 
ATOM     15  C   UNL     1      10.990   8.600  19.517  0.00  0.00    +0.008 C 
ATOM     16  C   UNL     1      11.904  10.442  20.942  0.00  0.00    +0.008 C 
ENDBRANCH  11  12
ENDBRANCH   3  11
ENDBRANCH   5   3
TORSDOF 6
ENDMDL
MODEL 9
REMARK VINA RESULT:      -5.3     12.944     14.529
REMARK  Name = 71693834
REMARK  8 active torsions:
REMARK  status: ('A' for Active; 'I' for Inactive)
REMARK    1  A    between atoms: O_1  and  C_7
REMARK    2  A    between atoms: O_2  and  C_9
REMARK    3  A    between atoms: N_3  and  C_5
REMARK    4  A    between atoms: N_3  and  C_11
REMARK    5  A    between atoms: C_6  and  C_10
REMARK    6  A    between atoms: C_11  and  C_12
REMARK    7  A    between atoms: C_12  and  C_15
REMARK    8  A    between atoms: C_12  and  C_16
REMARK                            x       y       z     vdW  Elec       q    Type
REMARK                         _______ _______ _______ _____ _____    ______ ____
ROOT
ATOM      5  C   UNL     1     -15.178   2.124  29.474  0.00  0.00    +0.092 C 
ATOM      6  C   UNL     1     -13.937   1.998  30.385  0.00  0.00    +0.042 C 
ATOM      7  C   UNL     1     -15.129   0.845  28.639  0.00  0.00    +0.160 C 
ATOM      8  C   UNL     1     -13.666   0.474  30.508  0.00  0.00    +0.043 C 
ATOM      9  C   UNL     1     -14.747  -0.213  29.671  0.00  0.00    +0.145 C 
ENDROOT
BRANCH   6  10
ATOM      4  N   UNL     1     -14.755   2.616  34.038  0.00  0.00    -0.263 NA
ATOM     10  C   UNL     1     -14.097   2.708  31.714  0.00  0.00    -0.025 A 
ATOM     13  C   UNL     1     -13.758   4.049  31.854  0.00  0.00    +0.007 A 
ATOM     14  C   UNL     1     -14.586   2.042  32.825  0.00  0.00    +0.114 A 
ATOM     17  C   UNL     1     -13.917   4.674  33.085  0.00  0.00    +0.020 A 
ATOM     18  C   UNL     1     -14.414   3.921  34.136  0.00  0.00    +0.111 A 
ENDBRANCH   6  10
BRANCH   7   1
ATOM      1  O   UNL     1     -16.377   0.569  28.032  0.00  0.00    -0.388 OA
ATOM     20  H   UNL     1     -17.070   0.898  28.630  0.00  0.00    +0.210 HD
ENDBRANCH   7   1
BRANCH   9   2
ATOM      2  O   UNL     1     -15.866  -0.520  30.497  0.00  0.00    -0.389 OA
ATOM     21  H   UNL     1     -15.785   0.014  31.307  0.00  0.00    +0.210 HD
ENDBRANCH   9   2
BRANCH   5   3
ATOM      3  N   UNL     1     -15.126   3.318  28.637  0.00  0.00    -0.310 NA
ATOM     19  H   UNL     1     -14.273   3.841  28.835  0.00  0.00    +0.122 HD
BRANCH   3  11
ATOM     11  C   UNL     1     -16.271   4.180  28.891  0.00  0.00    +0.084 C 
BRANCH  11  12
ATOM     12  C   UNL     1     -17.244   3.577  29.918  0.00  0.00    -0.003 C 
ATOM     15  C   UNL     1     -18.632   3.314  29.328  0.00  0.00    +0.008 C 
ATOM     16  C   UNL     1     -17.367   4.511  31.125  0.00  0.00    +0.008 C 
ENDBRANCH  11  12
ENDBRANCH   3  11
ENDBRANCH   5   3
TORSDOF 6
ENDMDL
MODEL 10
REMARK VINA RESULT:      -5.3     15.942     18.611
REMARK  Name = 71693834
REMARK  8 active torsions:
REMARK  status: ('A' for Active; 'I' for Inactive)
REMARK    1  A    between atoms: O_1  and  C_7
REMARK    2  A    between atoms: O_2  and  C_9
REMARK    3  A    between atoms: N_3  and  C_5
REMARK    4  A    between atoms: N_3  and  C_11
REMARK    5  A    between atoms: C_6  and  C_10
REMARK    6  A    between atoms: C_11  and  C_12
REMARK    7  A    between atoms: C_12  and  C_15
REMARK    8  A    between atoms: C_12  and  C_16
REMARK                            x       y       z     vdW  Elec       q    Type
REMARK                         _______ _______ _______ _____ _____    ______ ____
ROOT
ATOM      5  C   UNL     1      12.910   7.803  21.401  0.00  0.00    +0.092 C 
ATOM      6  C   UNL     1      12.393   8.992  22.241  0.00  0.00    +0.042 C 
ATOM      7  C   UNL     1      11.695   6.878  21.323  0.00  0.00    +0.160 C 
ATOM      8  C   UNL     1      10.856   9.017  22.024  0.00  0.00    +0.043 C 
ATOM      9  C   UNL     1      10.548   7.854  21.079  0.00  0.00    +0.145 C 
ENDROOT
BRANCH   6  10
ATOM      4  N   UNL     1      14.757  11.949  22.488  0.00  0.00    -0.263 NA
ATOM     10  C   UNL     1      13.086  10.299  21.915  0.00  0.00    -0.025 A 
ATOM     13  C   UNL     1      12.723  11.042  20.798  0.00  0.00    +0.007 A 
ATOM     14  C   UNL     1      14.100  10.790  22.721  0.00  0.00    +0.114 A 
ATOM     17  C   UNL     1      13.376  12.239  20.525  0.00  0.00    +0.020 A 
ATOM     18  C   UNL     1      14.377  12.644  21.392  0.00  0.00    +0.111 A 
ENDBRANCH   6  10
BRANCH   7   1
ATOM      1  O   UNL     1      11.824   5.935  20.276  0.00  0.00    -0.388 OA
ATOM     20  H   UNL     1      11.690   5.053  20.662  0.00  0.00    +0.210 HD
ENDBRANCH   7   1
BRANCH   9   2
ATOM      2  O   UNL     1      10.573   8.315  19.732  0.00  0.00    -0.389 OA
ATOM     21  H   UNL     1      10.890   9.234  19.744  0.00  0.00    +0.210 HD
ENDBRANCH   9   2
BRANCH   5   3
ATOM      3  N   UNL     1      14.051   7.144  22.026  0.00  0.00    -0.310 NA
ATOM     19  H   UNL     1      14.126   7.434  23.001  0.00  0.00    +0.122 HD
BRANCH   3  11
ATOM     11  C   UNL     1      15.289   7.490  21.341  0.00  0.00    +0.084 C 
BRANCH  11  12
ATOM     12  C   UNL     1      15.120   7.537  19.812  0.00  0.00    -0.003 C 
ATOM     15  C   UNL     1      16.006   6.517  19.092  0.00  0.00    +0.008 C 
ATOM     16  C   UNL     1      15.437   8.945  19.301  0.00  0.00    +0.008 C 
ENDBRANCH  11  12
ENDBRANCH   3  11
ENDBRANCH   5   3
TORSDOF 6
ENDMDL
