REMARK  Name = 40777224
REMARK  6 active torsions:
REMARK  status: ('A' for Active; 'I' for Inactive)
REMARK    1  A    between atoms: N_5  and  C_15
REMARK    2  A    between atoms: N_6  and  C_16
REMARK    3  A    between atoms: N_7  and  C_22
REMARK    4  A    between atoms: C_9  and  C_15
REMARK    5  A    between atoms: C_10  and  C_16
REMARK    6  A    between atoms: C_21  and  C_23
REMARK                            x       y       z     vdW  Elec       q    Type
REMARK                         _______ _______ _______ _____ _____    ______ ____
ROOT
ATOM      4  N   UNL     1       0.974   3.922   0.177  0.00  0.00    -0.298 NA
ATOM      8  C   UNL     1      -0.607   2.192  -0.952  0.00  0.00    -0.003 C 
ATOM      9  C   UNL     1      -1.254   2.781   0.322  0.00  0.00    +0.020 C 
ATOM     10  C   UNL     1       1.701   2.644  -0.056  0.00  0.00    +0.074 C 
ATOM     11  C   UNL     1       0.746   1.552  -0.588  0.00  0.00    +0.024 C 
ATOM     12  C   UNL     1      -0.219   3.687   1.026  0.00  0.00    +0.089 C 
ATOM     13  C   UNL     1      -0.313   3.376  -1.893  0.00  0.00    +0.019 C 
ATOM     14  C   UNL     1       0.513   4.432  -1.137  0.00  0.00    +0.085 C 
ENDROOT
BRANCH   9  15
ATOM     15  C   UNL     1      -1.803   1.715   1.266  0.00  0.00    +0.089 C 
BRANCH  15   5
ATOM      5  N   UNL     1      -2.775   0.889   0.550  0.00  0.00    -0.299 NA
ATOM      7  N   UNL     1      -5.177  -0.623   0.227  0.00  0.00    -0.327 N 
ATOM     17  C   UNL     1      -4.076   1.566   0.483  0.00  0.00    +0.103 C 
ATOM     18  C   UNL     1      -2.924  -0.416   1.206  0.00  0.00    +0.103 C 
ATOM     19  C   UNL     1      -5.087   0.737  -0.313  0.00  0.00    +0.120 C 
ATOM     20  C   UNL     1      -3.896  -1.311   0.433  0.00  0.00    +0.120 C 
BRANCH   7  22
ATOM     22  C   UNL     1      -6.306  -1.404  -0.042  0.00  0.00    +0.030 A 
ATOM     24  C   UNL     1      -7.011  -1.224  -1.233  0.00  0.00    +0.023 A 
ATOM     25  C   UNL     1      -6.726  -2.364   0.878  0.00  0.00    +0.023 A 
ATOM     28  C   UNL     1      -8.135  -2.005  -1.502  0.00  0.00    +0.002 A 
ATOM     29  C   UNL     1      -7.850  -3.145   0.608  0.00  0.00    +0.002 A 
ATOM     30  C   UNL     1      -8.555  -2.965  -0.582  0.00  0.00    +0.000 A 
ENDBRANCH   7  22
ENDBRANCH  15   5
ENDBRANCH   9  15
BRANCH  10  16
ATOM     16  C   UNL     1       2.468   2.174   1.182  0.00  0.00    +0.123 C 
BRANCH  16   6
ATOM      1  O   UNL     1       5.165   2.148   0.196  0.00  0.00    -0.270 OA
ATOM      6  N   UNL     1       3.265   0.987   0.834  0.00  0.00    -0.310 N 
ATOM     21  C   UNL     1       4.551   1.099   0.370  0.00  0.00    +0.244 C 
ATOM     35  H   UNL     1       2.794   0.091   0.890  0.00  0.00    +0.149 HD
BRANCH  21  23
ATOM      2  O   UNL     1       5.204  -3.763   0.877  0.00  0.00    -0.453 OA
ATOM      3  O   UNL     1       6.949  -3.817  -0.784  0.00  0.00    -0.453 OA
ATOM     23  C   UNL     1       5.211  -0.191   0.039  0.00  0.00    +0.040 A 
ATOM     26  C   UNL     1       4.814  -1.360   0.691  0.00  0.00    +0.062 A 
ATOM     27  C   UNL     1       6.229  -0.223  -0.930  0.00  0.00    +0.017 A 
ATOM     31  C   UNL     1       5.454  -2.534   0.350  0.00  0.00    +0.167 A 
ATOM     32  C   UNL     1       6.862  -1.424  -1.258  0.00  0.00    +0.050 A 
ATOM     33  C   UNL     1       6.451  -2.564  -0.599  0.00  0.00    +0.166 A 
ATOM     34  C   UNL     1       6.154  -4.571   0.153  0.00  0.00    +0.466 C 
ENDBRANCH  21  23
ENDBRANCH  16   6
ENDBRANCH  10  16
TORSDOF 6
