MODEL 1
REMARK VINA RESULT:      -7.9      0.000      0.000
REMARK  Name = 45360777
REMARK  10 active torsions:
REMARK  status: ('A' for Active; 'I' for Inactive)
REMARK    1  A    between atoms: O_3  and  C_24
REMARK    2  A    between atoms: N_6  and  C_11
REMARK    3  A    between atoms: N_6  and  C_18
REMARK    4  A    between atoms: N_8  and  C_30
REMARK    5  A    between atoms: N_8  and  C_31
REMARK    6  A    between atoms: N_8  and  C_32
REMARK    7  A    between atoms: C_10  and  C_15
REMARK    8  A    between atoms: C_15  and  C_17
REMARK    9  A    between atoms: C_17  and  C_19
REMARK   10  A    between atoms: C_18  and  C_25
REMARK                            x       y       z     vdW  Elec       q    Type
REMARK                         _______ _______ _______ _____ _____    ______ ____
ROOT
ATOM      1  O   UNL     1     -18.184   0.691  22.696  0.00  0.00    -0.274 OA
ATOM      4  N   UNL     1     -16.903   3.089  25.132  0.00  0.00    -0.286 NA
ATOM      5  N   UNL     1     -17.286   0.335  24.755  0.00  0.00    -0.313 N 
ATOM      9  C   UNL     1     -17.708   2.662  23.980  0.00  0.00    +0.145 C 
ATOM     10  C   UNL     1     -17.019   2.222  26.300  0.00  0.00    +0.075 C 
ATOM     11  C   UNL     1     -15.899   4.164  23.370  0.00  0.00    +0.070 C 
ATOM     12  C   UNL     1     -17.081   3.392  22.782  0.00  0.00    +0.048 C 
ATOM     13  C   UNL     1     -15.562   3.386  24.635  0.00  0.00    +0.104 C 
ATOM     14  C   UNL     1     -16.625   0.794  25.954  0.00  0.00    +0.123 C 
ATOM     16  C   UNL     1     -17.726   1.155  23.745  0.00  0.00    +0.230 C 
ATOM     33  H   UNL     1     -17.322  -0.667  24.594  0.00  0.00    +0.149 HD
ENDROOT
BRANCH  11   6
ATOM      6  N   UNL     1     -14.781   4.285  22.449  0.00  0.00    -0.308 NA
ATOM     34  H   UNL     1     -14.223   3.431  22.489  0.00  0.00    +0.123 HD
BRANCH   6  18
ATOM     18  C   UNL     1     -13.936   5.420  22.799  0.00  0.00    +0.116 C 
BRANCH  18  25
ATOM     25  C   UNL     1     -13.505   6.194  21.582  0.00  0.00    -0.033 A 
ATOM     26  C   UNL     1     -14.459   6.830  20.786  0.00  0.00    +0.007 A 
ATOM     27  C   UNL     1     -12.153   6.277  21.249  0.00  0.00    +0.007 A 
ATOM     28  C   UNL     1     -14.061   7.548  19.659  0.00  0.00    +0.023 A 
ATOM     29  C   UNL     1     -11.755   6.994  20.122  0.00  0.00    +0.023 A 
ATOM     30  C   UNL     1     -12.708   7.630  19.327  0.00  0.00    +0.029 A 
BRANCH  30   8
ATOM      8  N   UNL     1     -12.306   8.355  18.186  0.00  0.00    -0.336 N 
ATOM     31  C   UNL     1     -11.072   9.117  18.198  0.00  0.00    +0.129 C 
ATOM     32  C   UNL     1     -13.124   8.356  16.990  0.00  0.00    +0.129 C 
ENDBRANCH  30   8
ENDBRANCH  18  25
ENDBRANCH   6  18
ENDBRANCH  11   6
BRANCH  10  15
ATOM     15  C   UNL     1     -16.226   2.735  27.502  0.00  0.00    +0.029 C 
BRANCH  15  17
ATOM     17  C   UNL     1     -16.941   2.482  28.822  0.00  0.00    +0.097 C 
BRANCH  17  19
ATOM      2  O   UNL     1     -16.435   0.244  29.412  0.00  0.00    -0.276 OA
ATOM      7  N   UNL     1     -15.343   1.906  30.615  0.00  0.00    -0.301 N 
ATOM     19  C   UNL     1     -16.220   1.438  29.637  0.00  0.00    +0.216 C 
ATOM     20  C   UNL     1     -14.572   0.953  31.416  0.00  0.00    +0.110 C 
ATOM     21  C   UNL     1     -15.070   3.319  30.905  0.00  0.00    +0.110 C 
ATOM     22  C   UNL     1     -14.772   1.207  32.907  0.00  0.00    +0.050 C 
ATOM     23  C   UNL     1     -15.276   3.616  32.387  0.00  0.00    +0.050 C 
ATOM     24  C   UNL     1     -14.466   2.663  33.264  0.00  0.00    +0.118 C 
BRANCH  24   3
ATOM      3  O   UNL     1     -14.794   2.903  34.627  0.00  0.00    -0.392 OA
ATOM     35  H   UNL     1     -15.510   3.562  34.645  0.00  0.00    +0.210 HD
ENDBRANCH  24   3
ENDBRANCH  17  19
ENDBRANCH  15  17
ENDBRANCH  10  15
TORSDOF 8
ENDMDL
MODEL 2
REMARK VINA RESULT:      -7.7     27.782     31.633
REMARK  Name = 45360777
REMARK  10 active torsions:
REMARK  status: ('A' for Active; 'I' for Inactive)
REMARK    1  A    between atoms: O_3  and  C_24
REMARK    2  A    between atoms: N_6  and  C_11
REMARK    3  A    between atoms: N_6  and  C_18
REMARK    4  A    between atoms: N_8  and  C_30
REMARK    5  A    between atoms: N_8  and  C_31
REMARK    6  A    between atoms: N_8  and  C_32
REMARK    7  A    between atoms: C_10  and  C_15
REMARK    8  A    between atoms: C_15  and  C_17
REMARK    9  A    between atoms: C_17  and  C_19
REMARK   10  A    between atoms: C_18  and  C_25
REMARK                            x       y       z     vdW  Elec       q    Type
REMARK                         _______ _______ _______ _____ _____    ______ ____
ROOT
ATOM      1  O   UNL     1      11.708   7.551  17.787  0.00  0.00    -0.274 OA
ATOM      4  N   UNL     1      13.677   6.726  20.748  0.00  0.00    -0.286 NA
ATOM      5  N   UNL     1      13.944   7.747  18.148  0.00  0.00    -0.313 N 
ATOM      9  C   UNL     1      12.513   6.639  19.857  0.00  0.00    +0.145 C 
ATOM     10  C   UNL     1      14.963   6.610  20.069  0.00  0.00    +0.075 C 
ATOM     11  C   UNL     1      12.002   7.691  21.986  0.00  0.00    +0.070 C 
ATOM     12  C   UNL     1      11.360   7.251  20.669  0.00  0.00    +0.048 C 
ATOM     13  C   UNL     1      13.469   7.880  21.620  0.00  0.00    +0.104 C 
ATOM     14  C   UNL     1      15.109   7.683  19.002  0.00  0.00    +0.123 C 
ATOM     16  C   UNL     1      12.680   7.367  18.526  0.00  0.00    +0.230 C 
ATOM     33  H   UNL     1      14.046   8.212  17.252  0.00  0.00    +0.149 HD
ENDROOT
BRANCH  11   6
ATOM      6  N   UNL     1      11.388   8.882  22.550  0.00  0.00    -0.308 NA
ATOM     34  H   UNL     1      10.420   8.939  22.232  0.00  0.00    +0.123 HD
BRANCH   6  18
ATOM     18  C   UNL     1      12.096  10.085  22.130  0.00  0.00    +0.116 C 
BRANCH  18  25
ATOM     25  C   UNL     1      12.133  11.123  23.219  0.00  0.00    -0.033 A 
ATOM     26  C   UNL     1      13.094  12.134  23.187  0.00  0.00    +0.007 A 
ATOM     27  C   UNL     1      11.207  11.075  24.261  0.00  0.00    +0.007 A 
ATOM     28  C   UNL     1      13.129  13.096  24.196  0.00  0.00    +0.023 A 
ATOM     29  C   UNL     1      11.241  12.036  25.270  0.00  0.00    +0.023 A 
ATOM     30  C   UNL     1      12.202  13.047  25.238  0.00  0.00    +0.029 A 
BRANCH  30   8
ATOM      8  N   UNL     1      12.237  14.020  26.259  0.00  0.00    -0.336 N 
ATOM     31  C   UNL     1      13.438  14.213  27.047  0.00  0.00    +0.129 C 
ATOM     32  C   UNL     1      11.071  14.834  26.538  0.00  0.00    +0.129 C 
ENDBRANCH  30   8
ENDBRANCH  18  25
ENDBRANCH   6  18
ENDBRANCH  11   6
BRANCH  10  15
ATOM     15  C   UNL     1      16.148   6.631  21.034  0.00  0.00    +0.029 C 
BRANCH  15  17
ATOM     17  C   UNL     1      17.382   7.284  20.427  0.00  0.00    +0.097 C 
BRANCH  17  19
ATOM      2  O   UNL     1      18.185   5.386  19.259  0.00  0.00    -0.276 OA
ATOM      7  N   UNL     1      19.642   6.356  20.788  0.00  0.00    -0.301 N 
ATOM     19  C   UNL     1      18.434   6.255  20.099  0.00  0.00    +0.216 C 
ATOM     20  C   UNL     1      20.729   5.420  20.491  0.00  0.00    +0.110 C 
ATOM     21  C   UNL     1      19.964   7.377  21.793  0.00  0.00    +0.110 C 
ATOM     22  C   UNL     1      21.222   4.737  21.762  0.00  0.00    +0.050 C 
ATOM     23  C   UNL     1      20.445   6.729  23.087  0.00  0.00    +0.050 C 
ATOM     24  C   UNL     1      21.602   5.764  22.830  0.00  0.00    +0.118 C 
BRANCH  24   3
ATOM      3  O   UNL     1      21.923   5.099  24.046  0.00  0.00    -0.392 OA
ATOM     35  H   UNL     1      21.207   4.467  24.232  0.00  0.00    +0.210 HD
ENDBRANCH  24   3
ENDBRANCH  17  19
ENDBRANCH  15  17
ENDBRANCH  10  15
TORSDOF 8
ENDMDL
MODEL 3
REMARK VINA RESULT:      -7.2      3.655     11.463
REMARK  Name = 45360777
REMARK  10 active torsions:
REMARK  status: ('A' for Active; 'I' for Inactive)
REMARK    1  A    between atoms: O_3  and  C_24
REMARK    2  A    between atoms: N_6  and  C_11
REMARK    3  A    between atoms: N_6  and  C_18
REMARK    4  A    between atoms: N_8  and  C_30
REMARK    5  A    between atoms: N_8  and  C_31
REMARK    6  A    between atoms: N_8  and  C_32
REMARK    7  A    between atoms: C_10  and  C_15
REMARK    8  A    between atoms: C_15  and  C_17
REMARK    9  A    between atoms: C_17  and  C_19
REMARK   10  A    between atoms: C_18  and  C_25
REMARK                            x       y       z     vdW  Elec       q    Type
REMARK                         _______ _______ _______ _____ _____    ______ ____
ROOT
ATOM      1  O   UNL     1     -18.151   6.788  21.896  0.00  0.00    -0.274 OA
ATOM      4  N   UNL     1     -14.830   5.281  22.063  0.00  0.00    -0.286 NA
ATOM      5  N   UNL     1     -16.112   7.711  21.493  0.00  0.00    -0.313 N 
ATOM      9  C   UNL     1     -16.293   5.268  21.934  0.00  0.00    +0.145 C 
ATOM     10  C   UNL     1     -14.160   6.253  21.206  0.00  0.00    +0.075 C 
ATOM     11  C   UNL     1     -15.515   4.274  24.008  0.00  0.00    +0.070 C 
ATOM     12  C   UNL     1     -16.786   4.569  23.210  0.00  0.00    +0.048 C 
ATOM     13  C   UNL     1     -14.523   5.307  23.492  0.00  0.00    +0.104 C 
ATOM     14  C   UNL     1     -14.668   7.659  21.484  0.00  0.00    +0.123 C 
ATOM     16  C   UNL     1     -16.928   6.649  21.797  0.00  0.00    +0.230 C 
ATOM     33  H   UNL     1     -16.548   8.622  21.385  0.00  0.00    +0.149 HD
ENDROOT
BRANCH  11   6
ATOM      6  N   UNL     1     -15.717   4.334  25.447  0.00  0.00    -0.308 NA
ATOM     34  H   UNL     1     -14.827   4.162  25.915  0.00  0.00    +0.123 HD
BRANCH   6  18
ATOM     18  C   UNL     1     -16.682   3.332  25.882  0.00  0.00    +0.116 C 
BRANCH  18  25
ATOM     25  C   UNL     1     -16.303   2.726  27.206  0.00  0.00    -0.033 A 
ATOM     26  C   UNL     1     -16.448   1.354  27.413  0.00  0.00    +0.007 A 
ATOM     27  C   UNL     1     -15.805   3.535  28.228  0.00  0.00    +0.007 A 
ATOM     28  C   UNL     1     -16.096   0.791  28.639  0.00  0.00    +0.023 A 
ATOM     29  C   UNL     1     -15.454   2.974  29.454  0.00  0.00    +0.023 A 
ATOM     30  C   UNL     1     -15.599   1.602  29.661  0.00  0.00    +0.029 A 
BRANCH  30   8
ATOM      8  N   UNL     1     -15.244   1.033  30.902  0.00  0.00    -0.336 N 
ATOM     31  C   UNL     1     -14.912   1.882  32.030  0.00  0.00    +0.129 C 
ATOM     32  C   UNL     1     -15.198  -0.406  31.063  0.00  0.00    +0.129 C 
ENDBRANCH  30   8
ENDBRANCH  18  25
ENDBRANCH   6  18
ENDBRANCH  11   6
BRANCH  10  15
ATOM     15  C   UNL     1     -12.636   6.188  21.313  0.00  0.00    +0.029 C 
BRANCH  15  17
ATOM     17  C   UNL     1     -11.965   7.475  20.855  0.00  0.00    +0.097 C 
BRANCH  17  19
ATOM      2  O   UNL     1     -11.251   6.282  18.936  0.00  0.00    -0.276 OA
ATOM      7  N   UNL     1     -11.519   8.578  18.690  0.00  0.00    -0.301 N 
ATOM     19  C   UNL     1     -11.547   7.383  19.409  0.00  0.00    +0.216 C 
ATOM     20  C   UNL     1     -11.167   8.563  17.268  0.00  0.00    +0.110 C 
ATOM     21  C   UNL     1     -11.864   9.900  19.226  0.00  0.00    +0.110 C 
ATOM     22  C   UNL     1     -10.029   9.535  16.979  0.00  0.00    +0.050 C 
ATOM     23  C   UNL     1     -10.739  10.898  18.970  0.00  0.00    +0.050 C 
ATOM     24  C   UNL     1     -10.357  10.939  17.491  0.00  0.00    +0.118 C 
BRANCH  24   3
ATOM      3  O   UNL     1      -9.226  11.786  17.333  0.00  0.00    -0.392 OA
ATOM     35  H   UNL     1      -9.492  12.683  17.602  0.00  0.00    +0.210 HD
ENDBRANCH  24   3
ENDBRANCH  17  19
ENDBRANCH  15  17
ENDBRANCH  10  15
TORSDOF 8
ENDMDL
MODEL 4
REMARK VINA RESULT:      -7.1     31.990     36.520
REMARK  Name = 45360777
REMARK  10 active torsions:
REMARK  status: ('A' for Active; 'I' for Inactive)
REMARK    1  A    between atoms: O_3  and  C_24
REMARK    2  A    between atoms: N_6  and  C_11
REMARK    3  A    between atoms: N_6  and  C_18
REMARK    4  A    between atoms: N_8  and  C_30
REMARK    5  A    between atoms: N_8  and  C_31
REMARK    6  A    between atoms: N_8  and  C_32
REMARK    7  A    between atoms: C_10  and  C_15
REMARK    8  A    between atoms: C_15  and  C_17
REMARK    9  A    between atoms: C_17  and  C_19
REMARK   10  A    between atoms: C_18  and  C_25
REMARK                            x       y       z     vdW  Elec       q    Type
REMARK                         _______ _______ _______ _____ _____    ______ ____
ROOT
ATOM      1  O   UNL     1      10.083   5.333   8.218  0.00  0.00    -0.274 OA
ATOM      4  N   UNL     1      11.630   7.740   5.952  0.00  0.00    -0.286 NA
ATOM      5  N   UNL     1      12.276   5.859   7.931  0.00  0.00    -0.313 N 
ATOM      9  C   UNL     1      10.528   7.169   6.738  0.00  0.00    +0.145 C 
ATOM     10  C   UNL     1      12.880   7.887   6.689  0.00  0.00    +0.075 C 
ATOM     11  C   UNL     1      10.186   6.974   4.341  0.00  0.00    +0.070 C 
ATOM     12  C   UNL     1       9.523   6.672   5.687  0.00  0.00    +0.048 C 
ATOM     13  C   UNL     1      11.670   7.024   4.679  0.00  0.00    +0.104 C 
ATOM     14  C   UNL     1      13.342   6.548   7.241  0.00  0.00    +0.123 C 
ATOM     16  C   UNL     1      10.939   6.033   7.670  0.00  0.00    +0.230 C 
ATOM     33  H   UNL     1      12.536   5.113   8.569  0.00  0.00    +0.149 HD
ENDROOT
BRANCH  11   6
ATOM      6  N   UNL     1       9.858   5.999   3.313  0.00  0.00    -0.308 NA
ATOM     34  H   UNL     1       8.893   5.692   3.441  0.00  0.00    +0.123 HD
BRANCH   6  18
ATOM     18  C   UNL     1      10.738   4.840   3.391  0.00  0.00    +0.116 C 
BRANCH  18  25
ATOM     25  C   UNL     1      11.251   4.434   2.035  0.00  0.00    -0.033 A 
ATOM     26  C   UNL     1      12.555   3.956   1.897  0.00  0.00    +0.007 A 
ATOM     27  C   UNL     1      10.424   4.534   0.916  0.00  0.00    +0.007 A 
ATOM     28  C   UNL     1      13.031   3.579   0.641  0.00  0.00    +0.023 A 
ATOM     29  C   UNL     1      10.899   4.158  -0.339  0.00  0.00    +0.023 A 
ATOM     30  C   UNL     1      12.202   3.680  -0.477  0.00  0.00    +0.029 A 
BRANCH  30   8
ATOM      8  N   UNL     1      12.683   3.300  -1.747  0.00  0.00    -0.336 N 
ATOM     31  C   UNL     1      12.037   2.234  -2.487  0.00  0.00    +0.129 C 
ATOM     32  C   UNL     1      13.835   3.964  -2.325  0.00  0.00    +0.129 C 
ENDBRANCH  30   8
ENDBRANCH  18  25
ENDBRANCH   6  18
ENDBRANCH  11   6
BRANCH  10  15
ATOM     15  C   UNL     1      13.982   8.551   5.863  0.00  0.00    +0.029 C 
BRANCH  15  17
ATOM     17  C   UNL     1      15.370   8.046   6.231  0.00  0.00    +0.097 C 
BRANCH  17  19
ATOM      2  O   UNL     1      15.746   7.206   4.048  0.00  0.00    -0.276 OA
ATOM      7  N   UNL     1      17.500   8.377   5.025  0.00  0.00    -0.301 N 
ATOM     19  C   UNL     1      16.214   7.836   5.000  0.00  0.00    +0.216 C 
ATOM     20  C   UNL     1      18.363   8.254   3.849  0.00  0.00    +0.110 C 
ATOM     21  C   UNL     1      18.083   9.128   6.143  0.00  0.00    +0.110 C 
ATOM     22  C   UNL     1      19.707   7.636   4.222  0.00  0.00    +0.050 C 
ATOM     23  C   UNL     1      19.423   8.528   6.557  0.00  0.00    +0.050 C 
ATOM     24  C   UNL     1      20.371   8.407   5.364  0.00  0.00    +0.118 C 
BRANCH  24   3
ATOM      3  O   UNL     1      21.550   7.729   5.782  0.00  0.00    -0.392 OA
ATOM     35  H   UNL     1      22.064   8.346   6.331  0.00  0.00    +0.210 HD
ENDBRANCH  24   3
ENDBRANCH  17  19
ENDBRANCH  15  17
ENDBRANCH  10  15
TORSDOF 8
ENDMDL
MODEL 5
REMARK VINA RESULT:      -7.0     17.746     20.445
REMARK  Name = 45360777
REMARK  10 active torsions:
REMARK  status: ('A' for Active; 'I' for Inactive)
REMARK    1  A    between atoms: O_3  and  C_24
REMARK    2  A    between atoms: N_6  and  C_11
REMARK    3  A    between atoms: N_6  and  C_18
REMARK    4  A    between atoms: N_8  and  C_30
REMARK    5  A    between atoms: N_8  and  C_31
REMARK    6  A    between atoms: N_8  and  C_32
REMARK    7  A    between atoms: C_10  and  C_15
REMARK    8  A    between atoms: C_15  and  C_17
REMARK    9  A    between atoms: C_17  and  C_19
REMARK   10  A    between atoms: C_18  and  C_25
REMARK                            x       y       z     vdW  Elec       q    Type
REMARK                         _______ _______ _______ _____ _____    ______ ____
ROOT
ATOM      1  O   UNL     1      -7.958 -13.155  18.562  0.00  0.00    -0.274 OA
ATOM      4  N   UNL     1      -5.697 -10.489  17.513  0.00  0.00    -0.286 NA
ATOM      5  N   UNL     1      -6.170 -13.232  17.160  0.00  0.00    -0.313 N 
ATOM      9  C   UNL     1      -6.675 -11.133  18.398  0.00  0.00    +0.145 C 
ATOM     10  C   UNL     1      -4.593 -11.353  17.107  0.00  0.00    +0.075 C 
ATOM     11  C   UNL     1      -7.556  -9.162  17.285  0.00  0.00    +0.070 C 
ATOM     12  C   UNL     1      -7.928 -10.249  18.295  0.00  0.00    +0.048 C 
ATOM     13  C   UNL     1      -6.449  -9.807  16.462  0.00  0.00    +0.104 C 
ATOM     14  C   UNL     1      -5.112 -12.599  16.407  0.00  0.00    +0.123 C 
ATOM     16  C   UNL     1      -7.003 -12.577  18.034  0.00  0.00    +0.230 C 
ATOM     33  H   UNL     1      -6.387 -14.199  16.941  0.00  0.00    +0.149 HD
ENDROOT
BRANCH  11   6
ATOM      6  N   UNL     1      -8.685  -8.714  16.487  0.00  0.00    -0.308 NA
ATOM     34  H   UNL     1      -8.361  -8.019  15.813  0.00  0.00    +0.123 HD
BRANCH   6  18
ATOM     18  C   UNL     1      -9.715  -8.116  17.327  0.00  0.00    +0.116 C 
BRANCH  18  25
ATOM     25  C   UNL     1     -10.806  -7.480  16.509  0.00  0.00    -0.033 A 
ATOM     26  C   UNL     1     -10.523  -6.376  15.705  0.00  0.00    +0.007 A 
ATOM     27  C   UNL     1     -12.103  -7.994  16.554  0.00  0.00    +0.007 A 
ATOM     28  C   UNL     1     -11.533  -5.786  14.946  0.00  0.00    +0.023 A 
ATOM     29  C   UNL     1     -13.114  -7.405  15.796  0.00  0.00    +0.023 A 
ATOM     30  C   UNL     1     -12.830  -6.301  14.992  0.00  0.00    +0.029 A 
BRANCH  30   8
ATOM      8  N   UNL     1     -13.852  -5.704  14.225  0.00  0.00    -0.336 N 
ATOM     31  C   UNL     1     -13.565  -4.559  13.383  0.00  0.00    +0.129 C 
ATOM     32  C   UNL     1     -15.204  -6.223  14.275  0.00  0.00    +0.129 C 
ENDBRANCH  30   8
ENDBRANCH  18  25
ENDBRANCH   6  18
ENDBRANCH  11   6
BRANCH  10  15
ATOM     15  C   UNL     1      -3.558 -10.629  16.246  0.00  0.00    +0.029 C 
BRANCH  15  17
ATOM     17  C   UNL     1      -3.030 -11.501  15.116  0.00  0.00    +0.097 C 
BRANCH  17  19
ATOM      2  O   UNL     1      -1.428  -9.849  14.549  0.00  0.00    -0.276 OA
ATOM      7  N   UNL     1      -2.471 -10.934  12.777  0.00  0.00    -0.301 N 
ATOM     19  C   UNL     1      -2.233 -10.685  14.129  0.00  0.00    +0.216 C 
ATOM     20  C   UNL     1      -1.703 -10.214  11.759  0.00  0.00    +0.110 C 
ATOM     21  C   UNL     1      -3.423 -11.920  12.250  0.00  0.00    +0.110 C 
ATOM     22  C   UNL     1      -2.631  -9.532  10.759  0.00  0.00    +0.050 C 
ATOM     23  C   UNL     1      -4.380 -11.270  11.257  0.00  0.00    +0.050 C 
ATOM     24  C   UNL     1      -3.622 -10.529  10.156  0.00  0.00    +0.118 C 
BRANCH  24   3
ATOM      3  O   UNL     1      -4.559  -9.841   9.337  0.00  0.00    -0.392 OA
ATOM     35  H   UNL     1      -4.083  -9.523   8.550  0.00  0.00    +0.210 HD
ENDBRANCH  24   3
ENDBRANCH  17  19
ENDBRANCH  15  17
ENDBRANCH  10  15
TORSDOF 8
ENDMDL
MODEL 6
REMARK VINA RESULT:      -7.0     18.393     21.368
REMARK  Name = 45360777
REMARK  10 active torsions:
REMARK  status: ('A' for Active; 'I' for Inactive)
REMARK    1  A    between atoms: O_3  and  C_24
REMARK    2  A    between atoms: N_6  and  C_11
REMARK    3  A    between atoms: N_6  and  C_18
REMARK    4  A    between atoms: N_8  and  C_30
REMARK    5  A    between atoms: N_8  and  C_31
REMARK    6  A    between atoms: N_8  and  C_32
REMARK    7  A    between atoms: C_10  and  C_15
REMARK    8  A    between atoms: C_15  and  C_17
REMARK    9  A    between atoms: C_17  and  C_19
REMARK   10  A    between atoms: C_18  and  C_25
REMARK                            x       y       z     vdW  Elec       q    Type
REMARK                         _______ _______ _______ _____ _____    ______ ____
ROOT
ATOM      1  O   UNL     1      -5.368 -13.642  17.666  0.00  0.00    -0.274 OA
ATOM      4  N   UNL     1      -3.855 -10.677  16.169  0.00  0.00    -0.286 NA
ATOM      5  N   UNL     1      -4.126 -13.441  15.772  0.00  0.00    -0.313 N 
ATOM      9  C   UNL     1      -4.424 -11.472  17.264  0.00  0.00    +0.145 C 
ATOM     10  C   UNL     1      -2.855 -11.381  15.372  0.00  0.00    +0.075 C 
ATOM     11  C   UNL     1      -5.816  -9.582  16.639  0.00  0.00    +0.070 C 
ATOM     12  C   UNL     1      -5.729 -10.746  17.628  0.00  0.00    +0.048 C 
ATOM     13  C   UNL     1      -4.971 -10.052  15.463  0.00  0.00    +0.104 C 
ATOM     14  C   UNL     1      -3.438 -12.652  14.776  0.00  0.00    +0.123 C 
ATOM     16  C   UNL     1      -4.699 -12.930  16.911  0.00  0.00    +0.230 C 
ATOM     33  H   UNL     1      -4.299 -14.418  15.558  0.00  0.00    +0.149 HD
ENDROOT
BRANCH  11   6
ATOM      6  N   UNL     1      -7.182  -9.246  16.273  0.00  0.00    -0.308 NA
ATOM     34  H   UNL     1      -7.190  -8.330  15.822  0.00  0.00    +0.123 HD
BRANCH   6  18
ATOM     18  C   UNL     1      -8.044  -9.203  17.447  0.00  0.00    +0.116 C 
BRANCH  18  25
ATOM     25  C   UNL     1      -9.449  -8.792  17.098  0.00  0.00    -0.033 A 
ATOM     26  C   UNL     1     -10.520  -9.241  17.870  0.00  0.00    +0.007 A 
ATOM     27  C   UNL     1      -9.681  -7.960  16.002  0.00  0.00    +0.007 A 
ATOM     28  C   UNL     1     -11.822  -8.861  17.547  0.00  0.00    +0.023 A 
ATOM     29  C   UNL     1     -10.982  -7.579  15.678  0.00  0.00    +0.023 A 
ATOM     30  C   UNL     1     -12.054  -8.029  16.450  0.00  0.00    +0.029 A 
BRANCH  30   8
ATOM      8  N   UNL     1     -13.370  -7.644  16.123  0.00  0.00    -0.336 N 
ATOM     31  C   UNL     1     -14.498  -8.447  16.553  0.00  0.00    +0.129 C 
ATOM     32  C   UNL     1     -13.612  -6.445  15.345  0.00  0.00    +0.129 C 
ENDBRANCH  30   8
ENDBRANCH  18  25
ENDBRANCH   6  18
ENDBRANCH  11   6
BRANCH  10  15
ATOM     15  C   UNL     1      -2.232 -10.501  14.289  0.00  0.00    +0.029 C 
BRANCH  15  17
ATOM     17  C   UNL     1      -2.014 -11.253  12.983  0.00  0.00    +0.097 C 
BRANCH  17  19
ATOM      2  O   UNL     1      -1.214  -9.592  11.494  0.00  0.00    -0.276 OA
ATOM      7  N   UNL     1      -3.368 -10.377  11.111  0.00  0.00    -0.301 N 
ATOM     19  C   UNL     1      -2.154 -10.332  11.797  0.00  0.00    +0.216 C 
ATOM     20  C   UNL     1      -3.563  -9.546   9.922  0.00  0.00    +0.110 C 
ATOM     21  C   UNL     1      -4.503 -11.245  11.450  0.00  0.00    +0.110 C 
ATOM     22  C   UNL     1      -4.823  -8.697  10.052  0.00  0.00    +0.050 C 
ATOM     23  C   UNL     1      -5.781 -10.428  11.605  0.00  0.00    +0.050 C 
ATOM     24  C   UNL     1      -6.042  -9.564  10.372  0.00  0.00    +0.118 C 
BRANCH  24   3
ATOM      3  O   UNL     1      -7.170  -8.735  10.624  0.00  0.00    -0.392 OA
ATOM     35  H   UNL     1      -7.202  -8.062   9.921  0.00  0.00    +0.210 HD
ENDBRANCH  24   3
ENDBRANCH  17  19
ENDBRANCH  15  17
ENDBRANCH  10  15
TORSDOF 8
ENDMDL
MODEL 7
REMARK VINA RESULT:      -6.9     20.653     24.004
REMARK  Name = 45360777
REMARK  10 active torsions:
REMARK  status: ('A' for Active; 'I' for Inactive)
REMARK    1  A    between atoms: O_3  and  C_24
REMARK    2  A    between atoms: N_6  and  C_11
REMARK    3  A    between atoms: N_6  and  C_18
REMARK    4  A    between atoms: N_8  and  C_30
REMARK    5  A    between atoms: N_8  and  C_31
REMARK    6  A    between atoms: N_8  and  C_32
REMARK    7  A    between atoms: C_10  and  C_15
REMARK    8  A    between atoms: C_15  and  C_17
REMARK    9  A    between atoms: C_17  and  C_19
REMARK   10  A    between atoms: C_18  and  C_25
REMARK                            x       y       z     vdW  Elec       q    Type
REMARK                         _______ _______ _______ _____ _____    ______ ____
ROOT
ATOM      1  O   UNL     1      -3.443 -14.486  13.720  0.00  0.00    -0.274 OA
ATOM      4  N   UNL     1      -2.549 -11.382  12.021  0.00  0.00    -0.286 NA
ATOM      5  N   UNL     1      -4.559 -13.337  12.106  0.00  0.00    -0.313 N 
ATOM      9  C   UNL     1      -2.279 -12.606  12.786  0.00  0.00    +0.145 C 
ATOM     10  C   UNL     1      -3.397 -11.579  10.850  0.00  0.00    +0.075 C 
ATOM     11  C   UNL     1      -1.908 -10.581  14.074  0.00  0.00    +0.070 C 
ATOM     12  C   UNL     1      -1.815 -12.105  14.162  0.00  0.00    +0.048 C 
ATOM     13  C   UNL     1      -2.941 -10.351  12.979  0.00  0.00    +0.104 C 
ATOM     14  C   UNL     1      -4.732 -12.188  11.247  0.00  0.00    +0.123 C 
ATOM     16  C   UNL     1      -3.478 -13.539  12.928  0.00  0.00    +0.230 C 
ATOM     33  H   UNL     1      -5.342 -13.977  12.196  0.00  0.00    +0.149 HD
ENDROOT
BRANCH  11   6
ATOM      6  N   UNL     1      -2.256  -9.956  15.340  0.00  0.00    -0.308 NA
ATOM     34  H   UNL     1      -1.458  -9.414  15.674  0.00  0.00    +0.123 HD
BRANCH   6  18
ATOM     18  C   UNL     1      -2.601 -10.958  16.340  0.00  0.00    +0.116 C 
BRANCH  18  25
ATOM     25  C   UNL     1      -4.011 -10.789  16.840  0.00  0.00    -0.033 A 
ATOM     26  C   UNL     1      -4.920 -10.017  16.116  0.00  0.00    +0.007 A 
ATOM     27  C   UNL     1      -4.410 -11.405  18.026  0.00  0.00    +0.007 A 
ATOM     28  C   UNL     1      -6.226  -9.860  16.578  0.00  0.00    +0.023 A 
ATOM     29  C   UNL     1      -5.716 -11.249  18.489  0.00  0.00    +0.023 A 
ATOM     30  C   UNL     1      -6.624 -10.477  17.765  0.00  0.00    +0.029 A 
BRANCH  30   8
ATOM      8  N   UNL     1      -7.945 -10.318  18.233  0.00  0.00    -0.336 N 
ATOM     31  C   UNL     1      -8.404 -11.047  19.399  0.00  0.00    +0.129 C 
ATOM     32  C   UNL     1      -8.864  -9.430  17.549  0.00  0.00    +0.129 C 
ENDBRANCH  30   8
ENDBRANCH  18  25
ENDBRANCH   6  18
ENDBRANCH  11   6
BRANCH  10  15
ATOM     15  C   UNL     1      -3.596 -10.299  10.038  0.00  0.00    +0.029 C 
BRANCH  15  17
ATOM     17  C   UNL     1      -5.043 -10.102   9.608  0.00  0.00    +0.097 C 
BRANCH  17  19
ATOM      2  O   UNL     1      -4.354 -11.119   7.582  0.00  0.00    -0.276 OA
ATOM      7  N   UNL     1      -6.416 -10.048   7.556  0.00  0.00    -0.301 N 
ATOM     19  C   UNL     1      -5.233 -10.474   8.159  0.00  0.00    +0.216 C 
ATOM     20  C   UNL     1      -6.693 -10.409   6.164  0.00  0.00    +0.110 C 
ATOM     21  C   UNL     1      -7.477  -9.277   8.217  0.00  0.00    +0.110 C 
ATOM     22  C   UNL     1      -7.007  -9.170   5.332  0.00  0.00    +0.050 C 
ATOM     23  C   UNL     1      -7.807  -8.019   7.421  0.00  0.00    +0.050 C 
ATOM     24  C   UNL     1      -8.133  -8.350   5.965  0.00  0.00    +0.118 C 
BRANCH  24   3
ATOM      3  O   UNL     1      -8.308  -7.135   5.246  0.00  0.00    -0.392 OA
ATOM     35  H   UNL     1      -7.495  -6.612   5.354  0.00  0.00    +0.210 HD
ENDBRANCH  24   3
ENDBRANCH  17  19
ENDBRANCH  15  17
ENDBRANCH  10  15
TORSDOF 8
ENDMDL
MODEL 8
REMARK VINA RESULT:      -6.7     30.924     36.132
REMARK  Name = 45360777
REMARK  10 active torsions:
REMARK  status: ('A' for Active; 'I' for Inactive)
REMARK    1  A    between atoms: O_3  and  C_24
REMARK    2  A    between atoms: N_6  and  C_11
REMARK    3  A    between atoms: N_6  and  C_18
REMARK    4  A    between atoms: N_8  and  C_30
REMARK    5  A    between atoms: N_8  and  C_31
REMARK    6  A    between atoms: N_8  and  C_32
REMARK    7  A    between atoms: C_10  and  C_15
REMARK    8  A    between atoms: C_15  and  C_17
REMARK    9  A    between atoms: C_17  and  C_19
REMARK   10  A    between atoms: C_18  and  C_25
REMARK                            x       y       z     vdW  Elec       q    Type
REMARK                         _______ _______ _______ _____ _____    ______ ____
ROOT
ATOM      1  O   UNL     1       8.073   7.757   7.415  0.00  0.00    -0.274 OA
ATOM      4  N   UNL     1      10.466   5.616   5.679  0.00  0.00    -0.286 NA
ATOM      5  N   UNL     1       8.201   7.205   5.213  0.00  0.00    -0.313 N 
ATOM      9  C   UNL     1       9.729   6.114   6.847  0.00  0.00    +0.145 C 
ATOM     10  C   UNL     1       9.631   5.337   4.516  0.00  0.00    +0.075 C 
ATOM     11  C   UNL     1      12.101   6.627   6.932  0.00  0.00    +0.070 C 
ATOM     12  C   UNL     1      10.803   6.773   7.728  0.00  0.00    +0.048 C 
ATOM     13  C   UNL     1      11.623   6.489   5.493  0.00  0.00    +0.104 C 
ATOM     14  C   UNL     1       8.864   6.579   4.092  0.00  0.00    +0.123 C 
ATOM     16  C   UNL     1       8.619   7.107   6.518  0.00  0.00    +0.230 C 
ATOM     33  H   UNL     1       7.448   7.854   5.009  0.00  0.00    +0.149 HD
ENDROOT
BRANCH  11   6
ATOM      6  N   UNL     1      13.021   7.736   7.133  0.00  0.00    -0.308 NA
ATOM     34  H   UNL     1      12.632   8.367   7.834  0.00  0.00    +0.123 HD
BRANCH   6  18
ATOM     18  C   UNL     1      13.229   8.474   5.893  0.00  0.00    +0.116 C 
BRANCH  18  25
ATOM     25  C   UNL     1      14.689   8.579   5.543  0.00  0.00    -0.033 A 
ATOM     26  C   UNL     1      15.500   9.502   6.202  0.00  0.00    +0.007 A 
ATOM     27  C   UNL     1      15.232   7.753   4.558  0.00  0.00    +0.007 A 
ATOM     28  C   UNL     1      16.853   9.600   5.879  0.00  0.00    +0.023 A 
ATOM     29  C   UNL     1      16.584   7.850   4.233  0.00  0.00    +0.023 A 
ATOM     30  C   UNL     1      17.396   8.774   4.893  0.00  0.00    +0.029 A 
BRANCH  30   8
ATOM      8  N   UNL     1      18.763   8.873   4.565  0.00  0.00    -0.336 N 
ATOM     31  C   UNL     1      19.388  10.171   4.405  0.00  0.00    +0.129 C 
ATOM     32  C   UNL     1      19.561   7.678   4.375  0.00  0.00    +0.129 C 
ENDBRANCH  30   8
ENDBRANCH  18  25
ENDBRANCH   6  18
ENDBRANCH  11   6
BRANCH  10  15
ATOM     15  C   UNL     1      10.420   4.752   3.345  0.00  0.00    +0.029 C 
BRANCH  15  17
ATOM     17  C   UNL     1      10.482   5.698   2.154  0.00  0.00    +0.097 C 
BRANCH  17  19
ATOM      2  O   UNL     1      10.203   4.315   0.251  0.00  0.00    -0.276 OA
ATOM      7  N   UNL     1      12.342   5.144   0.626  0.00  0.00    -0.301 N 
ATOM     19  C   UNL     1      10.988   4.989   0.924  0.00  0.00    +0.216 C 
ATOM     20  C   UNL     1      12.897   4.523  -0.578  0.00  0.00    +0.110 C 
ATOM     21  C   UNL     1      13.298   5.937   1.408  0.00  0.00    +0.110 C 
ATOM     22  C   UNL     1      14.107   3.659  -0.237  0.00  0.00    +0.050 C 
ATOM     23  C   UNL     1      14.516   5.100   1.783  0.00  0.00    +0.050 C 
ATOM     24  C   UNL     1      15.149   4.454   0.551  0.00  0.00    +0.118 C 
BRANCH  24   3
ATOM      3  O   UNL     1      16.196   3.589   0.974  0.00  0.00    -0.392 OA
ATOM     35  H   UNL     1      16.013   2.707   0.607  0.00  0.00    +0.210 HD
ENDBRANCH  24   3
ENDBRANCH  17  19
ENDBRANCH  15  17
ENDBRANCH  10  15
TORSDOF 8
ENDMDL
MODEL 9
REMARK VINA RESULT:      -6.7     20.363     23.516
REMARK  Name = 45360777
REMARK  10 active torsions:
REMARK  status: ('A' for Active; 'I' for Inactive)
REMARK    1  A    between atoms: O_3  and  C_24
REMARK    2  A    between atoms: N_6  and  C_11
REMARK    3  A    between atoms: N_6  and  C_18
REMARK    4  A    between atoms: N_8  and  C_30
REMARK    5  A    between atoms: N_8  and  C_31
REMARK    6  A    between atoms: N_8  and  C_32
REMARK    7  A    between atoms: C_10  and  C_15
REMARK    8  A    between atoms: C_15  and  C_17
REMARK    9  A    between atoms: C_17  and  C_19
REMARK   10  A    between atoms: C_18  and  C_25
REMARK                            x       y       z     vdW  Elec       q    Type
REMARK                         _______ _______ _______ _____ _____    ______ ____
ROOT
ATOM      1  O   UNL     1      -3.242 -15.138  12.127  0.00  0.00    -0.274 OA
ATOM      4  N   UNL     1      -2.367 -11.608  12.433  0.00  0.00    -0.286 NA
ATOM      5  N   UNL     1      -4.049 -13.336  10.999  0.00  0.00    -0.313 N 
ATOM      9  C   UNL     1      -2.141 -13.052  12.572  0.00  0.00    +0.145 C 
ATOM     10  C   UNL     1      -2.850 -11.199  11.118  0.00  0.00    +0.075 C 
ATOM     11  C   UNL     1      -2.391 -11.921  14.707  0.00  0.00    +0.070 C 
ATOM     12  C   UNL     1      -2.119 -13.294  14.090  0.00  0.00    +0.048 C 
ATOM     13  C   UNL     1      -3.129 -11.175  13.603  0.00  0.00    +0.104 C 
ATOM     14  C   UNL     1      -4.148 -11.912  10.774  0.00  0.00    +0.123 C 
ATOM     16  C   UNL     1      -3.199 -13.925  11.903  0.00  0.00    +0.230 C 
ATOM     33  H   UNL     1      -4.735 -13.931  10.544  0.00  0.00    +0.149 HD
ENDROOT
BRANCH  11   6
ATOM      6  N   UNL     1      -3.135 -11.993  15.954  0.00  0.00    -0.308 NA
ATOM     34  H   UNL     1      -4.053 -12.398  15.771  0.00  0.00    +0.123 HD
BRANCH   6  18
ATOM     18  C   UNL     1      -3.309 -10.668  16.536  0.00  0.00    +0.116 C 
BRANCH  18  25
ATOM     25  C   UNL     1      -4.749 -10.392  16.880  0.00  0.00    -0.033 A 
ATOM     26  C   UNL     1      -5.226 -10.672  18.161  0.00  0.00    +0.007 A 
ATOM     27  C   UNL     1      -5.606  -9.856  15.919  0.00  0.00    +0.007 A 
ATOM     28  C   UNL     1      -6.559 -10.416  18.481  0.00  0.00    +0.023 A 
ATOM     29  C   UNL     1      -6.939  -9.601  16.238  0.00  0.00    +0.023 A 
ATOM     30  C   UNL     1      -7.416  -9.880  17.519  0.00  0.00    +0.029 A 
BRANCH  30   8
ATOM      8  N   UNL     1      -8.764  -9.622  17.842  0.00  0.00    -0.336 N 
ATOM     31  C   UNL     1      -9.507 -10.542  18.681  0.00  0.00    +0.129 C 
ATOM     32  C   UNL     1      -9.427  -8.439  17.332  0.00  0.00    +0.129 C 
ENDBRANCH  30   8
ENDBRANCH  18  25
ENDBRANCH   6  18
ENDBRANCH  11   6
BRANCH  10  15
ATOM     15  C   UNL     1      -3.004  -9.684  10.987  0.00  0.00    +0.029 C 
BRANCH  15  17
ATOM     17  C   UNL     1      -3.558  -9.270   9.631  0.00  0.00    +0.097 C 
BRANCH  17  19
ATOM      2  O   UNL     1      -5.086  -7.817  10.710  0.00  0.00    -0.276 OA
ATOM      7  N   UNL     1      -5.867  -8.926   8.823  0.00  0.00    -0.301 N 
ATOM     19  C   UNL     1      -4.902  -8.601   9.776  0.00  0.00    +0.216 C 
ATOM     20  C   UNL     1      -7.181  -8.282   8.870  0.00  0.00    +0.110 C 
ATOM     21  C   UNL     1      -5.675  -9.856   7.703  0.00  0.00    +0.110 C 
ATOM     22  C   UNL     1      -8.297  -9.321   8.883  0.00  0.00    +0.050 C 
ATOM     23  C   UNL     1      -6.765 -10.923   7.693  0.00  0.00    +0.050 C 
ATOM     24  C   UNL     1      -8.159 -10.296   7.712  0.00  0.00    +0.118 C 
BRANCH  24   3
ATOM      3  O   UNL     1      -9.126 -11.331   7.830  0.00  0.00    -0.392 OA
ATOM     35  H   UNL     1      -9.808 -11.026   8.453  0.00  0.00    +0.210 HD
ENDBRANCH  24   3
ENDBRANCH  17  19
ENDBRANCH  15  17
ENDBRANCH  10  15
TORSDOF 8
ENDMDL
MODEL 10
REMARK VINA RESULT:      -6.7     27.585     31.479
REMARK  Name = 45360777
REMARK  10 active torsions:
REMARK  status: ('A' for Active; 'I' for Inactive)
REMARK    1  A    between atoms: O_3  and  C_24
REMARK    2  A    between atoms: N_6  and  C_11
REMARK    3  A    between atoms: N_6  and  C_18
REMARK    4  A    between atoms: N_8  and  C_30
REMARK    5  A    between atoms: N_8  and  C_31
REMARK    6  A    between atoms: N_8  and  C_32
REMARK    7  A    between atoms: C_10  and  C_15
REMARK    8  A    between atoms: C_15  and  C_17
REMARK    9  A    between atoms: C_17  and  C_19
REMARK   10  A    between atoms: C_18  and  C_25
REMARK                            x       y       z     vdW  Elec       q    Type
REMARK                         _______ _______ _______ _____ _____    ______ ____
ROOT
ATOM      1  O   UNL     1      10.378   7.043  21.782  0.00  0.00    -0.274 OA
ATOM      4  N   UNL     1      13.776   8.179  21.084  0.00  0.00    -0.286 NA
ATOM      5  N   UNL     1      11.775   6.492  20.074  0.00  0.00    -0.313 N 
ATOM      9  C   UNL     1      12.608   7.919  21.935  0.00  0.00    +0.145 C 
ATOM     10  C   UNL     1      14.157   7.060  20.228  0.00  0.00    +0.075 C 
ATOM     11  C   UNL     1      13.059  10.287  21.638  0.00  0.00    +0.070 C 
ATOM     12  C   UNL     1      12.118   9.315  22.352  0.00  0.00    +0.048 C 
ATOM     13  C   UNL     1      13.571   9.480  20.452  0.00  0.00    +0.104 C 
ATOM     14  C   UNL     1      13.001   6.653  19.327  0.00  0.00    +0.123 C 
ATOM     16  C   UNL     1      11.489   7.138  21.252  0.00  0.00    +0.230 C 
ATOM     33  H   UNL     1      11.028   5.959  19.639  0.00  0.00    +0.149 HD
ENDROOT
BRANCH  11   6
ATOM      6  N   UNL     1      12.411  11.531  21.256  0.00  0.00    -0.308 NA
ATOM     34  H   UNL     1      13.051  12.307  21.431  0.00  0.00    +0.123 HD
BRANCH   6  18
ATOM     18  C   UNL     1      11.190  11.742  22.023  0.00  0.00    +0.116 C 
BRANCH  18  25
ATOM     25  C   UNL     1      11.446  12.533  23.278  0.00  0.00    -0.033 A 
ATOM     26  C   UNL     1      12.435  13.517  23.293  0.00  0.00    +0.007 A 
ATOM     27  C   UNL     1      10.695  12.283  24.427  0.00  0.00    +0.007 A 
ATOM     28  C   UNL     1      12.673  14.250  24.455  0.00  0.00    +0.023 A 
ATOM     29  C   UNL     1      10.932  13.015  25.589  0.00  0.00    +0.023 A 
ATOM     30  C   UNL     1      11.921  13.999  25.604  0.00  0.00    +0.029 A 
BRANCH  30   8
ATOM      8  N   UNL     1      12.161  14.740  26.780  0.00  0.00    -0.336 N 
ATOM     31  C   UNL     1      11.122  15.578  27.344  0.00  0.00    +0.129 C 
ATOM     32  C   UNL     1      13.453  14.679  27.434  0.00  0.00    +0.129 C 
ENDBRANCH  30   8
ENDBRANCH  18  25
ENDBRANCH   6  18
ENDBRANCH  11   6
BRANCH  10  15
ATOM     15  C   UNL     1      15.418   7.339  19.411  0.00  0.00    +0.029 C 
BRANCH  15  17
ATOM     17  C   UNL     1      16.680   6.837  20.099  0.00  0.00    +0.097 C 
BRANCH  17  19
ATOM      2  O   UNL     1      16.962   9.106  20.718  0.00  0.00    -0.276 OA
ATOM      7  N   UNL     1      18.730   7.674  21.192  0.00  0.00    -0.301 N 
ATOM     19  C   UNL     1      17.462   7.978  20.697  0.00  0.00    +0.216 C 
ATOM     20  C   UNL     1      19.532   8.720  21.829  0.00  0.00    +0.110 C 
ATOM     21  C   UNL     1      19.350   6.343  21.178  0.00  0.00    +0.110 C 
ATOM     22  C   UNL     1      20.912   8.815  21.187  0.00  0.00    +0.050 C 
ATOM     23  C   UNL     1      20.728   6.395  20.526  0.00  0.00    +0.050 C 
ATOM     24  C   UNL     1      21.614   7.456  21.180  0.00  0.00    +0.118 C 
BRANCH  24   3
ATOM      3  O   UNL     1      22.833   7.547  20.453  0.00  0.00    -0.392 OA
ATOM     35  H   UNL     1      22.942   6.716  19.959  0.00  0.00    +0.210 HD
ENDBRANCH  24   3
ENDBRANCH  17  19
ENDBRANCH  15  17
ENDBRANCH  10  15
TORSDOF 8
ENDMDL
