MODEL 1
REMARK VINA RESULT:      -6.6      0.000      0.000
REMARK  Name = 28961971
REMARK  13 active torsions:
REMARK  status: ('A' for Active; 'I' for Inactive)
REMARK    1  A    between atoms: O_2  and  C_12
REMARK    2  A    between atoms: O_3  and  C_19
REMARK    3  A    between atoms: O_4  and  C_22
REMARK    4  A    between atoms: O_4  and  C_30
REMARK    5  A    between atoms: N_6  and  C_10
REMARK    6  A    between atoms: N_7  and  C_20
REMARK    7  A    between atoms: N_8  and  C_16
REMARK    8  A    between atoms: N_9  and  C_33
REMARK    9  A    between atoms: N_9  and  C_34
REMARK   10  A    between atoms: N_9  and  C_35
REMARK   11  A    between atoms: C_11  and  C_16
REMARK   12  A    between atoms: C_13  and  C_19
REMARK   13  A    between atoms: C_21  and  C_25
REMARK                            x       y       z     vdW  Elec       q    Type
REMARK                         _______ _______ _______ _____ _____    ______ ____
ROOT
ATOM      1  O   UNL     1      19.708   7.870  20.645  0.00  0.00    -0.365 OA
ATOM     10  C   UNL     1      21.354   6.505  21.691  0.00  0.00    +0.118 C 
ATOM     11  C   UNL     1      20.405   6.614  20.491  0.00  0.00    +0.155 C 
ATOM     12  C   UNL     1      20.671   7.360  22.747  0.00  0.00    +0.165 C 
ATOM     13  C   UNL     1      20.118   8.486  21.881  0.00  0.00    +0.174 C 
ENDROOT
BRANCH  10   6
ATOM      6  N   UNL     1      21.703   5.160  22.113  0.00  0.00    -0.292 NA
ATOM      7  N   UNL     1      23.454   2.971  22.662  0.00  0.00    -0.325 N 
ATOM     14  C   UNL     1      22.336   4.423  21.013  0.00  0.00    +0.104 C 
ATOM     15  C   UNL     1      22.604   5.202  23.271  0.00  0.00    +0.104 C 
ATOM     17  C   UNL     1      22.658   2.985  21.429  0.00  0.00    +0.120 C 
ATOM     18  C   UNL     1      22.935   3.790  23.762  0.00  0.00    +0.120 C 
BRANCH   7  20
ATOM     20  C   UNL     1      24.208   1.827  22.944  0.00  0.00    +0.072 A 
ATOM     22  C   UNL     1      25.257   1.443  22.109  0.00  0.00    +0.141 A 
ATOM     23  C   UNL     1      23.904   1.068  24.076  0.00  0.00    +0.027 A 
ATOM     24  C   UNL     1      26.001   0.300  22.403  0.00  0.00    +0.047 A 
ATOM     26  C   UNL     1      24.649  -0.074  24.370  0.00  0.00    +0.002 A 
ATOM     27  C   UNL     1      25.697  -0.458  23.534  0.00  0.00    +0.004 A 
BRANCH  22   4
ATOM      4  O   UNL     1      25.570   2.170  20.999  0.00  0.00    -0.493 OA
ATOM     30  C   UNL     1      26.765   2.946  21.049  0.00  0.00    +0.277 C 
ENDBRANCH  22   4
ENDBRANCH   7  20
ENDBRANCH  10   6
BRANCH  12   2
ATOM      2  O   UNL     1      19.610   6.656  23.381  0.00  0.00    -0.388 OA
ATOM     36  H   UNL     1      19.257   7.226  24.084  0.00  0.00    +0.210 HD
ENDBRANCH  12   2
BRANCH  11  16
ATOM     16  C   UNL     1      19.348   5.524  20.353  0.00  0.00    +0.137 C 
BRANCH  16   8
ATOM      5  O   UNL     1      17.207   5.439  18.441  0.00  0.00    -0.270 OA
ATOM      8  N   UNL     1      18.030   6.060  20.520  0.00  0.00    -0.309 N 
ATOM     21  C   UNL     1      17.048   5.974  19.536  0.00  0.00    +0.244 C 
ATOM     37  H   UNL     1      17.855   6.578  21.375  0.00  0.00    +0.149 HD
BRANCH  21  25
ATOM     25  C   UNL     1      15.741   6.603  19.854  0.00  0.00    +0.037 A 
ATOM     28  C   UNL     1      14.978   7.177  18.837  0.00  0.00    +0.015 A 
ATOM     29  C   UNL     1      15.277   6.621  21.169  0.00  0.00    +0.015 A 
ATOM     31  C   UNL     1      13.749   7.768  19.135  0.00  0.00    +0.024 A 
ATOM     32  C   UNL     1      14.049   7.214  21.467  0.00  0.00    +0.024 A 
ATOM     33  C   UNL     1      13.286   7.786  20.451  0.00  0.00    +0.029 A 
BRANCH  33   9
ATOM      9  N   UNL     1      12.045   8.384  20.753  0.00  0.00    -0.336 N 
ATOM     34  C   UNL     1      11.687   8.678  22.127  0.00  0.00    +0.129 C 
ATOM     35  C   UNL     1      11.114   8.718  19.694  0.00  0.00    +0.129 C 
ENDBRANCH  33   9
ENDBRANCH  21  25
ENDBRANCH  16   8
ENDBRANCH  11  16
BRANCH  13  19
ATOM     19  C   UNL     1      18.945   9.248  22.473  0.00  0.00    +0.190 C 
BRANCH  19   3
ATOM      3  O   UNL     1      17.748   8.548  22.177  0.00  0.00    -0.392 OA
ATOM     38  H   UNL     1      17.740   7.747  22.730  0.00  0.00    +0.210 HD
ENDBRANCH  19   3
ENDBRANCH  13  19
TORSDOF 10
ENDMDL
MODEL 2
REMARK VINA RESULT:      -6.4     28.449     32.891
REMARK  Name = 28961971
REMARK  13 active torsions:
REMARK  status: ('A' for Active; 'I' for Inactive)
REMARK    1  A    between atoms: O_2  and  C_12
REMARK    2  A    between atoms: O_3  and  C_19
REMARK    3  A    between atoms: O_4  and  C_22
REMARK    4  A    between atoms: O_4  and  C_30
REMARK    5  A    between atoms: N_6  and  C_10
REMARK    6  A    between atoms: N_7  and  C_20
REMARK    7  A    between atoms: N_8  and  C_16
REMARK    8  A    between atoms: N_9  and  C_33
REMARK    9  A    between atoms: N_9  and  C_34
REMARK   10  A    between atoms: N_9  and  C_35
REMARK   11  A    between atoms: C_11  and  C_16
REMARK   12  A    between atoms: C_13  and  C_19
REMARK   13  A    between atoms: C_21  and  C_25
REMARK                            x       y       z     vdW  Elec       q    Type
REMARK                         _______ _______ _______ _____ _____    ______ ____
ROOT
ATOM      1  O   UNL     1      -8.036 -11.349  19.886  0.00  0.00    -0.365 OA
ATOM     10  C   UNL     1      -6.525 -11.759  18.092  0.00  0.00    +0.118 C 
ATOM     11  C   UNL     1      -7.326 -10.675  18.822  0.00  0.00    +0.155 C 
ATOM     12  C   UNL     1      -7.327 -13.022  18.367  0.00  0.00    +0.165 C 
ATOM     13  C   UNL     1      -7.773 -12.763  19.801  0.00  0.00    +0.174 C 
ENDROOT
BRANCH  10   6
ATOM      6  N   UNL     1      -6.230 -11.505  16.692  0.00  0.00    -0.292 NA
ATOM      7  N   UNL     1      -4.579 -10.873  14.449  0.00  0.00    -0.325 N 
ATOM     14  C   UNL     1      -5.710 -10.145  16.514  0.00  0.00    +0.104 C 
ATOM     15  C   UNL     1      -5.259 -12.483  16.186  0.00  0.00    +0.104 C 
ATOM     17  C   UNL     1      -5.448  -9.846  15.037  0.00  0.00    +0.120 C 
ATOM     18  C   UNL     1      -4.981 -12.261  14.697  0.00  0.00    +0.120 C 
BRANCH   7  20
ATOM     20  C   UNL     1      -3.877 -10.552  13.282  0.00  0.00    +0.072 A 
ATOM     22  C   UNL     1      -2.484 -10.614  13.250  0.00  0.00    +0.141 A 
ATOM     23  C   UNL     1      -4.584 -10.167  12.142  0.00  0.00    +0.027 A 
ATOM     24  C   UNL     1      -1.797 -10.292  12.080  0.00  0.00    +0.047 A 
ATOM     26  C   UNL     1      -3.897  -9.845  10.971  0.00  0.00    +0.002 A 
ATOM     27  C   UNL     1      -2.504  -9.908  10.940  0.00  0.00    +0.004 A 
BRANCH  22   4
ATOM      4  O   UNL     1      -1.775 -10.988  14.353  0.00  0.00    -0.493 OA
ATOM     30  C   UNL     1      -1.202  -9.946  15.139  0.00  0.00    +0.277 C 
ENDBRANCH  22   4
ENDBRANCH   7  20
ENDBRANCH  10   6
BRANCH  12   2
ATOM      2  O   UNL     1      -8.456 -13.120  17.507  0.00  0.00    -0.388 OA
ATOM     36  H   UNL     1      -8.135 -13.387  16.630  0.00  0.00    +0.210 HD
ENDBRANCH  12   2
BRANCH  11  16
ATOM     16  C   UNL     1      -8.362  -9.916  18.000  0.00  0.00    +0.137 C 
BRANCH  16   8
ATOM      5  O   UNL     1     -10.954  -9.870  16.765  0.00  0.00    -0.270 OA
ATOM      8  N   UNL     1      -9.627  -9.880  18.669  0.00  0.00    -0.309 N 
ATOM     21  C   UNL     1     -10.842  -9.859  17.989  0.00  0.00    +0.244 C 
ATOM     37  H   UNL     1      -9.605  -9.797  19.680  0.00  0.00    +0.149 HD
BRANCH  21  25
ATOM     25  C   UNL     1     -12.066  -9.794  18.828  0.00  0.00    +0.037 A 
ATOM     28  C   UNL     1     -11.970  -9.934  20.213  0.00  0.00    +0.015 A 
ATOM     29  C   UNL     1     -13.311  -9.594  18.232  0.00  0.00    +0.015 A 
ATOM     31  C   UNL     1     -13.120  -9.872  21.001  0.00  0.00    +0.024 A 
ATOM     32  C   UNL     1     -14.460  -9.533  19.020  0.00  0.00    +0.024 A 
ATOM     33  C   UNL     1     -14.365  -9.672  20.404  0.00  0.00    +0.029 A 
BRANCH  33   9
ATOM      9  N   UNL     1     -15.527  -9.611  21.200  0.00  0.00    -0.336 N 
ATOM     34  C   UNL     1     -16.230  -8.355  21.377  0.00  0.00    +0.129 C 
ATOM     35  C   UNL     1     -16.039 -10.803  21.846  0.00  0.00    +0.129 C 
ENDBRANCH  33   9
ENDBRANCH  21  25
ENDBRANCH  16   8
ENDBRANCH  11  16
BRANCH  13  19
ATOM     19  C   UNL     1      -9.006 -13.528  20.249  0.00  0.00    +0.190 C 
BRANCH  19   3
ATOM      3  O   UNL     1     -10.162 -12.813  19.843  0.00  0.00    -0.392 OA
ATOM     38  H   UNL     1     -10.339 -12.143  20.526  0.00  0.00    +0.210 HD
ENDBRANCH  19   3
ENDBRANCH  13  19
TORSDOF 10
ENDMDL
MODEL 3
REMARK VINA RESULT:      -6.1     31.042     34.785
REMARK  Name = 28961971
REMARK  13 active torsions:
REMARK  status: ('A' for Active; 'I' for Inactive)
REMARK    1  A    between atoms: O_2  and  C_12
REMARK    2  A    between atoms: O_3  and  C_19
REMARK    3  A    between atoms: O_4  and  C_22
REMARK    4  A    between atoms: O_4  and  C_30
REMARK    5  A    between atoms: N_6  and  C_10
REMARK    6  A    between atoms: N_7  and  C_20
REMARK    7  A    between atoms: N_8  and  C_16
REMARK    8  A    between atoms: N_9  and  C_33
REMARK    9  A    between atoms: N_9  and  C_34
REMARK   10  A    between atoms: N_9  and  C_35
REMARK   11  A    between atoms: C_11  and  C_16
REMARK   12  A    between atoms: C_13  and  C_19
REMARK   13  A    between atoms: C_21  and  C_25
REMARK                            x       y       z     vdW  Elec       q    Type
REMARK                         _______ _______ _______ _____ _____    ______ ____
ROOT
ATOM      1  O   UNL     1     -14.233  -6.554  15.275  0.00  0.00    -0.365 OA
ATOM     10  C   UNL     1     -12.643  -8.069  16.194  0.00  0.00    +0.118 C 
ATOM     11  C   UNL     1     -12.908  -6.598  15.851  0.00  0.00    +0.155 C 
ATOM     12  C   UNL     1     -13.535  -8.816  15.215  0.00  0.00    +0.165 C 
ATOM     13  C   UNL     1     -14.749  -7.896  15.185  0.00  0.00    +0.174 C 
ENDROOT
BRANCH  10   6
ATOM      6  N   UNL     1     -11.250  -8.484  16.205  0.00  0.00    -0.292 NA
ATOM      7  N   UNL     1      -8.868  -9.588  17.329  0.00  0.00    -0.325 N 
ATOM     14  C   UNL     1     -10.501  -7.744  17.227  0.00  0.00    +0.104 C 
ATOM     15  C   UNL     1     -11.146  -9.927  16.455  0.00  0.00    +0.104 C 
ATOM     17  C   UNL     1      -9.020  -8.132  17.210  0.00  0.00    +0.120 C 
ATOM     18  C   UNL     1      -9.687 -10.388  16.413  0.00  0.00    +0.120 C 
BRANCH   7  20
ATOM     20  C   UNL     1      -7.639 -10.086  17.776  0.00  0.00    +0.072 A 
ATOM     22  C   UNL     1      -7.539 -10.728  19.010  0.00  0.00    +0.141 A 
ATOM     23  C   UNL     1      -6.507  -9.937  16.974  0.00  0.00    +0.027 A 
ATOM     24  C   UNL     1      -6.309 -11.220  19.443  0.00  0.00    +0.047 A 
ATOM     26  C   UNL     1      -5.275 -10.429  17.407  0.00  0.00    +0.002 A 
ATOM     27  C   UNL     1      -5.177 -11.072  18.642  0.00  0.00    +0.004 A 
BRANCH  22   4
ATOM      4  O   UNL     1      -8.634 -10.884  19.808  0.00  0.00    -0.493 OA
ATOM     30  C   UNL     1      -9.242 -12.173  19.829  0.00  0.00    +0.277 C 
ENDBRANCH  22   4
ENDBRANCH   7  20
ENDBRANCH  10   6
BRANCH  12   2
ATOM      2  O   UNL     1     -12.941  -8.895  13.925  0.00  0.00    -0.388 OA
ATOM     36  H   UNL     1     -13.322  -9.666  13.472  0.00  0.00    +0.210 HD
ENDBRANCH  12   2
BRANCH  11  16
ATOM     16  C   UNL     1     -11.960  -5.946  14.851  0.00  0.00    +0.137 C 
BRANCH  16   8
ATOM      5  O   UNL     1     -12.340  -6.369  12.036  0.00  0.00    -0.270 OA
ATOM      8  N   UNL     1     -12.670  -5.093  13.947  0.00  0.00    -0.309 N 
ATOM     21  C   UNL     1     -12.806  -5.375  12.590  0.00  0.00    +0.244 C 
ATOM     37  H   UNL     1     -13.019  -4.219  14.325  0.00  0.00    +0.149 HD
BRANCH  21  25
ATOM     25  C   UNL     1     -13.549  -4.375  11.780  0.00  0.00    +0.037 A 
ATOM     28  C   UNL     1     -14.583  -3.639  12.358  0.00  0.00    +0.015 A 
ATOM     29  C   UNL     1     -13.213  -4.174  10.442  0.00  0.00    +0.015 A 
ATOM     31  C   UNL     1     -15.280  -2.700  11.597  0.00  0.00    +0.024 A 
ATOM     32  C   UNL     1     -13.912  -3.236   9.681  0.00  0.00    +0.024 A 
ATOM     33  C   UNL     1     -14.945  -2.500  10.258  0.00  0.00    +0.029 A 
BRANCH  33   9
ATOM      9  N   UNL     1     -15.649  -1.551   9.489  0.00  0.00    -0.336 N 
ATOM     34  C   UNL     1     -16.725  -0.780  10.079  0.00  0.00    +0.129 C 
ATOM     35  C   UNL     1     -15.303  -1.330   8.099  0.00  0.00    +0.129 C 
ENDBRANCH  33   9
ENDBRANCH  21  25
ENDBRANCH  16   8
ENDBRANCH  11  16
BRANCH  13  19
ATOM     19  C   UNL     1     -15.626  -8.012  13.950  0.00  0.00    +0.190 C 
BRANCH  19   3
ATOM      3  O   UNL     1     -15.081  -7.198  12.924  0.00  0.00    -0.392 OA
ATOM     38  H   UNL     1     -14.243  -7.607  12.648  0.00  0.00    +0.210 HD
ENDBRANCH  19   3
ENDBRANCH  13  19
TORSDOF 10
ENDMDL
MODEL 4
REMARK VINA RESULT:      -6.1     16.621     19.870
REMARK  Name = 28961971
REMARK  13 active torsions:
REMARK  status: ('A' for Active; 'I' for Inactive)
REMARK    1  A    between atoms: O_2  and  C_12
REMARK    2  A    between atoms: O_3  and  C_19
REMARK    3  A    between atoms: O_4  and  C_22
REMARK    4  A    between atoms: O_4  and  C_30
REMARK    5  A    between atoms: N_6  and  C_10
REMARK    6  A    between atoms: N_7  and  C_20
REMARK    7  A    between atoms: N_8  and  C_16
REMARK    8  A    between atoms: N_9  and  C_33
REMARK    9  A    between atoms: N_9  and  C_34
REMARK   10  A    between atoms: N_9  and  C_35
REMARK   11  A    between atoms: C_11  and  C_16
REMARK   12  A    between atoms: C_13  and  C_19
REMARK   13  A    between atoms: C_21  and  C_25
REMARK                            x       y       z     vdW  Elec       q    Type
REMARK                         _______ _______ _______ _____ _____    ______ ____
ROOT
ATOM      1  O   UNL     1       8.675   6.719   8.402  0.00  0.00    -0.365 OA
ATOM     10  C   UNL     1      10.697   7.476   7.399  0.00  0.00    +0.118 C 
ATOM     11  C   UNL     1       9.168   7.570   7.343  0.00  0.00    +0.155 C 
ATOM     12  C   UNL     1      10.934   6.113   8.032  0.00  0.00    +0.165 C 
ATOM     13  C   UNL     1       9.792   6.070   9.040  0.00  0.00    +0.174 C 
ENDROOT
BRANCH  10   6
ATOM      6  N   UNL     1      11.400   7.710   6.150  0.00  0.00    -0.292 NA
ATOM      7  N   UNL     1      13.442   8.792   4.470  0.00  0.00    -0.325 N 
ATOM     14  C   UNL     1      11.414   9.141   5.827  0.00  0.00    +0.104 C 
ATOM     15  C   UNL     1      12.776   7.203   6.231  0.00  0.00    +0.104 C 
ATOM     17  C   UNL     1      12.103   9.395   4.484  0.00  0.00    +0.120 C 
ATOM     18  C   UNL     1      13.511   7.392   4.902  0.00  0.00    +0.120 C 
BRANCH   7  20
ATOM     20  C   UNL     1      14.373   9.281   3.548  0.00  0.00    +0.072 A 
ATOM     22  C   UNL     1      15.528   9.932   3.981  0.00  0.00    +0.141 A 
ATOM     23  C   UNL     1      14.140   9.110   2.183  0.00  0.00    +0.027 A 
ATOM     24  C   UNL     1      16.449  10.414   3.051  0.00  0.00    +0.047 A 
ATOM     26  C   UNL     1      15.061   9.592   1.252  0.00  0.00    +0.002 A 
ATOM     27  C   UNL     1      16.216  10.243   1.687  0.00  0.00    +0.004 A 
BRANCH  22   4
ATOM      4  O   UNL     1      15.774  10.109   5.311  0.00  0.00    -0.493 OA
ATOM     30  C   UNL     1      16.630   9.160   5.942  0.00  0.00    +0.277 C 
ENDBRANCH  22   4
ENDBRANCH   7  20
ENDBRANCH  10   6
BRANCH  12   2
ATOM      2  O   UNL     1      10.794   5.066   7.080  0.00  0.00    -0.388 OA
ATOM     36  H   UNL     1      11.602   4.526   7.115  0.00  0.00    +0.210 HD
ENDBRANCH  12   2
BRANCH  11  16
ATOM     16  C   UNL     1       8.500   7.114   6.051  0.00  0.00    +0.137 C 
BRANCH  16   8
ATOM      5  O   UNL     1       8.663   7.411   3.199  0.00  0.00    -0.270 OA
ATOM      8  N   UNL     1       9.443   6.482   5.177  0.00  0.00    -0.309 N 
ATOM     21  C   UNL     1       9.450   6.683   3.799  0.00  0.00    +0.244 C 
ATOM     37  H   UNL     1      10.077   5.813   5.600  0.00  0.00    +0.149 HD
BRANCH  21  25
ATOM     25  C   UNL     1      10.476   5.934   3.030  0.00  0.00    +0.037 A 
ATOM     28  C   UNL     1      11.312   6.608   2.140  0.00  0.00    +0.015 A 
ATOM     29  C   UNL     1      10.602   4.555   3.195  0.00  0.00    +0.015 A 
ATOM     31  C   UNL     1      12.275   5.903   1.417  0.00  0.00    +0.024 A 
ATOM     32  C   UNL     1      11.564   3.850   2.471  0.00  0.00    +0.024 A 
ATOM     33  C   UNL     1      12.401   4.524   1.583  0.00  0.00    +0.029 A 
BRANCH  33   9
ATOM      9  N   UNL     1      13.373   3.811   0.853  0.00  0.00    -0.336 N 
ATOM     34  C   UNL     1      13.065   3.285  -0.462  0.00  0.00    +0.129 C 
ATOM     35  C   UNL     1      14.697   3.602   1.404  0.00  0.00    +0.129 C 
ENDBRANCH  33   9
ENDBRANCH  21  25
ENDBRANCH  16   8
ENDBRANCH  11  16
BRANCH  13  19
ATOM     19  C   UNL     1       9.373   4.682   9.493  0.00  0.00    +0.190 C 
BRANCH  19   3
ATOM      3  O   UNL     1       9.997   4.398  10.735  0.00  0.00    -0.392 OA
ATOM     38  H   UNL     1       9.336   3.949  11.290  0.00  0.00    +0.210 HD
ENDBRANCH  19   3
ENDBRANCH  13  19
TORSDOF 10
ENDMDL
MODEL 5
REMARK VINA RESULT:      -6.1     29.888     32.855
REMARK  Name = 28961971
REMARK  13 active torsions:
REMARK  status: ('A' for Active; 'I' for Inactive)
REMARK    1  A    between atoms: O_2  and  C_12
REMARK    2  A    between atoms: O_3  and  C_19
REMARK    3  A    between atoms: O_4  and  C_22
REMARK    4  A    between atoms: O_4  and  C_30
REMARK    5  A    between atoms: N_6  and  C_10
REMARK    6  A    between atoms: N_7  and  C_20
REMARK    7  A    between atoms: N_8  and  C_16
REMARK    8  A    between atoms: N_9  and  C_33
REMARK    9  A    between atoms: N_9  and  C_34
REMARK   10  A    between atoms: N_9  and  C_35
REMARK   11  A    between atoms: C_11  and  C_16
REMARK   12  A    between atoms: C_13  and  C_19
REMARK   13  A    between atoms: C_21  and  C_25
REMARK                            x       y       z     vdW  Elec       q    Type
REMARK                         _______ _______ _______ _____ _____    ______ ____
ROOT
ATOM      1  O   UNL     1      -4.396 -12.542  17.121  0.00  0.00    -0.365 OA
ATOM     10  C   UNL     1      -6.554 -11.537  17.125  0.00  0.00    +0.118 C 
ATOM     11  C   UNL     1      -5.322 -11.838  16.263  0.00  0.00    +0.155 C 
ATOM     12  C   UNL     1      -5.986 -11.505  18.536  0.00  0.00    +0.165 C 
ATOM     13  C   UNL     1      -4.953 -12.622  18.447  0.00  0.00    +0.174 C 
ENDROOT
BRANCH  10   6
ATOM      6  N   UNL     1      -7.335 -10.373  16.744  0.00  0.00    -0.292 NA
ATOM      7  N   UNL     1      -9.718  -8.858  16.314  0.00  0.00    -0.325 N 
ATOM     14  C   UNL     1      -8.225 -10.693  15.622  0.00  0.00    +0.104 C 
ATOM     15  C   UNL     1      -8.122  -9.887  17.884  0.00  0.00    +0.104 C 
ATOM     17  C   UNL     1      -9.012  -9.459  15.176  0.00  0.00    +0.120 C 
ATOM     18  C   UNL     1      -8.906  -8.625  17.513  0.00  0.00    +0.120 C 
BRANCH   7  20
ATOM     20  C   UNL     1     -10.813  -8.030  16.045  0.00  0.00    +0.072 A 
ATOM     22  C   UNL     1     -12.115  -8.481  16.259  0.00  0.00    +0.141 A 
ATOM     23  C   UNL     1     -10.592  -6.740  15.561  0.00  0.00    +0.027 A 
ATOM     24  C   UNL     1     -13.197  -7.644  15.987  0.00  0.00    +0.047 A 
ATOM     26  C   UNL     1     -11.675  -5.902  15.290  0.00  0.00    +0.002 A 
ATOM     27  C   UNL     1     -12.977  -6.354  15.504  0.00  0.00    +0.004 A 
BRANCH  22   4
ATOM      4  O   UNL     1     -12.352  -9.738  16.732  0.00  0.00    -0.493 OA
ATOM     30  C   UNL     1     -12.703  -9.856  18.108  0.00  0.00    +0.277 C 
ENDBRANCH  22   4
ENDBRANCH   7  20
ENDBRANCH  10   6
BRANCH  12   2
ATOM      2  O   UNL     1      -5.352 -10.263  18.814  0.00  0.00    -0.388 OA
ATOM     36  H   UNL     1      -5.416  -9.715  18.014  0.00  0.00    +0.210 HD
ENDBRANCH  12   2
BRANCH  11  16
ATOM     16  C   UNL     1      -4.580 -10.638  15.686  0.00  0.00    +0.137 C 
BRANCH  16   8
ATOM      5  O   UNL     1      -2.978 -10.892  13.316  0.00  0.00    -0.270 OA
ATOM      8  N   UNL     1      -4.994 -10.372  14.341  0.00  0.00    -0.309 N 
ATOM     21  C   UNL     1      -4.148 -10.522  13.245  0.00  0.00    +0.244 C 
ATOM     37  H   UNL     1      -5.928  -9.995  14.219  0.00  0.00    +0.149 HD
BRANCH  21  25
ATOM     25  C   UNL     1      -4.721 -10.180  11.919  0.00  0.00    +0.037 A 
ATOM     28  C   UNL     1      -5.794  -9.292  11.830  0.00  0.00    +0.015 A 
ATOM     29  C   UNL     1      -4.188 -10.747  10.761  0.00  0.00    +0.015 A 
ATOM     31  C   UNL     1      -6.332  -8.971  10.583  0.00  0.00    +0.024 A 
ATOM     32  C   UNL     1      -4.727 -10.426   9.515  0.00  0.00    +0.024 A 
ATOM     33  C   UNL     1      -5.798  -9.539   9.426  0.00  0.00    +0.029 A 
BRANCH  33   9
ATOM      9  N   UNL     1      -6.342  -9.215   8.166  0.00  0.00    -0.336 N 
ATOM     34  C   UNL     1      -5.795  -9.800   6.958  0.00  0.00    +0.129 C 
ATOM     35  C   UNL     1      -7.459  -8.297   8.063  0.00  0.00    +0.129 C 
ENDBRANCH  33   9
ENDBRANCH  21  25
ENDBRANCH  16   8
ENDBRANCH  11  16
BRANCH  13  19
ATOM     19  C   UNL     1      -3.829 -12.553  19.466  0.00  0.00    +0.190 C 
BRANCH  19   3
ATOM      3  O   UNL     1      -2.744 -11.832  18.904  0.00  0.00    -0.392 OA
ATOM     38  H   UNL     1      -2.426 -11.216  19.586  0.00  0.00    +0.210 HD
ENDBRANCH  19   3
ENDBRANCH  13  19
TORSDOF 10
ENDMDL
MODEL 6
REMARK VINA RESULT:      -6.0     17.424     21.704
REMARK  Name = 28961971
REMARK  13 active torsions:
REMARK  status: ('A' for Active; 'I' for Inactive)
REMARK    1  A    between atoms: O_2  and  C_12
REMARK    2  A    between atoms: O_3  and  C_19
REMARK    3  A    between atoms: O_4  and  C_22
REMARK    4  A    between atoms: O_4  and  C_30
REMARK    5  A    between atoms: N_6  and  C_10
REMARK    6  A    between atoms: N_7  and  C_20
REMARK    7  A    between atoms: N_8  and  C_16
REMARK    8  A    between atoms: N_9  and  C_33
REMARK    9  A    between atoms: N_9  and  C_34
REMARK   10  A    between atoms: N_9  and  C_35
REMARK   11  A    between atoms: C_11  and  C_16
REMARK   12  A    between atoms: C_13  and  C_19
REMARK   13  A    between atoms: C_21  and  C_25
REMARK                            x       y       z     vdW  Elec       q    Type
REMARK                         _______ _______ _______ _____ _____    ______ ____
ROOT
ATOM      1  O   UNL     1       9.327   7.139   7.859  0.00  0.00    -0.365 OA
ATOM     10  C   UNL     1      10.570   6.576   5.908  0.00  0.00    +0.118 C 
ATOM     11  C   UNL     1       9.421   7.436   6.448  0.00  0.00    +0.155 C 
ATOM     12  C   UNL     1      10.606   5.405   6.878  0.00  0.00    +0.165 C 
ATOM     13  C   UNL     1      10.286   6.115   8.187  0.00  0.00    +0.174 C 
ENDROOT
BRANCH  10   6
ATOM      6  N   UNL     1      10.497   6.215   4.503  0.00  0.00    -0.292 NA
ATOM      7  N   UNL     1      11.432   5.100   2.045  0.00  0.00    -0.325 N 
ATOM     14  C   UNL     1      11.562   6.882   3.744  0.00  0.00    +0.104 C 
ATOM     15  C   UNL     1      10.602   4.760   4.340  0.00  0.00    +0.104 C 
ATOM     17  C   UNL     1      11.461   6.554   2.253  0.00  0.00    +0.120 C 
ATOM     18  C   UNL     1      10.470   4.361   2.868  0.00  0.00    +0.120 C 
BRANCH   7  20
ATOM     20  C   UNL     1      11.791   4.609   0.785  0.00  0.00    +0.072 A 
ATOM     22  C   UNL     1      12.886   3.757   0.639  0.00  0.00    +0.141 A 
ATOM     23  C   UNL     1      11.040   4.977  -0.332  0.00  0.00    +0.027 A 
ATOM     24  C   UNL     1      13.231   3.274  -0.623  0.00  0.00    +0.047 A 
ATOM     26  C   UNL     1      11.385   4.494  -1.594  0.00  0.00    +0.002 A 
ATOM     27  C   UNL     1      12.480   3.642  -1.739  0.00  0.00    +0.004 A 
BRANCH  22   4
ATOM      4  O   UNL     1      13.632   3.386   1.718  0.00  0.00    -0.493 OA
ATOM     30  C   UNL     1      15.044   3.547   1.615  0.00  0.00    +0.277 C 
ENDBRANCH  22   4
ENDBRANCH   7  20
ENDBRANCH  10   6
BRANCH  12   2
ATOM      2  O   UNL     1       9.600   4.447   6.575  0.00  0.00    -0.388 OA
ATOM     36  H   UNL     1       8.967   4.866   5.969  0.00  0.00    +0.210 HD
ENDBRANCH  12   2
BRANCH  11  16
ATOM     16  C   UNL     1       8.043   7.195   5.842  0.00  0.00    +0.137 C 
BRANCH  16   8
ATOM      5  O   UNL     1       7.173   9.751   4.863  0.00  0.00    -0.270 OA
ATOM      8  N   UNL     1       7.998   7.617   4.475  0.00  0.00    -0.309 N 
ATOM     21  C   UNL     1       7.560   8.881   4.087  0.00  0.00    +0.244 C 
ATOM     37  H   UNL     1       8.237   6.921   3.777  0.00  0.00    +0.149 HD
BRANCH  21  25
ATOM     25  C   UNL     1       7.548   9.154   2.627  0.00  0.00    +0.037 A 
ATOM     28  C   UNL     1       6.476   9.838   2.054  0.00  0.00    +0.015 A 
ATOM     29  C   UNL     1       8.608   8.726   1.829  0.00  0.00    +0.015 A 
ATOM     31  C   UNL     1       6.465  10.095   0.682  0.00  0.00    +0.024 A 
ATOM     32  C   UNL     1       8.597   8.982   0.457  0.00  0.00    +0.024 A 
ATOM     33  C   UNL     1       7.526   9.666  -0.116  0.00  0.00    +0.029 A 
BRANCH  33   9
ATOM      9  N   UNL     1       7.515   9.924  -1.502  0.00  0.00    -0.336 N 
ATOM     34  C   UNL     1       6.281   9.834  -2.256  0.00  0.00    +0.129 C 
ATOM     35  C   UNL     1       8.738  10.290  -2.189  0.00  0.00    +0.129 C 
ENDBRANCH  33   9
ENDBRANCH  21  25
ENDBRANCH  16   8
ENDBRANCH  11  16
BRANCH  13  19
ATOM     19  C   UNL     1       9.720   5.234   9.287  0.00  0.00    +0.190 C 
BRANCH  19   3
ATOM      3  O   UNL     1      10.259   3.929   9.151  0.00  0.00    -0.392 OA
ATOM     38  H   UNL     1      10.126   3.475  10.001  0.00  0.00    +0.210 HD
ENDBRANCH  19   3
ENDBRANCH  13  19
TORSDOF 10
ENDMDL
MODEL 7
REMARK VINA RESULT:      -6.0     28.403     32.482
REMARK  Name = 28961971
REMARK  13 active torsions:
REMARK  status: ('A' for Active; 'I' for Inactive)
REMARK    1  A    between atoms: O_2  and  C_12
REMARK    2  A    between atoms: O_3  and  C_19
REMARK    3  A    between atoms: O_4  and  C_22
REMARK    4  A    between atoms: O_4  and  C_30
REMARK    5  A    between atoms: N_6  and  C_10
REMARK    6  A    between atoms: N_7  and  C_20
REMARK    7  A    between atoms: N_8  and  C_16
REMARK    8  A    between atoms: N_9  and  C_33
REMARK    9  A    between atoms: N_9  and  C_34
REMARK   10  A    between atoms: N_9  and  C_35
REMARK   11  A    between atoms: C_11  and  C_16
REMARK   12  A    between atoms: C_13  and  C_19
REMARK   13  A    between atoms: C_21  and  C_25
REMARK                            x       y       z     vdW  Elec       q    Type
REMARK                         _______ _______ _______ _____ _____    ______ ____
ROOT
ATOM      1  O   UNL     1      -7.756 -10.215   7.432  0.00  0.00    -0.365 OA
ATOM     10  C   UNL     1      -6.332 -10.947   9.193  0.00  0.00    +0.118 C 
ATOM     11  C   UNL     1      -7.412  -9.930   8.806  0.00  0.00    +0.155 C 
ATOM     12  C   UNL     1      -5.691 -11.292   7.858  0.00  0.00    +0.165 C 
ATOM     13  C   UNL     1      -6.914 -11.279   6.948  0.00  0.00    +0.174 C 
ENDROOT
BRANCH  10   6
ATOM      6  N   UNL     1      -5.409 -10.536  10.237  0.00  0.00    -0.292 NA
ATOM      7  N   UNL     1      -4.037 -10.743  12.734  0.00  0.00    -0.325 N 
ATOM     14  C   UNL     1      -6.125 -10.308  11.497  0.00  0.00    +0.104 C 
ATOM     15  C   UNL     1      -4.367 -11.553  10.431  0.00  0.00    +0.104 C 
ATOM     17  C   UNL     1      -5.170  -9.820  12.590  0.00  0.00    +0.120 C 
ATOM     18  C   UNL     1      -3.354 -11.107  11.489  0.00  0.00    +0.120 C 
BRANCH   7  20
ATOM     20  C   UNL     1      -3.324 -10.725  13.937  0.00  0.00    +0.072 A 
ATOM     22  C   UNL     1      -3.928 -11.129  15.128  0.00  0.00    +0.141 A 
ATOM     23  C   UNL     1      -1.994 -10.300  13.939  0.00  0.00    +0.027 A 
ATOM     24  C   UNL     1      -3.205 -11.107  16.320  0.00  0.00    +0.047 A 
ATOM     26  C   UNL     1      -1.270 -10.279  15.132  0.00  0.00    +0.002 A 
ATOM     27  C   UNL     1      -1.876 -10.683  16.322  0.00  0.00    +0.004 A 
BRANCH  22   4
ATOM      4  O   UNL     1      -5.225 -11.548  15.147  0.00  0.00    -0.493 OA
ATOM     30  C   UNL     1      -6.098 -10.909  16.076  0.00  0.00    +0.277 C 
ENDBRANCH  22   4
ENDBRANCH   7  20
ENDBRANCH  10   6
BRANCH  12   2
ATOM      2  O   UNL     1      -4.762 -10.293   7.453  0.00  0.00    -0.388 OA
ATOM     36  H   UNL     1      -4.734  -9.617   8.151  0.00  0.00    +0.210 HD
ENDBRANCH  12   2
BRANCH  11  16
ATOM     16  C   UNL     1      -7.024  -8.457   8.878  0.00  0.00    +0.137 C 
BRANCH  16   8
ATOM      5  O   UNL     1      -8.194  -6.601   7.026  0.00  0.00    -0.270 OA
ATOM      8  N   UNL     1      -8.171  -7.631   9.105  0.00  0.00    -0.309 N 
ATOM     21  C   UNL     1      -8.673  -6.754   8.147  0.00  0.00    +0.244 C 
ATOM     37  H   UNL     1      -8.572  -7.656  10.036  0.00  0.00    +0.149 HD
BRANCH  21  25
ATOM     25  C   UNL     1      -9.854  -5.946   8.547  0.00  0.00    +0.037 A 
ATOM     28  C   UNL     1      -9.726  -4.571   8.736  0.00  0.00    +0.015 A 
ATOM     29  C   UNL     1     -11.090  -6.564   8.735  0.00  0.00    +0.015 A 
ATOM     31  C   UNL     1     -10.835  -3.812   9.112  0.00  0.00    +0.024 A 
ATOM     32  C   UNL     1     -12.199  -5.806   9.113  0.00  0.00    +0.024 A 
ATOM     33  C   UNL     1     -12.071  -4.430   9.301  0.00  0.00    +0.029 A 
BRANCH  33   9
ATOM      9  N   UNL     1     -13.192  -3.665   9.681  0.00  0.00    -0.336 N 
ATOM     34  C   UNL     1     -13.475  -3.423  11.082  0.00  0.00    +0.129 C 
ATOM     35  C   UNL     1     -14.073  -3.103   8.676  0.00  0.00    +0.129 C 
ENDBRANCH  33   9
ENDBRANCH  21  25
ENDBRANCH  16   8
ENDBRANCH  11  16
BRANCH  13  19
ATOM     19  C   UNL     1      -6.628 -11.059   5.473  0.00  0.00    +0.190 C 
BRANCH  19   3
ATOM      3  O   UNL     1      -6.697  -9.670   5.195  0.00  0.00    -0.392 OA
ATOM     38  H   UNL     1      -5.782  -9.348   5.117  0.00  0.00    +0.210 HD
ENDBRANCH  19   3
ENDBRANCH  13  19
TORSDOF 10
ENDMDL
MODEL 8
REMARK VINA RESULT:      -6.0     30.647     34.854
REMARK  Name = 28961971
REMARK  13 active torsions:
REMARK  status: ('A' for Active; 'I' for Inactive)
REMARK    1  A    between atoms: O_2  and  C_12
REMARK    2  A    between atoms: O_3  and  C_19
REMARK    3  A    between atoms: O_4  and  C_22
REMARK    4  A    between atoms: O_4  and  C_30
REMARK    5  A    between atoms: N_6  and  C_10
REMARK    6  A    between atoms: N_7  and  C_20
REMARK    7  A    between atoms: N_8  and  C_16
REMARK    8  A    between atoms: N_9  and  C_33
REMARK    9  A    between atoms: N_9  and  C_34
REMARK   10  A    between atoms: N_9  and  C_35
REMARK   11  A    between atoms: C_11  and  C_16
REMARK   12  A    between atoms: C_13  and  C_19
REMARK   13  A    between atoms: C_21  and  C_25
REMARK                            x       y       z     vdW  Elec       q    Type
REMARK                         _______ _______ _______ _____ _____    ______ ____
ROOT
ATOM      1  O   UNL     1      -6.185 -11.119  17.084  0.00  0.00    -0.365 OA
ATOM     10  C   UNL     1      -8.321 -11.435  18.086  0.00  0.00    +0.118 C 
ATOM     11  C   UNL     1      -7.567 -10.713  16.963  0.00  0.00    +0.155 C 
ATOM     12  C   UNL     1      -7.240 -11.667  19.131  0.00  0.00    +0.165 C 
ATOM     13  C   UNL     1      -6.046 -11.973  18.235  0.00  0.00    +0.174 C 
ENDROOT
BRANCH  10   6
ATOM      6  N   UNL     1      -9.524 -10.783  18.574  0.00  0.00    -0.292 NA
ATOM      7  N   UNL     1     -12.119 -10.650  19.759  0.00  0.00    -0.325 N 
ATOM     14  C   UNL     1     -10.701 -11.257  17.837  0.00  0.00    +0.104 C 
ATOM     15  C   UNL     1      -9.699 -11.034  20.010  0.00  0.00    +0.104 C 
ATOM     17  C   UNL     1     -11.968 -10.536  18.303  0.00  0.00    +0.120 C 
ATOM     18  C   UNL     1     -10.933 -10.306  20.549  0.00  0.00    +0.120 C 
BRANCH   7  20
ATOM     20  C   UNL     1     -13.394 -10.463  20.304  0.00  0.00    +0.072 A 
ATOM     22  C   UNL     1     -14.068 -11.519  20.917  0.00  0.00    +0.141 A 
ATOM     23  C   UNL     1     -13.992  -9.203  20.232  0.00  0.00    +0.027 A 
ATOM     24  C   UNL     1     -15.338 -11.318  21.457  0.00  0.00    +0.047 A 
ATOM     26  C   UNL     1     -15.262  -9.002  20.772  0.00  0.00    +0.002 A 
ATOM     27  C   UNL     1     -15.935 -10.059  21.385  0.00  0.00    +0.004 A 
BRANCH  22   4
ATOM      4  O   UNL     1     -13.501 -12.756  20.999  0.00  0.00    -0.493 OA
ATOM     30  C   UNL     1     -12.962 -13.140  22.261  0.00  0.00    +0.277 C 
ENDBRANCH  22   4
ENDBRANCH   7  20
ENDBRANCH  10   6
BRANCH  12   2
ATOM      2  O   UNL     1      -6.996 -10.494  19.898  0.00  0.00    -0.388 OA
ATOM     36  H   UNL     1      -7.102  -9.729  19.308  0.00  0.00    +0.210 HD
ENDBRANCH  12   2
BRANCH  11  16
ATOM     16  C   UNL     1      -7.593  -9.189  16.990  0.00  0.00    +0.137 C 
BRANCH  16   8
ATOM      5  O   UNL     1      -9.877  -7.605  17.712  0.00  0.00    -0.270 OA
ATOM      8  N   UNL     1      -8.592  -8.674  16.103  0.00  0.00    -0.309 N 
ATOM     21  C   UNL     1      -9.672  -7.911  16.539  0.00  0.00    +0.244 C 
ATOM     37  H   UNL     1      -8.520  -8.949  15.129  0.00  0.00    +0.149 HD
BRANCH  21  25
ATOM     25  C   UNL     1     -10.635  -7.474  15.496  0.00  0.00    +0.037 A 
ATOM     28  C   UNL     1     -11.085  -6.154  15.470  0.00  0.00    +0.015 A 
ATOM     29  C   UNL     1     -11.090  -8.385  14.543  0.00  0.00    +0.015 A 
ATOM     31  C   UNL     1     -11.989  -5.745  14.490  0.00  0.00    +0.024 A 
ATOM     32  C   UNL     1     -11.996  -7.975  13.564  0.00  0.00    +0.024 A 
ATOM     33  C   UNL     1     -12.445  -6.656  13.537  0.00  0.00    +0.029 A 
BRANCH  33   9
ATOM      9  N   UNL     1     -13.360  -6.243  12.547  0.00  0.00    -0.336 N 
ATOM     34  C   UNL     1     -13.570  -4.833  12.283  0.00  0.00    +0.129 C 
ATOM     35  C   UNL     1     -14.097  -7.223  11.775  0.00  0.00    +0.129 C 
ENDBRANCH  33   9
ENDBRANCH  21  25
ENDBRANCH  16   8
ENDBRANCH  11  16
BRANCH  13  19
ATOM     19  C   UNL     1      -4.682 -11.745  18.864  0.00  0.00    +0.190 C 
BRANCH  19   3
ATOM      3  O   UNL     1      -3.940 -12.952  18.798  0.00  0.00    -0.392 OA
ATOM     38  H   UNL     1      -4.517 -13.621  18.391  0.00  0.00    +0.210 HD
ENDBRANCH  19   3
ENDBRANCH  13  19
TORSDOF 10
ENDMDL
MODEL 9
REMARK VINA RESULT:      -6.0     17.402     20.238
REMARK  Name = 28961971
REMARK  13 active torsions:
REMARK  status: ('A' for Active; 'I' for Inactive)
REMARK    1  A    between atoms: O_2  and  C_12
REMARK    2  A    between atoms: O_3  and  C_19
REMARK    3  A    between atoms: O_4  and  C_22
REMARK    4  A    between atoms: O_4  and  C_30
REMARK    5  A    between atoms: N_6  and  C_10
REMARK    6  A    between atoms: N_7  and  C_20
REMARK    7  A    between atoms: N_8  and  C_16
REMARK    8  A    between atoms: N_9  and  C_33
REMARK    9  A    between atoms: N_9  and  C_34
REMARK   10  A    between atoms: N_9  and  C_35
REMARK   11  A    between atoms: C_11  and  C_16
REMARK   12  A    between atoms: C_13  and  C_19
REMARK   13  A    between atoms: C_21  and  C_25
REMARK                            x       y       z     vdW  Elec       q    Type
REMARK                         _______ _______ _______ _____ _____    ______ ____
ROOT
ATOM      1  O   UNL     1      11.005   7.202   7.336  0.00  0.00    -0.365 OA
ATOM     10  C   UNL     1      11.211   5.855   5.384  0.00  0.00    +0.118 C 
ATOM     11  C   UNL     1      11.457   7.253   5.964  0.00  0.00    +0.155 C 
ATOM     12  C   UNL     1      10.067   5.326   6.237  0.00  0.00    +0.165 C 
ATOM     13  C   UNL     1      10.444   5.901   7.597  0.00  0.00    +0.174 C 
ENDROOT
BRANCH  10   6
ATOM      6  N   UNL     1      10.996   5.785   3.949  0.00  0.00    -0.292 NA
ATOM      7  N   UNL     1      11.458   4.859   1.286  0.00  0.00    -0.325 N 
ATOM     14  C   UNL     1      12.212   6.178   3.227  0.00  0.00    +0.104 C 
ATOM     15  C   UNL     1      10.598   4.428   3.554  0.00  0.00    +0.104 C 
ATOM     17  C   UNL     1      11.983   6.162   1.714  0.00  0.00    +0.120 C 
ATOM     18  C   UNL     1      10.314   4.353   2.052  0.00  0.00    +0.120 C 
BRANCH   7  20
ATOM     20  C   UNL     1      11.608   4.499  -0.057  0.00  0.00    +0.072 A 
ATOM     22  C   UNL     1      12.687   3.717  -0.468  0.00  0.00    +0.141 A 
ATOM     23  C   UNL     1      10.663   4.929  -0.991  0.00  0.00    +0.027 A 
ATOM     24  C   UNL     1      12.824   3.365  -1.810  0.00  0.00    +0.047 A 
ATOM     26  C   UNL     1      10.800   4.577  -2.334  0.00  0.00    +0.002 A 
ATOM     27  C   UNL     1      11.879   3.794  -2.743  0.00  0.00    +0.004 A 
BRANCH  22   4
ATOM      4  O   UNL     1      13.620   3.287   0.428  0.00  0.00    -0.493 OA
ATOM     30  C   UNL     1      14.858   3.992   0.463  0.00  0.00    +0.277 C 
ENDBRANCH  22   4
ENDBRANCH   7  20
ENDBRANCH  10   6
BRANCH  12   2
ATOM      2  O   UNL     1       8.815   5.845   5.809  0.00  0.00    -0.388 OA
ATOM     36  H   UNL     1       8.538   5.339   5.027  0.00  0.00    +0.210 HD
ENDBRANCH  12   2
BRANCH  11  16
ATOM     16  C   UNL     1      10.729   8.411   5.292  0.00  0.00    +0.137 C 
BRANCH  16   8
ATOM      5  O   UNL     1      11.068  11.249   5.575  0.00  0.00    -0.270 OA
ATOM      8  N   UNL     1      10.097   9.256   6.261  0.00  0.00    -0.309 N 
ATOM     21  C   UNL     1      10.320  10.629   6.327  0.00  0.00    +0.244 C 
ATOM     37  H   UNL     1       9.522   8.796   6.958  0.00  0.00    +0.149 HD
BRANCH  21  25
ATOM     25  C   UNL     1       9.609  11.360   7.408  0.00  0.00    +0.037 A 
ATOM     28  C   UNL     1       8.971  12.568   7.129  0.00  0.00    +0.015 A 
ATOM     29  C   UNL     1       9.582  10.839   8.701  0.00  0.00    +0.015 A 
ATOM     31  C   UNL     1       8.303  13.255   8.144  0.00  0.00    +0.024 A 
ATOM     32  C   UNL     1       8.915  11.526   9.716  0.00  0.00    +0.024 A 
ATOM     33  C   UNL     1       8.277  12.733   9.438  0.00  0.00    +0.029 A 
BRANCH  33   9
ATOM      9  N   UNL     1       7.603  13.427  10.464  0.00  0.00    -0.336 N 
ATOM     34  C   UNL     1       6.231  13.859  10.281  0.00  0.00    +0.129 C 
ATOM     35  C   UNL     1       8.271  13.711  11.719  0.00  0.00    +0.129 C 
ENDBRANCH  33   9
ENDBRANCH  21  25
ENDBRANCH  16   8
ENDBRANCH  11  16
BRANCH  13  19
ATOM     19  C   UNL     1       9.300   6.039   8.587  0.00  0.00    +0.190 C 
BRANCH  19   3
ATOM      3  O   UNL     1       8.637   7.271   8.351  0.00  0.00    -0.392 OA
ATOM     38  H   UNL     1       8.510   7.348   7.389  0.00  0.00    +0.210 HD
ENDBRANCH  19   3
ENDBRANCH  13  19
TORSDOF 10
ENDMDL
MODEL 10
REMARK VINA RESULT:      -5.8     30.563     36.163
REMARK  Name = 28961971
REMARK  13 active torsions:
REMARK  status: ('A' for Active; 'I' for Inactive)
REMARK    1  A    between atoms: O_2  and  C_12
REMARK    2  A    between atoms: O_3  and  C_19
REMARK    3  A    between atoms: O_4  and  C_22
REMARK    4  A    between atoms: O_4  and  C_30
REMARK    5  A    between atoms: N_6  and  C_10
REMARK    6  A    between atoms: N_7  and  C_20
REMARK    7  A    between atoms: N_8  and  C_16
REMARK    8  A    between atoms: N_9  and  C_33
REMARK    9  A    between atoms: N_9  and  C_34
REMARK   10  A    between atoms: N_9  and  C_35
REMARK   11  A    between atoms: C_11  and  C_16
REMARK   12  A    between atoms: C_13  and  C_19
REMARK   13  A    between atoms: C_21  and  C_25
REMARK                            x       y       z     vdW  Elec       q    Type
REMARK                         _______ _______ _______ _____ _____    ______ ____
ROOT
ATOM      1  O   UNL     1      -9.018  -9.246   7.512  0.00  0.00    -0.365 OA
ATOM     10  C   UNL     1      -9.270  -8.610   5.232  0.00  0.00    +0.118 C 
ATOM     11  C   UNL     1      -9.201  -9.804   6.192  0.00  0.00    +0.155 C 
ATOM     12  C   UNL     1      -8.484  -7.534   5.966  0.00  0.00    +0.165 C 
ATOM     13  C   UNL     1      -8.903  -7.814   7.404  0.00  0.00    +0.174 C 
ENDROOT
BRANCH  10   6
ATOM      6  N   UNL     1      -8.849  -8.861   3.865  0.00  0.00    -0.292 NA
ATOM      7  N   UNL     1      -9.036  -8.748   1.017  0.00  0.00    -0.325 N 
ATOM     14  C   UNL     1      -9.854  -9.661   3.155  0.00  0.00    +0.104 C 
ATOM     15  C   UNL     1      -8.626  -7.595   3.155  0.00  0.00    +0.104 C 
ATOM     17  C   UNL     1      -9.396  -9.980   1.730  0.00  0.00    +0.120 C 
ATOM     18  C   UNL     1      -8.127  -7.845   1.729  0.00  0.00    +0.120 C 
BRANCH   7  20
ATOM     20  C   UNL     1      -9.032  -8.775  -0.382  0.00  0.00    +0.072 A 
ATOM     22  C   UNL     1     -10.163  -8.396  -1.104  0.00  0.00    +0.141 A 
ATOM     23  C   UNL     1      -7.880  -9.186  -1.055  0.00  0.00    +0.027 A 
ATOM     24  C   UNL     1     -10.144  -8.427  -2.499  0.00  0.00    +0.047 A 
ATOM     26  C   UNL     1      -7.861  -9.218  -2.450  0.00  0.00    +0.002 A 
ATOM     27  C   UNL     1      -8.993  -8.837  -3.171  0.00  0.00    +0.004 A 
BRANCH  22   4
ATOM      4  O   UNL     1     -11.297  -7.991  -0.466  0.00  0.00    -0.493 OA
ATOM     30  C   UNL     1     -11.674  -6.625  -0.618  0.00  0.00    +0.277 C 
ENDBRANCH  22   4
ENDBRANCH   7  20
ENDBRANCH  10   6
BRANCH  12   2
ATOM      2  O   UNL     1      -7.082  -7.717   5.813  0.00  0.00    -0.388 OA
ATOM     36  H   UNL     1      -6.644  -7.262   6.551  0.00  0.00    +0.210 HD
ENDBRANCH  12   2
BRANCH  11  16
ATOM     16  C   UNL     1      -8.071 -10.802   5.963  0.00  0.00    +0.137 C 
BRANCH  16   8
ATOM      5  O   UNL     1      -5.207 -10.671   5.803  0.00  0.00    -0.270 OA
ATOM      8  N   UNL     1      -7.152 -10.803   7.061  0.00  0.00    -0.309 N 
ATOM     21  C   UNL     1      -5.771 -10.736   6.893  0.00  0.00    +0.244 C 
ATOM     37  H   UNL     1      -7.550 -10.926   7.986  0.00  0.00    +0.149 HD
BRANCH  21  25
ATOM     25  C   UNL     1      -4.954 -10.774   8.132  0.00  0.00    +0.037 A 
ATOM     28  C   UNL     1      -4.662 -11.996   8.738  0.00  0.00    +0.015 A 
ATOM     29  C   UNL     1      -4.479  -9.588   8.690  0.00  0.00    +0.015 A 
ATOM     31  C   UNL     1      -3.893 -12.031   9.902  0.00  0.00    +0.024 A 
ATOM     32  C   UNL     1      -3.712  -9.623   9.855  0.00  0.00    +0.024 A 
ATOM     33  C   UNL     1      -3.419 -10.844  10.461  0.00  0.00    +0.029 A 
BRANCH  33   9
ATOM      9  N   UNL     1      -2.643 -10.879  11.637  0.00  0.00    -0.336 N 
ATOM     34  C   UNL     1      -1.573  -9.922  11.840  0.00  0.00    +0.129 C 
ATOM     35  C   UNL     1      -2.910 -11.867  12.663  0.00  0.00    +0.129 C 
ENDBRANCH  33   9
ENDBRANCH  21  25
ENDBRANCH  16   8
ENDBRANCH  11  16
BRANCH  13  19
ATOM     19  C   UNL     1      -7.949  -7.308   8.472  0.00  0.00    +0.190 C 
BRANCH  19   3
ATOM      3  O   UNL     1      -7.453  -6.039   8.078  0.00  0.00    -0.392 OA
ATOM     38  H   UNL     1      -7.689  -5.917   7.142  0.00  0.00    +0.210 HD
ENDBRANCH  19   3
ENDBRANCH  13  19
TORSDOF 10
ENDMDL
