MODEL 1
REMARK VINA RESULT:      -7.2      0.000      0.000
REMARK  Name = 45361570
REMARK  10 active torsions:
REMARK  status: ('A' for Active; 'I' for Inactive)
REMARK    1  A    between atoms: O_1  and  C_11
REMARK    2  A    between atoms: N_4  and  C_15
REMARK    3  A    between atoms: N_5  and  C_25
REMARK    4  A    between atoms: C_8  and  C_18
REMARK    5  A    between atoms: C_10  and  C_20
REMARK    6  A    between atoms: C_14  and  C_19
REMARK    7  A    between atoms: C_19  and  C_21
REMARK    8  A    between atoms: C_19  and  C_22
REMARK    9  A    between atoms: C_23  and  C_24
REMARK   10  A    between atoms: C_25  and  C_28
REMARK                            x       y       z     vdW  Elec       q    Type
REMARK                         _______ _______ _______ _____ _____    ______ ____
ROOT
ATOM      8  C   UNL     1      -4.748 -11.041  16.899  0.00  0.00    -0.027 C 
ATOM      9  C   UNL     1      -5.535 -10.414  15.700  0.00  0.00    +0.028 C 
ATOM     10  C   UNL     1      -7.085 -10.515  15.935  0.00  0.00    +0.012 C 
ATOM     11  C   UNL     1      -5.027 -10.971  14.340  0.00  0.00    +0.122 C 
ATOM     12  C   UNL     1      -3.230 -10.824  16.690  0.00  0.00    +0.007 C 
ATOM     13  C   UNL     1      -5.152 -10.314  18.203  0.00  0.00    +0.009 C 
ATOM     14  C   UNL     1      -3.494 -10.845  14.180  0.00  0.00    +0.029 C 
ATOM     15  C   UNL     1      -7.470  -9.848  17.286  0.00  0.00    +0.076 C 
ATOM     16  C   UNL     1      -2.723 -11.403  15.376  0.00  0.00    +0.007 C 
ATOM     17  C   UNL     1      -6.649 -10.357  18.471  0.00  0.00    +0.023 C 
ATOM     18  C   UNL     1      -5.016 -12.559  17.057  0.00  0.00    +0.011 C 
ATOM     20  C   UNL     1      -7.921  -9.890  14.806  0.00  0.00    +0.010 C 
ENDROOT
BRANCH  15   4
ATOM      3  O   UNL     1      -9.475  -7.795  17.374  0.00  0.00    -0.270 OA
ATOM      4  N   UNL     1      -8.874 -10.024  17.589  0.00  0.00    -0.308 N 
ATOM     23  C   UNL     1      -9.766  -8.965  17.608  0.00  0.00    +0.244 C 
ATOM     35  H   UNL     1      -9.164 -10.944  17.902  0.00  0.00    +0.149 HD
BRANCH  23  24
ATOM      6  N   UNL     1     -13.803  -9.946  18.637  0.00  0.00    -0.263 NA
ATOM     24  C   UNL     1     -11.167  -9.307  17.964  0.00  0.00    +0.040 A 
ATOM     26  C   UNL     1     -12.210  -8.941  17.122  0.00  0.00    +0.033 A 
ATOM     27  C   UNL     1     -11.440  -9.992  19.143  0.00  0.00    +0.033 A 
ATOM     29  C   UNL     1     -13.499  -9.280  17.500  0.00  0.00    +0.111 A 
ATOM     30  C   UNL     1     -12.764 -10.285  19.431  0.00  0.00    +0.111 A 
ENDBRANCH  23  24
ENDBRANCH  15   4
BRANCH  11   1
ATOM      1  O   UNL     1      -5.611 -10.225  13.271  0.00  0.00    -0.391 OA
ATOM     36  H   UNL     1      -5.575  -9.282  13.505  0.00  0.00    +0.210 HD
ENDBRANCH  11   1
BRANCH  14  19
ATOM     19  C   UNL     1      -2.999 -11.517  12.893  0.00  0.00    +0.077 C 
ATOM     21  C   UNL     1      -1.819 -12.434  13.199  0.00  0.00    +0.017 C 
BRANCH  19  22
ATOM      2  O   UNL     1      -1.511  -9.940  11.815  0.00  0.00    -0.276 OA
ATOM      5  N   UNL     1      -3.676 -10.151  11.009  0.00  0.00    -0.309 N 
ATOM     22  C   UNL     1      -2.625 -10.456  11.863  0.00  0.00    +0.217 C 
ATOM     37  H   UNL     1      -4.551 -10.661  11.081  0.00  0.00    +0.149 HD
BRANCH   5  25
ATOM     25  C   UNL     1      -3.565  -9.174   9.951  0.00  0.00    +0.159 C 
BRANCH  25  28
ATOM      7  N   UNL     1      -4.880  -9.831   8.017  0.00  0.00    -0.258 NA
ATOM     28  C   UNL     1      -4.824  -9.079   9.139  0.00  0.00    +0.058 A 
ATOM     31  C   UNL     1      -5.845  -8.244   9.566  0.00  0.00    +0.025 A 
ATOM     32  C   UNL     1      -6.998  -8.178   8.791  0.00  0.00    +0.003 A 
ATOM     33  C   UNL     1      -6.016  -9.741   7.290  0.00  0.00    +0.111 A 
ATOM     34  C   UNL     1      -7.093  -8.937   7.629  0.00  0.00    +0.020 A 
ENDBRANCH  25  28
ENDBRANCH   5  25
ENDBRANCH  19  22
ENDBRANCH  14  19
TORSDOF 7
ENDMDL
MODEL 2
REMARK VINA RESULT:      -7.0     28.104     31.113
REMARK  Name = 45361570
REMARK  10 active torsions:
REMARK  status: ('A' for Active; 'I' for Inactive)
REMARK    1  A    between atoms: O_1  and  C_11
REMARK    2  A    between atoms: N_4  and  C_15
REMARK    3  A    between atoms: N_5  and  C_25
REMARK    4  A    between atoms: C_8  and  C_18
REMARK    5  A    between atoms: C_10  and  C_20
REMARK    6  A    between atoms: C_14  and  C_19
REMARK    7  A    between atoms: C_19  and  C_21
REMARK    8  A    between atoms: C_19  and  C_22
REMARK    9  A    between atoms: C_23  and  C_24
REMARK   10  A    between atoms: C_25  and  C_28
REMARK                            x       y       z     vdW  Elec       q    Type
REMARK                         _______ _______ _______ _____ _____    ______ ____
ROOT
ATOM      8  C   UNL     1      13.048   8.986  17.264  0.00  0.00    -0.027 C 
ATOM      9  C   UNL     1      13.579  10.034  18.298  0.00  0.00    +0.028 C 
ATOM     10  C   UNL     1      14.920  10.681  17.799  0.00  0.00    +0.012 C 
ATOM     11  C   UNL     1      13.616   9.439  19.735  0.00  0.00    +0.122 C 
ATOM     12  C   UNL     1      11.673   8.452  17.729  0.00  0.00    +0.007 C 
ATOM     13  C   UNL     1      12.845   9.682  15.898  0.00  0.00    +0.009 C 
ATOM     14  C   UNL     1      12.266   8.814  20.156  0.00  0.00    +0.029 C 
ATOM     15  C   UNL     1      14.724  11.312  16.392  0.00  0.00    +0.076 C 
ATOM     16  C   UNL     1      11.715   7.833  19.121  0.00  0.00    +0.007 C 
ATOM     17  C   UNL     1      14.108  10.351  15.376  0.00  0.00    +0.023 C 
ATOM     18  C   UNL     1      14.013   7.786  17.087  0.00  0.00    +0.011 C 
ATOM     20  C   UNL     1      15.483  11.745  18.757  0.00  0.00    +0.010 C 
ENDROOT
BRANCH  15   4
ATOM      3  O   UNL     1      15.071  13.680  14.806  0.00  0.00    -0.270 OA
ATOM      4  N   UNL     1      15.969  11.817  15.853  0.00  0.00    -0.308 N 
ATOM     23  C   UNL     1      16.033  12.974  15.095  0.00  0.00    +0.244 C 
ATOM     35  H   UNL     1      16.787  11.225  15.956  0.00  0.00    +0.149 HD
BRANCH  23  24
ATOM      6  N   UNL     1      19.916  14.034  13.640  0.00  0.00    -0.263 NA
ATOM     24  C   UNL     1      17.381  13.342  14.592  0.00  0.00    +0.040 A 
ATOM     26  C   UNL     1      17.633  14.637  14.155  0.00  0.00    +0.033 A 
ATOM     27  C   UNL     1      18.396  12.392  14.554  0.00  0.00    +0.033 A 
ATOM     29  C   UNL     1      18.905  14.930  13.692  0.00  0.00    +0.111 A 
ATOM     30  C   UNL     1      19.635  12.785  14.073  0.00  0.00    +0.111 A 
ENDBRANCH  23  24
ENDBRANCH  15   4
BRANCH  11   1
ATOM      1  O   UNL     1      13.895  10.479  20.674  0.00  0.00    -0.391 OA
ATOM     36  H   UNL     1      14.224  10.068  21.491  0.00  0.00    +0.210 HD
ENDBRANCH  11   1
BRANCH  14  19
ATOM     19  C   UNL     1      12.361   8.118  21.520  0.00  0.00    +0.077 C 
ATOM     21  C   UNL     1      12.083   6.627  21.370  0.00  0.00    +0.017 C 
BRANCH  19  22
ATOM      2  O   UNL     1      10.277   8.309  22.739  0.00  0.00    -0.276 OA
ATOM      5  N   UNL     1      11.915   9.916  23.083  0.00  0.00    -0.309 N 
ATOM     22  C   UNL     1      11.393   8.768  22.503  0.00  0.00    +0.217 C 
ATOM     37  H   UNL     1      12.866  10.200  22.875  0.00  0.00    +0.149 HD
BRANCH   5  25
ATOM     25  C   UNL     1      11.183  10.706  24.046  0.00  0.00    +0.159 C 
BRANCH  25  28
ATOM      7  N   UNL     1      10.138  12.880  24.330  0.00  0.00    -0.258 NA
ATOM     28  C   UNL     1      10.795  12.047  23.493  0.00  0.00    +0.058 A 
ATOM     31  C   UNL     1      11.118  12.360  22.182  0.00  0.00    +0.025 A 
ATOM     32  C   UNL     1      10.744  13.610  21.700  0.00  0.00    +0.003 A 
ATOM     33  C   UNL     1       9.790  14.086  23.827  0.00  0.00    +0.111 A 
ATOM     34  C   UNL     1      10.066  14.495  22.531  0.00  0.00    +0.020 A 
ENDBRANCH  25  28
ENDBRANCH   5  25
ENDBRANCH  19  22
ENDBRANCH  14  19
TORSDOF 7
ENDMDL
MODEL 3
REMARK VINA RESULT:      -7.0      1.693      2.075
REMARK  Name = 45361570
REMARK  10 active torsions:
REMARK  status: ('A' for Active; 'I' for Inactive)
REMARK    1  A    between atoms: O_1  and  C_11
REMARK    2  A    between atoms: N_4  and  C_15
REMARK    3  A    between atoms: N_5  and  C_25
REMARK    4  A    between atoms: C_8  and  C_18
REMARK    5  A    between atoms: C_10  and  C_20
REMARK    6  A    between atoms: C_14  and  C_19
REMARK    7  A    between atoms: C_19  and  C_21
REMARK    8  A    between atoms: C_19  and  C_22
REMARK    9  A    between atoms: C_23  and  C_24
REMARK   10  A    between atoms: C_25  and  C_28
REMARK                            x       y       z     vdW  Elec       q    Type
REMARK                         _______ _______ _______ _____ _____    ______ ____
ROOT
ATOM      8  C   UNL     1      -4.816 -11.251  17.227  0.00  0.00    -0.027 C 
ATOM      9  C   UNL     1      -5.807 -10.460  16.312  0.00  0.00    +0.028 C 
ATOM     10  C   UNL     1      -7.266 -10.509  16.893  0.00  0.00    +0.012 C 
ATOM     11  C   UNL     1      -5.665 -10.890  14.823  0.00  0.00    +0.122 C 
ATOM     12  C   UNL     1      -3.374 -11.088  16.690  0.00  0.00    +0.007 C 
ATOM     13  C   UNL     1      -4.857 -10.651  18.653  0.00  0.00    +0.009 C 
ATOM     14  C   UNL     1      -4.204 -10.823  14.321  0.00  0.00    +0.029 C 
ATOM     15  C   UNL     1      -7.282  -9.974  18.353  0.00  0.00    +0.076 C 
ATOM     16  C   UNL     1      -3.223 -11.545  15.245  0.00  0.00    +0.007 C 
ATOM     17  C   UNL     1      -6.253 -10.649  19.259  0.00  0.00    +0.023 C 
ATOM     18  C   UNL     1      -5.151 -12.762  17.300  0.00  0.00    +0.011 C 
ATOM     20  C   UNL     1      -8.289  -9.724  16.055  0.00  0.00    +0.010 C 
ENDROOT
BRANCH  15   4
ATOM      3  O   UNL     1      -8.492 -12.406  19.283  0.00  0.00    -0.270 OA
ATOM      4  N   UNL     1      -8.589 -10.112  18.959  0.00  0.00    -0.308 N 
ATOM     23  C   UNL     1      -9.087 -11.336  19.376  0.00  0.00    +0.244 C 
ATOM     35  H   UNL     1      -9.182  -9.289  18.965  0.00  0.00    +0.149 HD
BRANCH  23  24
ATOM      6  N   UNL     1     -13.033 -11.273  21.033  0.00  0.00    -0.263 NA
ATOM     24  C   UNL     1     -10.455 -11.314  19.952  0.00  0.00    +0.040 A 
ATOM     26  C   UNL     1     -11.038 -12.489  20.411  0.00  0.00    +0.033 A 
ATOM     27  C   UNL     1     -11.160 -10.117  20.034  0.00  0.00    +0.033 A 
ATOM     29  C   UNL     1     -12.318 -12.417  20.937  0.00  0.00    +0.111 A 
ATOM     30  C   UNL     1     -12.434 -10.150  20.577  0.00  0.00    +0.111 A 
ENDBRANCH  23  24
ENDBRANCH  15   4
BRANCH  11   1
ATOM      1  O   UNL     1      -6.422 -10.003  13.996  0.00  0.00    -0.391 OA
ATOM     36  H   UNL     1      -7.315  -9.927  14.373  0.00  0.00    +0.210 HD
ENDBRANCH  11   1
BRANCH  14  19
ATOM     19  C   UNL     1      -4.066 -11.375  12.896  0.00  0.00    +0.077 C 
ATOM     21  C   UNL     1      -2.988 -12.452  12.852  0.00  0.00    +0.017 C 
BRANCH  19  22
ATOM      2  O   UNL     1      -2.611  -9.939  11.598  0.00  0.00    -0.276 OA
ATOM      5  N   UNL     1      -4.902  -9.598  11.476  0.00  0.00    -0.309 N 
ATOM     22  C   UNL     1      -3.757 -10.238  11.927  0.00  0.00    +0.217 C 
ATOM     37  H   UNL     1      -5.816  -9.940  11.754  0.00  0.00    +0.149 HD
BRANCH   5  25
ATOM     25  C   UNL     1      -4.864  -8.489  10.551  0.00  0.00    +0.159 C 
BRANCH  25  28
ATOM      7  N   UNL     1      -6.736  -8.256   9.020  0.00  0.00    -0.258 NA
ATOM     28  C   UNL     1      -5.530  -8.822   9.246  0.00  0.00    +0.058 A 
ATOM     31  C   UNL     1      -4.893  -9.674   8.358  0.00  0.00    +0.025 A 
ATOM     32  C   UNL     1      -5.536  -9.963   7.159  0.00  0.00    +0.003 A 
ATOM     33  C   UNL     1      -7.331  -8.560   7.844  0.00  0.00    +0.111 A 
ATOM     34  C   UNL     1      -6.779  -9.400   6.890  0.00  0.00    +0.020 A 
ENDBRANCH  25  28
ENDBRANCH   5  25
ENDBRANCH  19  22
ENDBRANCH  14  19
TORSDOF 7
ENDMDL
MODEL 4
REMARK VINA RESULT:      -7.0      2.214      8.564
REMARK  Name = 45361570
REMARK  10 active torsions:
REMARK  status: ('A' for Active; 'I' for Inactive)
REMARK    1  A    between atoms: O_1  and  C_11
REMARK    2  A    between atoms: N_4  and  C_15
REMARK    3  A    between atoms: N_5  and  C_25
REMARK    4  A    between atoms: C_8  and  C_18
REMARK    5  A    between atoms: C_10  and  C_20
REMARK    6  A    between atoms: C_14  and  C_19
REMARK    7  A    between atoms: C_19  and  C_21
REMARK    8  A    between atoms: C_19  and  C_22
REMARK    9  A    between atoms: C_23  and  C_24
REMARK   10  A    between atoms: C_25  and  C_28
REMARK                            x       y       z     vdW  Elec       q    Type
REMARK                         _______ _______ _______ _____ _____    ______ ____
ROOT
ATOM      8  C   UNL     1      -3.201 -11.665  12.050  0.00  0.00    -0.027 C 
ATOM      9  C   UNL     1      -4.513 -10.988  12.568  0.00  0.00    +0.028 C 
ATOM     10  C   UNL     1      -5.136 -10.058  11.466  0.00  0.00    +0.012 C 
ATOM     11  C   UNL     1      -4.294 -10.324  13.958  0.00  0.00    +0.122 C 
ATOM     12  C   UNL     1      -2.676 -12.657  13.114  0.00  0.00    +0.007 C 
ATOM     13  C   UNL     1      -3.521 -12.472  10.770  0.00  0.00    +0.009 C 
ATOM     14  C   UNL     1      -3.672 -11.294  14.990  0.00  0.00    +0.029 C 
ATOM     15  C   UNL     1      -5.383 -10.863  10.159  0.00  0.00    +0.076 C 
ATOM     16  C   UNL     1      -2.423 -12.002  14.465  0.00  0.00    +0.007 C 
ATOM     17  C   UNL     1      -4.151 -11.627   9.673  0.00  0.00    +0.023 C 
ATOM     18  C   UNL     1      -2.085 -10.635  11.738  0.00  0.00    +0.011 C 
ATOM     20  C   UNL     1      -6.447  -9.382  11.900  0.00  0.00    +0.010 C 
ENDROOT
BRANCH  15   4
ATOM      3  O   UNL     1      -7.821 -11.157   8.673  0.00  0.00    -0.270 OA
ATOM      4  N   UNL     1      -5.849 -10.011   9.086  0.00  0.00    -0.308 N 
ATOM     23  C   UNL     1      -7.046 -10.238   8.427  0.00  0.00    +0.244 C 
ATOM     35  H   UNL     1      -5.207  -9.299   8.753  0.00  0.00    +0.149 HD
BRANCH  23  24
ATOM      6  N   UNL     1      -7.972  -7.502   5.268  0.00  0.00    -0.263 NA
ATOM     24  C   UNL     1      -7.368  -9.290   7.330  0.00  0.00    +0.040 A 
ATOM     26  C   UNL     1      -6.800  -9.457   6.073  0.00  0.00    +0.033 A 
ATOM     27  C   UNL     1      -8.239  -8.229   7.557  0.00  0.00    +0.033 A 
ATOM     29  C   UNL     1      -7.131  -8.545   5.084  0.00  0.00    +0.111 A 
ATOM     30  C   UNL     1      -8.506  -7.371   6.503  0.00  0.00    +0.111 A 
ENDBRANCH  23  24
ENDBRANCH  15   4
BRANCH  11   1
ATOM      1  O   UNL     1      -5.552  -9.911  14.493  0.00  0.00    -0.391 OA
ATOM     36  H   UNL     1      -5.612 -10.232  15.409  0.00  0.00    +0.210 HD
ENDBRANCH  11   1
BRANCH  14  19
ATOM     19  C   UNL     1      -3.343 -10.586  16.311  0.00  0.00    +0.077 C 
ATOM     21  C   UNL     1      -1.860 -10.736  16.631  0.00  0.00    +0.017 C 
BRANCH  19  22
ATOM      2  O   UNL     1      -3.767 -11.861  18.325  0.00  0.00    -0.276 OA
ATOM      5  N   UNL     1      -5.541 -10.758  17.316  0.00  0.00    -0.309 N 
ATOM     22  C   UNL     1      -4.213 -11.146  17.431  0.00  0.00    +0.217 C 
ATOM     37  H   UNL     1      -5.821 -10.122  16.578  0.00  0.00    +0.149 HD
BRANCH   5  25
ATOM     25  C   UNL     1      -6.557 -11.165  18.259  0.00  0.00    +0.159 C 
BRANCH  25  28
ATOM      7  N   UNL     1      -8.905 -10.819  18.782  0.00  0.00    -0.258 NA
ATOM     28  C   UNL     1      -7.831 -10.389  18.082  0.00  0.00    +0.058 A 
ATOM     31  C   UNL     1      -7.847  -9.296  17.230  0.00  0.00    +0.025 A 
ATOM     32  C   UNL     1      -9.042  -8.600  17.087  0.00  0.00    +0.003 A 
ATOM     33  C   UNL     1     -10.049 -10.118  18.617  0.00  0.00    +0.111 A 
ATOM     34  C   UNL     1     -10.169  -9.012  17.790  0.00  0.00    +0.020 A 
ENDBRANCH  25  28
ENDBRANCH   5  25
ENDBRANCH  19  22
ENDBRANCH  14  19
TORSDOF 7
ENDMDL
MODEL 5
REMARK VINA RESULT:      -7.0     28.318     31.477
REMARK  Name = 45361570
REMARK  10 active torsions:
REMARK  status: ('A' for Active; 'I' for Inactive)
REMARK    1  A    between atoms: O_1  and  C_11
REMARK    2  A    between atoms: N_4  and  C_15
REMARK    3  A    between atoms: N_5  and  C_25
REMARK    4  A    between atoms: C_8  and  C_18
REMARK    5  A    between atoms: C_10  and  C_20
REMARK    6  A    between atoms: C_14  and  C_19
REMARK    7  A    between atoms: C_19  and  C_21
REMARK    8  A    between atoms: C_19  and  C_22
REMARK    9  A    between atoms: C_23  and  C_24
REMARK   10  A    between atoms: C_25  and  C_28
REMARK                            x       y       z     vdW  Elec       q    Type
REMARK                         _______ _______ _______ _____ _____    ______ ____
ROOT
ATOM      8  C   UNL     1      12.451   8.966  17.796  0.00  0.00    -0.027 C 
ATOM      9  C   UNL     1      13.077  10.251  18.431  0.00  0.00    +0.028 C 
ATOM     10  C   UNL     1      14.441  10.610  17.739  0.00  0.00    +0.012 C 
ATOM     11  C   UNL     1      13.121  10.149  19.983  0.00  0.00    +0.122 C 
ATOM     12  C   UNL     1      11.060   8.705  18.420  0.00  0.00    +0.007 C 
ATOM     13  C   UNL     1      12.251   9.198  16.280  0.00  0.00    +0.009 C 
ATOM     14  C   UNL     1      11.747   9.787  20.594  0.00  0.00    +0.029 C 
ATOM     15  C   UNL     1      14.242  10.767  16.205  0.00  0.00    +0.076 C 
ATOM     16  C   UNL     1      11.105   8.566  19.936  0.00  0.00    +0.007 C 
ATOM     17  C   UNL     1      13.537   9.575  15.559  0.00  0.00    +0.023 C 
ATOM     18  C   UNL     1      13.333   7.709  18.007  0.00  0.00    +0.011 C 
ATOM     20  C   UNL     1      15.098  11.883  18.297  0.00  0.00    +0.010 C 
ENDROOT
BRANCH  15   4
ATOM      3  O   UNL     1      14.808  12.806  14.265  0.00  0.00    -0.270 OA
ATOM      4  N   UNL     1      15.499  10.984  15.522  0.00  0.00    -0.308 N 
ATOM     23  C   UNL     1      15.673  12.000  14.597  0.00  0.00    +0.244 C 
ATOM     35  H   UNL     1      16.224  10.288  15.662  0.00  0.00    +0.149 HD
BRANCH  23  24
ATOM      6  N   UNL     1      19.538  12.205  12.769  0.00  0.00    -0.263 NA
ATOM     24  C   UNL     1      17.014  12.073  13.963  0.00  0.00    +0.040 A 
ATOM     26  C   UNL     1      17.136  12.443  12.629  0.00  0.00    +0.033 A 
ATOM     27  C   UNL     1      18.153  11.769  14.701  0.00  0.00    +0.033 A 
ATOM     29  C   UNL     1      18.409  12.493  12.083  0.00  0.00    +0.111 A 
ATOM     30  C   UNL     1      19.381  11.850  14.063  0.00  0.00    +0.111 A 
ENDBRANCH  23  24
ENDBRANCH  15   4
BRANCH  11   1
ATOM      1  O   UNL     1      13.492  11.414  20.534  0.00  0.00    -0.391 OA
ATOM     36  H   UNL     1      14.252  11.752  20.031  0.00  0.00    +0.210 HD
ENDBRANCH  11   1
BRANCH  14  19
ATOM     19  C   UNL     1      11.840   9.562  22.109  0.00  0.00    +0.077 C 
ATOM     21  C   UNL     1      11.038   8.328  22.507  0.00  0.00    +0.017 C 
BRANCH  19  22
ATOM      2  O   UNL     1      10.967  11.816  22.268  0.00  0.00    -0.276 OA
ATOM      5  N   UNL     1      11.401  10.653  24.228  0.00  0.00    -0.309 N 
ATOM     22  C   UNL     1      11.354  10.804  22.849  0.00  0.00    +0.217 C 
ATOM     37  H   UNL     1      11.683   9.766  24.631  0.00  0.00    +0.149 HD
BRANCH   5  25
ATOM     25  C   UNL     1      10.993  11.694  25.142  0.00  0.00    +0.159 C 
BRANCH  25  28
ATOM      7  N   UNL     1      13.246  12.030  25.985  0.00  0.00    -0.258 NA
ATOM     28  C   UNL     1      12.129  12.611  25.494  0.00  0.00    +0.058 A 
ATOM     31  C   UNL     1      11.983  13.976  25.305  0.00  0.00    +0.025 A 
ATOM     32  C   UNL     1      13.053  14.798  25.642  0.00  0.00    +0.003 A 
ATOM     33  C   UNL     1      14.265  12.861  26.301  0.00  0.00    +0.111 A 
ATOM     34  C   UNL     1      14.219  14.238  26.150  0.00  0.00    +0.020 A 
ENDBRANCH  25  28
ENDBRANCH   5  25
ENDBRANCH  19  22
ENDBRANCH  14  19
TORSDOF 7
ENDMDL
MODEL 6
REMARK VINA RESULT:      -6.8      3.415      5.859
REMARK  Name = 45361570
REMARK  10 active torsions:
REMARK  status: ('A' for Active; 'I' for Inactive)
REMARK    1  A    between atoms: O_1  and  C_11
REMARK    2  A    between atoms: N_4  and  C_15
REMARK    3  A    between atoms: N_5  and  C_25
REMARK    4  A    between atoms: C_8  and  C_18
REMARK    5  A    between atoms: C_10  and  C_20
REMARK    6  A    between atoms: C_14  and  C_19
REMARK    7  A    between atoms: C_19  and  C_21
REMARK    8  A    between atoms: C_19  and  C_22
REMARK    9  A    between atoms: C_23  and  C_24
REMARK   10  A    between atoms: C_25  and  C_28
REMARK                            x       y       z     vdW  Elec       q    Type
REMARK                         _______ _______ _______ _____ _____    ______ ____
ROOT
ATOM      8  C   UNL     1      -4.335 -10.560  11.098  0.00  0.00    -0.027 C 
ATOM      9  C   UNL     1      -5.742  -9.938  11.383  0.00  0.00    +0.028 C 
ATOM     10  C   UNL     1      -6.368 -10.546  12.689  0.00  0.00    +0.012 C 
ATOM     11  C   UNL     1      -6.648  -9.990  10.120  0.00  0.00    +0.122 C 
ATOM     12  C   UNL     1      -3.699  -9.861   9.873  0.00  0.00    +0.007 C 
ATOM     13  C   UNL     1      -3.415 -10.307  12.315  0.00  0.00    +0.009 C 
ATOM     14  C   UNL     1      -5.965  -9.381   8.873  0.00  0.00    +0.029 C 
ATOM     15  C   UNL     1      -5.401 -10.352  13.891  0.00  0.00    +0.076 C 
ATOM     16  C   UNL     1      -4.566  -9.944   8.625  0.00  0.00    +0.007 C 
ATOM     17  C   UNL     1      -3.983 -10.853  13.617  0.00  0.00    +0.023 C 
ATOM     18  C   UNL     1      -4.404 -12.083  10.820  0.00  0.00    +0.011 C 
ATOM     20  C   UNL     1      -7.742  -9.955  13.046  0.00  0.00    +0.010 C 
ENDROOT
BRANCH  15   4
ATOM      3  O   UNL     1      -5.545  -9.218  16.524  0.00  0.00    -0.270 OA
ATOM      4  N   UNL     1      -5.895 -11.002  15.086  0.00  0.00    -0.308 N 
ATOM     23  C   UNL     1      -5.923 -10.368  16.317  0.00  0.00    +0.244 C 
ATOM     35  H   UNL     1      -6.119 -11.989  15.013  0.00  0.00    +0.149 HD
BRANCH  23  24
ATOM      6  N   UNL     1      -7.398 -12.706  19.585  0.00  0.00    -0.263 NA
ATOM     24  C   UNL     1      -6.433 -11.180  17.450  0.00  0.00    +0.040 A 
ATOM     26  C   UNL     1      -7.257 -12.274  17.210  0.00  0.00    +0.033 A 
ATOM     27  C   UNL     1      -6.091 -10.849  18.757  0.00  0.00    +0.033 A 
ATOM     29  C   UNL     1      -7.709 -12.998  18.302  0.00  0.00    +0.111 A 
ATOM     30  C   UNL     1      -6.595 -11.636  19.780  0.00  0.00    +0.111 A 
ENDBRANCH  23  24
ENDBRANCH  15   4
BRANCH  11   1
ATOM      1  O   UNL     1      -7.832  -9.226  10.351  0.00  0.00    -0.391 OA
ATOM     36  H   UNL     1      -8.576  -9.685   9.924  0.00  0.00    +0.210 HD
ENDBRANCH  11   1
BRANCH  14  19
ATOM     19  C   UNL     1      -6.820  -9.561   7.611  0.00  0.00    +0.077 C 
ATOM     21  C   UNL     1      -5.998 -10.218   6.508  0.00  0.00    +0.017 C 
BRANCH  19  22
ATOM      2  O   UNL     1      -7.734  -7.992   6.009  0.00  0.00    -0.276 OA
ATOM      5  N   UNL     1      -7.421  -7.288   8.197  0.00  0.00    -0.309 N 
ATOM     22  C   UNL     1      -7.375  -8.213   7.164  0.00  0.00    +0.217 C 
ATOM     37  H   UNL     1      -7.156  -7.564   9.137  0.00  0.00    +0.149 HD
BRANCH   5  25
ATOM     25  C   UNL     1      -7.907  -5.939   8.017  0.00  0.00    +0.159 C 
BRANCH  25  28
ATOM      7  N   UNL     1      -9.726  -4.487   8.714  0.00  0.00    -0.258 NA
ATOM     28  C   UNL     1      -9.287  -5.759   8.584  0.00  0.00    +0.058 A 
ATOM     31  C   UNL     1     -10.026  -6.876   8.939  0.00  0.00    +0.025 A 
ATOM     32  C   UNL     1     -11.298  -6.675   9.461  0.00  0.00    +0.003 A 
ATOM     33  C   UNL     1     -10.968  -4.331   9.225  0.00  0.00    +0.111 A 
ATOM     34  C   UNL     1     -11.786  -5.381   9.611  0.00  0.00    +0.020 A 
ENDBRANCH  25  28
ENDBRANCH   5  25
ENDBRANCH  19  22
ENDBRANCH  14  19
TORSDOF 7
ENDMDL
MODEL 7
REMARK VINA RESULT:      -6.6      2.750      4.798
REMARK  Name = 45361570
REMARK  10 active torsions:
REMARK  status: ('A' for Active; 'I' for Inactive)
REMARK    1  A    between atoms: O_1  and  C_11
REMARK    2  A    between atoms: N_4  and  C_15
REMARK    3  A    between atoms: N_5  and  C_25
REMARK    4  A    between atoms: C_8  and  C_18
REMARK    5  A    between atoms: C_10  and  C_20
REMARK    6  A    between atoms: C_14  and  C_19
REMARK    7  A    between atoms: C_19  and  C_21
REMARK    8  A    between atoms: C_19  and  C_22
REMARK    9  A    between atoms: C_23  and  C_24
REMARK   10  A    between atoms: C_25  and  C_28
REMARK                            x       y       z     vdW  Elec       q    Type
REMARK                         _______ _______ _______ _____ _____    ______ ____
ROOT
ATOM      8  C   UNL     1      -9.374 -10.855  18.373  0.00  0.00    -0.027 C 
ATOM      9  C   UNL     1      -8.725  -9.941  17.281  0.00  0.00    +0.028 C 
ATOM     10  C   UNL     1      -9.824  -9.316  16.350  0.00  0.00    +0.012 C 
ATOM     11  C   UNL     1      -7.566 -10.675  16.548  0.00  0.00    +0.122 C 
ATOM     12  C   UNL     1      -8.278 -11.363  19.339  0.00  0.00    +0.007 C 
ATOM     13  C   UNL     1     -10.379 -10.019  19.198  0.00  0.00    +0.009 C 
ATOM     14  C   UNL     1      -6.526 -11.270  17.525  0.00  0.00    +0.029 C 
ATOM     15  C   UNL     1     -10.872  -8.541  17.198  0.00  0.00    +0.076 C 
ATOM     16  C   UNL     1      -7.161 -12.116  18.629  0.00  0.00    +0.007 C 
ATOM     17  C   UNL     1     -11.456  -9.366  18.344  0.00  0.00    +0.023 C 
ATOM     18  C   UNL     1     -10.106 -12.079  17.765  0.00  0.00    +0.011 C 
ATOM     20  C   UNL     1      -9.257  -8.381  15.269  0.00  0.00    +0.010 C 
ENDROOT
BRANCH  15   4
ATOM      3  O   UNL     1     -11.352  -5.813  16.442  0.00  0.00    -0.270 OA
ATOM      4  N   UNL     1     -11.962  -8.049  16.383  0.00  0.00    -0.308 N 
ATOM     23  C   UNL     1     -12.109  -6.707  16.074  0.00  0.00    +0.244 C 
ATOM     35  H   UNL     1     -12.688  -8.714  16.137  0.00  0.00    +0.149 HD
BRANCH  23  24
ATOM      6  N   UNL     1     -15.528  -5.711  13.699  0.00  0.00    -0.263 NA
ATOM     24  C   UNL     1     -13.295  -6.360  15.251  0.00  0.00    +0.040 A 
ATOM     26  C   UNL     1     -14.533  -6.924  15.538  0.00  0.00    +0.033 A 
ATOM     27  C   UNL     1     -13.173  -5.471  14.189  0.00  0.00    +0.033 A 
ATOM     29  C   UNL     1     -15.608  -6.571  14.739  0.00  0.00    +0.111 A 
ATOM     30  C   UNL     1     -14.309  -5.182  13.450  0.00  0.00    +0.111 A 
ENDBRANCH  23  24
ENDBRANCH  15   4
BRANCH  11   1
ATOM      1  O   UNL     1      -6.863  -9.748  15.719  0.00  0.00    -0.391 OA
ATOM     36  H   UNL     1      -6.924  -8.868  16.129  0.00  0.00    +0.210 HD
ENDBRANCH  11   1
BRANCH  14  19
ATOM     19  C   UNL     1      -5.464 -12.100  16.791  0.00  0.00    +0.077 C 
ATOM     21  C   UNL     1      -4.938 -13.204  17.702  0.00  0.00    +0.017 C 
BRANCH  19  22
ATOM      2  O   UNL     1      -4.005 -10.170  16.906  0.00  0.00    -0.276 OA
ATOM      5  N   UNL     1      -3.748 -11.652  15.140  0.00  0.00    -0.309 N 
ATOM     22  C   UNL     1      -4.337 -11.192  16.309  0.00  0.00    +0.217 C 
ATOM     37  H   UNL     1      -4.045 -12.535  14.737  0.00  0.00    +0.149 HD
BRANCH   5  25
ATOM     25  C   UNL     1      -2.659 -10.961  14.489  0.00  0.00    +0.159 C 
BRANCH  25  28
ATOM      7  N   UNL     1      -4.353 -10.305  12.876  0.00  0.00    -0.258 NA
ATOM     28  C   UNL     1      -3.035 -10.487  13.115  0.00  0.00    +0.058 A 
ATOM     31  C   UNL     1      -2.039 -10.265  12.178  0.00  0.00    +0.025 A 
ATOM     32  C   UNL     1      -2.420  -9.827  10.914  0.00  0.00    +0.003 A 
ATOM     33  C   UNL     1      -4.685  -9.879  11.636  0.00  0.00    +0.111 A 
ATOM     34  C   UNL     1      -3.766  -9.629  10.629  0.00  0.00    +0.020 A 
ENDBRANCH  25  28
ENDBRANCH   5  25
ENDBRANCH  19  22
ENDBRANCH  14  19
TORSDOF 7
ENDMDL
MODEL 8
REMARK VINA RESULT:      -6.6     27.620     30.745
REMARK  Name = 45361570
REMARK  10 active torsions:
REMARK  status: ('A' for Active; 'I' for Inactive)
REMARK    1  A    between atoms: O_1  and  C_11
REMARK    2  A    between atoms: N_4  and  C_15
REMARK    3  A    between atoms: N_5  and  C_25
REMARK    4  A    between atoms: C_8  and  C_18
REMARK    5  A    between atoms: C_10  and  C_20
REMARK    6  A    between atoms: C_14  and  C_19
REMARK    7  A    between atoms: C_19  and  C_21
REMARK    8  A    between atoms: C_19  and  C_22
REMARK    9  A    between atoms: C_23  and  C_24
REMARK   10  A    between atoms: C_25  and  C_28
REMARK                            x       y       z     vdW  Elec       q    Type
REMARK                         _______ _______ _______ _____ _____    ______ ____
ROOT
ATOM      8  C   UNL     1      12.388   9.004  17.559  0.00  0.00    -0.027 C 
ATOM      9  C   UNL     1      13.066  10.290  18.136  0.00  0.00    +0.028 C 
ATOM     10  C   UNL     1      14.345  10.668  17.307  0.00  0.00    +0.012 C 
ATOM     11  C   UNL     1      13.275  10.176  19.673  0.00  0.00    +0.122 C 
ATOM     12  C   UNL     1      11.073   8.724  18.325  0.00  0.00    +0.007 C 
ATOM     13  C   UNL     1      12.025   9.246  16.075  0.00  0.00    +0.009 C 
ATOM     14  C   UNL     1      11.977   9.795  20.424  0.00  0.00    +0.029 C 
ATOM     15  C   UNL     1      13.982  10.835  15.804  0.00  0.00    +0.076 C 
ATOM     16  C   UNL     1      11.280   8.573  19.827  0.00  0.00    +0.007 C 
ATOM     17  C   UNL     1      13.224   9.642  15.225  0.00  0.00    +0.023 C 
ATOM     18  C   UNL     1      13.299   7.754  17.664  0.00  0.00    +0.011 C 
ATOM     20  C   UNL     1      15.046  11.944  17.803  0.00  0.00    +0.010 C 
ENDROOT
BRANCH  15   4
ATOM      3  O   UNL     1      14.307  12.870  13.805  0.00  0.00    -0.270 OA
ATOM      4  N   UNL     1      15.158  11.071  14.993  0.00  0.00    -0.308 N 
ATOM     23  C   UNL     1      15.216  12.083  14.049  0.00  0.00    +0.244 C 
ATOM     35  H   UNL     1      15.907  10.389  15.061  0.00  0.00    +0.149 HD
BRANCH  23  24
ATOM      6  N   UNL     1      18.867  12.355  11.831  0.00  0.00    -0.263 NA
ATOM     24  C   UNL     1      16.483  12.175  13.280  0.00  0.00    +0.040 A 
ATOM     26  C   UNL     1      17.698  12.293  13.945  0.00  0.00    +0.033 A 
ATOM     27  C   UNL     1      16.459  12.147  11.889  0.00  0.00    +0.033 A 
ATOM     29  C   UNL     1      18.851  12.379  13.182  0.00  0.00    +0.111 A 
ATOM     30  C   UNL     1      17.668  12.240  11.217  0.00  0.00    +0.111 A 
ENDBRANCH  23  24
ENDBRANCH  15   4
BRANCH  11   1
ATOM      1  O   UNL     1      13.691  11.440  20.193  0.00  0.00    -0.391 OA
ATOM     36  H   UNL     1      14.354  11.813  19.587  0.00  0.00    +0.210 HD
ENDBRANCH  11   1
BRANCH  14  19
ATOM     19  C   UNL     1      12.233   9.560  21.918  0.00  0.00    +0.077 C 
ATOM     21  C   UNL     1      11.366  10.496  22.753  0.00  0.00    +0.017 C 
BRANCH  19  22
ATOM      2  O   UNL     1      14.142  10.712  22.861  0.00  0.00    -0.276 OA
ATOM      5  N   UNL     1      14.499   8.725  21.719  0.00  0.00    -0.309 N 
ATOM     22  C   UNL     1      13.714   9.749  22.229  0.00  0.00    +0.217 C 
ATOM     37  H   UNL     1      14.062   7.936  21.253  0.00  0.00    +0.149 HD
BRANCH   5  25
ATOM     25  C   UNL     1      15.933   8.684  21.883  0.00  0.00    +0.159 C 
BRANCH  25  28
ATOM      7  N   UNL     1      17.885   7.420  21.180  0.00  0.00    -0.258 NA
ATOM     28  C   UNL     1      16.576   7.681  20.969  0.00  0.00    +0.058 A 
ATOM     31  C   UNL     1      15.816   7.084  19.975  0.00  0.00    +0.025 A 
ATOM     32  C   UNL     1      16.441   6.161  19.145  0.00  0.00    +0.003 A 
ATOM     33  C   UNL     1      18.458   6.516  20.354  0.00  0.00    +0.111 A 
ATOM     34  C   UNL     1      17.787   5.866  19.330  0.00  0.00    +0.020 A 
ENDBRANCH  25  28
ENDBRANCH   5  25
ENDBRANCH  19  22
ENDBRANCH  14  19
TORSDOF 7
ENDMDL
MODEL 9
REMARK VINA RESULT:      -6.5     29.283     32.460
REMARK  Name = 45361570
REMARK  10 active torsions:
REMARK  status: ('A' for Active; 'I' for Inactive)
REMARK    1  A    between atoms: O_1  and  C_11
REMARK    2  A    between atoms: N_4  and  C_15
REMARK    3  A    between atoms: N_5  and  C_25
REMARK    4  A    between atoms: C_8  and  C_18
REMARK    5  A    between atoms: C_10  and  C_20
REMARK    6  A    between atoms: C_14  and  C_19
REMARK    7  A    between atoms: C_19  and  C_21
REMARK    8  A    between atoms: C_19  and  C_22
REMARK    9  A    between atoms: C_23  and  C_24
REMARK   10  A    between atoms: C_25  and  C_28
REMARK                            x       y       z     vdW  Elec       q    Type
REMARK                         _______ _______ _______ _____ _____    ______ ____
ROOT
ATOM      8  C   UNL     1      18.851   9.458  21.917  0.00  0.00    -0.027 C 
ATOM      9  C   UNL     1      18.099   8.199  21.372  0.00  0.00    +0.028 C 
ATOM     10  C   UNL     1      19.110   7.167  20.756  0.00  0.00    +0.012 C 
ATOM     11  C   UNL     1      16.913   8.606  20.451  0.00  0.00    +0.122 C 
ATOM     12  C   UNL     1      17.843  10.400  22.616  0.00  0.00    +0.007 C 
ATOM     13  C   UNL     1      19.888   9.009  22.974  0.00  0.00    +0.009 C 
ATOM     14  C   UNL     1      15.964   9.628  21.119  0.00  0.00    +0.029 C 
ATOM     15  C   UNL     1      20.191   6.780  21.803  0.00  0.00    +0.076 C 
ATOM     16  C   UNL     1      16.702  10.831  21.705  0.00  0.00    +0.007 C 
ATOM     17  C   UNL     1      20.880   7.987  22.440  0.00  0.00    +0.023 C 
ATOM     18  C   UNL     1      19.575  10.249  20.797  0.00  0.00    +0.011 C 
ATOM     20  C   UNL     1      18.439   5.889  20.226  0.00  0.00    +0.010 C 
ENDROOT
BRANCH  15   4
ATOM      3  O   UNL     1      21.607   4.675  23.148  0.00  0.00    -0.270 OA
ATOM      4  N   UNL     1      21.205   5.919  21.233  0.00  0.00    -0.308 N 
ATOM     23  C   UNL     1      21.834   4.928  21.968  0.00  0.00    +0.244 C 
ATOM     35  H   UNL     1      21.524   6.143  20.296  0.00  0.00    +0.149 HD
BRANCH  23  24
ATOM      6  N   UNL     1      24.828   2.682  19.891  0.00  0.00    -0.263 NA
ATOM     24  C   UNL     1      22.872   4.149  21.246  0.00  0.00    +0.040 A 
ATOM     26  C   UNL     1      22.959   2.772  21.421  0.00  0.00    +0.033 A 
ATOM     27  C   UNL     1      23.762   4.793  20.394  0.00  0.00    +0.033 A 
ATOM     29  C   UNL     1      23.946   2.091  20.727  0.00  0.00    +0.111 A 
ATOM     30  C   UNL     1      24.714   4.022  19.746  0.00  0.00    +0.111 A 
ENDBRANCH  23  24
ENDBRANCH  15   4
BRANCH  11   1
ATOM      1  O   UNL     1      16.125   7.452  20.151  0.00  0.00    -0.391 OA
ATOM     36  H   UNL     1      16.681   6.665  20.278  0.00  0.00    +0.210 HD
ENDBRANCH  11   1
BRANCH  14  19
ATOM     19  C   UNL     1      14.878  10.114  20.150  0.00  0.00    +0.077 C 
ATOM     21  C   UNL     1      14.933  11.632  20.021  0.00  0.00    +0.017 C 
BRANCH  19  22
ATOM      2  O   UNL     1      12.933   8.672  20.145  0.00  0.00    -0.276 OA
ATOM      5  N   UNL     1      13.003  10.437  21.650  0.00  0.00    -0.309 N 
ATOM     22  C   UNL     1      13.508   9.646  20.628  0.00  0.00    +0.217 C 
ATOM     37  H   UNL     1      13.563  11.192  22.030  0.00  0.00    +0.149 HD
BRANCH   5  25
ATOM     25  C   UNL     1      11.719  10.192  22.265  0.00  0.00    +0.159 C 
BRANCH  25  28
ATOM      7  N   UNL     1      11.247  11.129  24.457  0.00  0.00    -0.258 NA
ATOM     28  C   UNL     1      11.277  11.344  23.123  0.00  0.00    +0.058 A 
ATOM     31  C   UNL     1      10.929  12.543  22.521  0.00  0.00    +0.025 A 
ATOM     32  C   UNL     1      10.524  13.589  23.342  0.00  0.00    +0.003 A 
ATOM     33  C   UNL     1      10.848  12.169  25.223  0.00  0.00    +0.111 A 
ATOM     34  C   UNL     1      10.479  13.407  24.720  0.00  0.00    +0.020 A 
ENDBRANCH  25  28
ENDBRANCH   5  25
ENDBRANCH  19  22
ENDBRANCH  14  19
TORSDOF 7
ENDMDL
MODEL 10
REMARK VINA RESULT:      -6.5      3.481      4.100
REMARK  Name = 45361570
REMARK  10 active torsions:
REMARK  status: ('A' for Active; 'I' for Inactive)
REMARK    1  A    between atoms: O_1  and  C_11
REMARK    2  A    between atoms: N_4  and  C_15
REMARK    3  A    between atoms: N_5  and  C_25
REMARK    4  A    between atoms: C_8  and  C_18
REMARK    5  A    between atoms: C_10  and  C_20
REMARK    6  A    between atoms: C_14  and  C_19
REMARK    7  A    between atoms: C_19  and  C_21
REMARK    8  A    between atoms: C_19  and  C_22
REMARK    9  A    between atoms: C_23  and  C_24
REMARK   10  A    between atoms: C_25  and  C_28
REMARK                            x       y       z     vdW  Elec       q    Type
REMARK                         _______ _______ _______ _____ _____    ______ ____
ROOT
ATOM      8  C   UNL     1      -5.040 -11.139  17.883  0.00  0.00    -0.027 C 
ATOM      9  C   UNL     1      -5.839 -12.101  16.943  0.00  0.00    +0.028 C 
ATOM     10  C   UNL     1      -6.548 -13.231  17.772  0.00  0.00    +0.012 C 
ATOM     11  C   UNL     1      -4.959 -12.592  15.758  0.00  0.00    +0.122 C 
ATOM     12  C   UNL     1      -4.449  -9.976  17.051  0.00  0.00    +0.007 C 
ATOM     13  C   UNL     1      -6.008 -10.530  18.923  0.00  0.00    +0.009 C 
ATOM     14  C   UNL     1      -4.288 -11.427  14.993  0.00  0.00    +0.029 C 
ATOM     15  C   UNL     1      -7.461 -12.607  18.864  0.00  0.00    +0.076 C 
ATOM     16  C   UNL     1      -3.555 -10.452  15.914  0.00  0.00    +0.007 C 
ATOM     17  C   UNL     1      -6.745 -11.581  19.741  0.00  0.00    +0.023 C 
ATOM     18  C   UNL     1      -3.883 -11.858  18.623  0.00  0.00    +0.011 C 
ATOM     20  C   UNL     1      -7.377 -14.198  16.910  0.00  0.00    +0.010 C 
ENDROOT
BRANCH  15   4
ATOM      3  O   UNL     1     -10.018 -12.495  20.164  0.00  0.00    -0.270 OA
ATOM      4  N   UNL     1      -8.040 -13.620  19.721  0.00  0.00    -0.308 N 
ATOM     23  C   UNL     1      -9.287 -13.471  20.305  0.00  0.00    +0.244 C 
ATOM     35  H   UNL     1      -7.446 -14.403  19.972  0.00  0.00    +0.149 HD
BRANCH  23  24
ATOM      6  N   UNL     1     -10.555 -16.693  22.822  0.00  0.00    -0.263 NA
ATOM     24  C   UNL     1      -9.727 -14.588  21.180  0.00  0.00    +0.040 A 
ATOM     26  C   UNL     1      -8.838 -15.161  22.082  0.00  0.00    +0.033 A 
ATOM     27  C   UNL     1     -11.030 -15.066  21.098  0.00  0.00    +0.033 A 
ATOM     29  C   UNL     1      -9.296 -16.201  22.873  0.00  0.00    +0.111 A 
ATOM     30  C   UNL     1     -11.391 -16.112  21.933  0.00  0.00    +0.111 A 
ENDBRANCH  23  24
ENDBRANCH  15   4
BRANCH  11   1
ATOM      1  O   UNL     1      -5.775 -13.285  14.813  0.00  0.00    -0.391 OA
ATOM     36  H   UNL     1      -6.390 -12.645  14.417  0.00  0.00    +0.210 HD
ENDBRANCH  11   1
BRANCH  14  19
ATOM     19  C   UNL     1      -3.323 -11.936  13.914  0.00  0.00    +0.077 C 
ATOM     21  C   UNL     1      -1.996 -12.344  14.546  0.00  0.00    +0.017 C 
BRANCH  19  22
ATOM      2  O   UNL     1      -2.035 -10.338  12.629  0.00  0.00    -0.276 OA
ATOM      5  N   UNL     1      -4.298 -10.565  12.171  0.00  0.00    -0.309 N 
ATOM     22  C   UNL     1      -3.124 -10.865  12.847  0.00  0.00    +0.217 C 
ATOM     37  H   UNL     1      -5.146 -11.083  12.374  0.00  0.00    +0.149 HD
BRANCH   5  25
ATOM     25  C   UNL     1      -4.362  -9.579  11.116  0.00  0.00    +0.159 C 
BRANCH  25  28
ATOM      7  N   UNL     1      -5.061  -9.424   8.795  0.00  0.00    -0.258 NA
ATOM     28  C   UNL     1      -4.549 -10.211   9.767  0.00  0.00    +0.058 A 
ATOM     31  C   UNL     1      -4.198 -11.540   9.585  0.00  0.00    +0.025 A 
ATOM     32  C   UNL     1      -4.384 -12.095   8.324  0.00  0.00    +0.003 A 
ATOM     33  C   UNL     1      -5.227  -9.998   7.582  0.00  0.00    +0.111 A 
ATOM     34  C   UNL     1      -4.908 -11.317   7.298  0.00  0.00    +0.020 A 
ENDBRANCH  25  28
ENDBRANCH   5  25
ENDBRANCH  19  22
ENDBRANCH  14  19
TORSDOF 7
ENDMDL
