MODEL 1
REMARK VINA RESULT:      -7.4      0.000      0.000
REMARK  Name = 38030355
REMARK  10 active torsions:
REMARK  status: ('A' for Active; 'I' for Inactive)
REMARK    1  A    between atoms: N_3  and  C_12
REMARK    2  A    between atoms: C_7  and  C_11
REMARK    3  A    between atoms: C_8  and  C_12
REMARK    4  A    between atoms: C_10  and  C_17
REMARK    5  A    between atoms: C_11  and  C_21
REMARK    6  A    between atoms: C_11  and  C_22
REMARK    7  A    between atoms: C_14  and  C_23
REMARK    8  A    between atoms: C_17  and  C_24
REMARK    9  A    between atoms: C_18  and  C_25
REMARK   10  A    between atoms: C_26  and  C_27
REMARK                            x       y       z     vdW  Elec       q    Type
REMARK                         _______ _______ _______ _____ _____    ______ ____
ROOT
ATOM      7  C   UNL     1      -5.388 -10.544  10.822  0.00  0.00    +0.000 C 
ATOM      8  C   UNL     1      -4.634 -10.193   9.517  0.00  0.00    +0.029 C 
ATOM      9  C   UNL     1      -4.446 -11.236  11.817  0.00  0.00    +0.012 C 
ATOM     10  C   UNL     1      -3.193 -10.402  12.157  0.00  0.00    +0.024 C 
ATOM     13  C   UNL     1      -3.272  -9.603   9.777  0.00  0.00    -0.023 C 
ATOM     14  C   UNL     1      -2.617  -9.675  10.950  0.00  0.00    -0.073 C 
ATOM     23  C   UNL     1      -1.297  -8.975  11.126  0.00  0.00    +0.039 C 
ENDROOT
BRANCH   7  11
ATOM     11  C   UNL     1      -6.036  -9.300  11.445  0.00  0.00    -0.013 C 
ATOM     21  C   UNL     1      -6.518  -9.604  12.860  0.00  0.00    +0.007 C 
ATOM     22  C   UNL     1      -7.188  -8.808  10.575  0.00  0.00    +0.007 C 
ENDBRANCH   7  11
BRANCH   8  12
ATOM     12  C   UNL     1      -4.490 -11.413   8.602  0.00  0.00    +0.092 C 
BRANCH  12   3
ATOM      3  N   UNL     1      -4.938 -11.097   7.246  0.00  0.00    -0.302 NA
ATOM     15  C   UNL     1      -6.111 -10.214   7.285  0.00  0.00    +0.085 C 
ATOM     16  C   UNL     1      -5.227 -12.330   6.500  0.00  0.00    +0.085 C 
ATOM     18  C   UNL     1      -6.839 -11.069   5.025  0.00  0.00    +0.077 C 
ATOM     19  C   UNL     1      -6.560  -9.830   5.873  0.00  0.00    +0.028 C 
ATOM     20  C   UNL     1      -5.643 -12.019   5.062  0.00  0.00    +0.028 C 
BRANCH  18  25
ATOM      2  O   UNL     1      -6.853 -11.372   2.656  0.00  0.00    -0.276 OA
ATOM      5  N   UNL     1      -7.707  -9.414   3.509  0.00  0.00    -0.329 N 
ATOM     25  C   UNL     1      -7.130 -10.657   3.615  0.00  0.00    +0.214 C 
ATOM     33  H   UNL     1      -7.914  -8.838   4.319  0.00  0.00    +0.145 HD
ATOM     34  H   UNL     1      -7.946  -9.026   2.602  0.00  0.00    +0.145 HD
ENDBRANCH  18  25
ENDBRANCH  12   3
ENDBRANCH   8  12
BRANCH  10  17
ATOM     17  C   UNL     1      -2.171 -11.312  12.849  0.00  0.00    +0.105 C 
BRANCH  17  24
ATOM      1  O   UNL     1      -3.405 -11.167  14.949  0.00  0.00    -0.420 OA
ATOM      4  N   UNL     1      -1.193 -10.918  15.168  0.00  0.00    -0.112 NA
ATOM      6  N   UNL     1      -1.761 -10.813  16.423  0.00  0.00    -0.107 NA
ATOM     24  C   UNL     1      -2.190 -11.124  14.338  0.00  0.00    +0.218 A 
ATOM     26  C   UNL     1      -3.053 -10.965  16.248  0.00  0.00    +0.248 A 
BRANCH  26  27
ATOM     27  C   UNL     1      -4.129 -10.953  17.196  0.00  0.00    +0.038 A 
ATOM     28  C   UNL     1      -5.304 -10.260  16.905  0.00  0.00    +0.013 A 
ATOM     29  C   UNL     1      -4.001 -11.634  18.406  0.00  0.00    +0.013 A 
ATOM     30  C   UNL     1      -6.352 -10.248  17.827  0.00  0.00    +0.001 A 
ATOM     31  C   UNL     1      -5.049 -11.622  19.327  0.00  0.00    +0.001 A 
ATOM     32  C   UNL     1      -6.224 -10.929  19.037  0.00  0.00    +0.000 A 
ENDBRANCH  26  27
ENDBRANCH  17  24
ENDBRANCH  10  17
TORSDOF 7
ENDMDL
MODEL 2
REMARK VINA RESULT:      -7.1     20.581     22.999
REMARK  Name = 38030355
REMARK  10 active torsions:
REMARK  status: ('A' for Active; 'I' for Inactive)
REMARK    1  A    between atoms: N_3  and  C_12
REMARK    2  A    between atoms: C_7  and  C_11
REMARK    3  A    between atoms: C_8  and  C_12
REMARK    4  A    between atoms: C_10  and  C_17
REMARK    5  A    between atoms: C_11  and  C_21
REMARK    6  A    between atoms: C_11  and  C_22
REMARK    7  A    between atoms: C_14  and  C_23
REMARK    8  A    between atoms: C_17  and  C_24
REMARK    9  A    between atoms: C_18  and  C_25
REMARK   10  A    between atoms: C_26  and  C_27
REMARK                            x       y       z     vdW  Elec       q    Type
REMARK                         _______ _______ _______ _____ _____    ______ ____
ROOT
ATOM      7  C   UNL     1     -13.529  10.421  21.761  0.00  0.00    +0.000 C 
ATOM      8  C   UNL     1     -12.133  10.332  21.103  0.00  0.00    +0.029 C 
ATOM      9  C   UNL     1     -14.490   9.408  21.123  0.00  0.00    +0.012 C 
ATOM     10  C   UNL     1     -13.980   7.952  21.193  0.00  0.00    +0.024 C 
ATOM     13  C   UNL     1     -11.677   8.909  20.901  0.00  0.00    -0.023 C 
ATOM     14  C   UNL     1     -12.483   7.833  20.950  0.00  0.00    -0.073 C 
ATOM     23  C   UNL     1     -11.909   6.449  20.819  0.00  0.00    +0.039 C 
ENDROOT
BRANCH   7  11
ATOM     11  C   UNL     1     -13.445  10.223  23.281  0.00  0.00    -0.013 C 
ATOM     21  C   UNL     1     -14.791  10.521  23.932  0.00  0.00    +0.007 C 
ATOM     22  C   UNL     1     -12.350  11.106  23.872  0.00  0.00    +0.007 C 
ENDBRANCH   7  11
BRANCH   8  12
ATOM     12  C   UNL     1     -12.092  11.070  19.761  0.00  0.00    +0.092 C 
BRANCH  12   3
ATOM      3  N   UNL     1     -11.688  10.165  18.685  0.00  0.00    -0.302 NA
ATOM     15  C   UNL     1     -10.519  10.700  17.975  0.00  0.00    +0.085 C 
ATOM     16  C   UNL     1     -12.808   9.931  17.763  0.00  0.00    +0.085 C 
ATOM     18  C   UNL     1     -11.181   9.417  15.905  0.00  0.00    +0.077 C 
ATOM     19  C   UNL     1     -10.050   9.738  16.880  0.00  0.00    +0.028 C 
ATOM     20  C   UNL     1     -12.419   8.942  16.663  0.00  0.00    +0.028 C 
BRANCH  18  25
ATOM      2  O   UNL     1     -10.842   8.498  13.726  0.00  0.00    -0.276 OA
ATOM      5  N   UNL     1     -10.202   7.248  15.549  0.00  0.00    -0.329 N 
ATOM     25  C   UNL     1     -10.728   8.364  14.942  0.00  0.00    +0.214 C 
ATOM     33  H   UNL     1     -10.131   7.158  16.557  0.00  0.00    +0.145 HD
ATOM     34  H   UNL     1      -9.865   6.465  14.998  0.00  0.00    +0.145 HD
ENDBRANCH  18  25
ENDBRANCH  12   3
ENDBRANCH   8  12
BRANCH  10  17
ATOM     17  C   UNL     1     -14.812   7.095  20.231  0.00  0.00    +0.105 C 
BRANCH  17  24
ATOM      1  O   UNL     1     -15.514   6.054  22.324  0.00  0.00    -0.420 OA
ATOM      4  N   UNL     1     -16.286   5.033  20.489  0.00  0.00    -0.112 NA
ATOM      6  N   UNL     1     -16.756   4.344  21.591  0.00  0.00    -0.107 NA
ATOM     24  C   UNL     1     -15.566   6.023  20.964  0.00  0.00    +0.218 A 
ATOM     26  C   UNL     1     -16.281   4.975  22.640  0.00  0.00    +0.248 A 
BRANCH  26  27
ATOM     27  C   UNL     1     -16.444   4.708  24.040  0.00  0.00    +0.038 A 
ATOM     28  C   UNL     1     -17.216   5.563  24.826  0.00  0.00    +0.013 A 
ATOM     29  C   UNL     1     -15.831   3.595  24.613  0.00  0.00    +0.013 A 
ATOM     30  C   UNL     1     -17.374   5.303  26.188  0.00  0.00    +0.001 A 
ATOM     31  C   UNL     1     -15.990   3.335  25.975  0.00  0.00    +0.001 A 
ATOM     32  C   UNL     1     -16.761   4.190  26.762  0.00  0.00    +0.000 A 
ENDBRANCH  26  27
ENDBRANCH  17  24
ENDBRANCH  10  17
TORSDOF 7
ENDMDL
MODEL 3
REMARK VINA RESULT:      -6.8     22.111     24.490
REMARK  Name = 38030355
REMARK  10 active torsions:
REMARK  status: ('A' for Active; 'I' for Inactive)
REMARK    1  A    between atoms: N_3  and  C_12
REMARK    2  A    between atoms: C_7  and  C_11
REMARK    3  A    between atoms: C_8  and  C_12
REMARK    4  A    between atoms: C_10  and  C_17
REMARK    5  A    between atoms: C_11  and  C_21
REMARK    6  A    between atoms: C_11  and  C_22
REMARK    7  A    between atoms: C_14  and  C_23
REMARK    8  A    between atoms: C_17  and  C_24
REMARK    9  A    between atoms: C_18  and  C_25
REMARK   10  A    between atoms: C_26  and  C_27
REMARK                            x       y       z     vdW  Elec       q    Type
REMARK                         _______ _______ _______ _____ _____    ______ ____
ROOT
ATOM      7  C   UNL     1      10.981   4.868  -1.180  0.00  0.00    +0.000 C 
ATOM      8  C   UNL     1      11.974   3.776  -1.642  0.00  0.00    +0.029 C 
ATOM      9  C   UNL     1      10.497   4.585   0.249  0.00  0.00    +0.012 C 
ATOM     10  C   UNL     1      11.646   4.469   1.273  0.00  0.00    +0.024 C 
ATOM     13  C   UNL     1      12.981   3.422  -0.578  0.00  0.00    -0.023 C 
ATOM     14  C   UNL     1      12.860   3.733   0.725  0.00  0.00    -0.073 C 
ATOM     23  C   UNL     1      13.967   3.407   1.689  0.00  0.00    +0.039 C 
ENDROOT
BRANCH   7  11
ATOM     11  C   UNL     1      11.600   6.269  -1.288  0.00  0.00    -0.013 C 
ATOM     21  C   UNL     1      10.654   7.314  -0.707  0.00  0.00    +0.007 C 
ATOM     22  C   UNL     1      11.936   6.591  -2.741  0.00  0.00    +0.007 C 
ENDBRANCH   7  11
BRANCH   8  12
ATOM     12  C   UNL     1      11.247   2.504  -2.092  0.00  0.00    +0.092 C 
BRANCH  12   3
ATOM      3  N   UNL     1      11.138   2.459  -3.549  0.00  0.00    -0.302 NA
ATOM     15  C   UNL     1      12.273   3.154  -4.171  0.00  0.00    +0.085 C 
ATOM     16  C   UNL     1       9.860   3.035  -3.988  0.00  0.00    +0.085 C 
ATOM     18  C   UNL     1      10.877   3.616  -6.222  0.00  0.00    +0.077 C 
ATOM     19  C   UNL     1      12.204   3.069  -5.698  0.00  0.00    +0.028 C 
ATOM     20  C   UNL     1       9.706   2.945  -5.507  0.00  0.00    +0.028 C 
BRANCH  18  25
ATOM      2  O   UNL     1       9.834   2.795  -8.208  0.00  0.00    -0.276 OA
ATOM      5  N   UNL     1      11.866   3.857  -8.403  0.00  0.00    -0.329 N 
ATOM     25  C   UNL     1      10.786   3.380  -7.698  0.00  0.00    +0.214 C 
ATOM     33  H   UNL     1      12.646   4.326  -7.955  0.00  0.00    +0.145 HD
ATOM     34  H   UNL     1      11.917   3.751  -9.411  0.00  0.00    +0.145 HD
ENDBRANCH  18  25
ENDBRANCH  12   3
ENDBRANCH   8  12
BRANCH  10  17
ATOM     17  C   UNL     1      11.096   3.838   2.558  0.00  0.00    +0.105 C 
BRANCH  17  24
ATOM      1  O   UNL     1      10.438   4.426   4.834  0.00  0.00    -0.420 OA
ATOM      4  N   UNL     1      11.327   6.118   3.671  0.00  0.00    -0.112 NA
ATOM      6  N   UNL     1      11.002   6.588   4.929  0.00  0.00    -0.107 NA
ATOM     24  C   UNL     1      10.980   4.851   3.660  0.00  0.00    +0.218 A 
ATOM     26  C   UNL     1      10.487   5.567   5.574  0.00  0.00    +0.248 A 
BRANCH  26  27
ATOM     27  C   UNL     1       9.979   5.471   6.912  0.00  0.00    +0.038 A 
ATOM     28  C   UNL     1       9.394   6.583   7.517  0.00  0.00    +0.013 A 
ATOM     29  C   UNL     1      10.068   4.265   7.606  0.00  0.00    +0.013 A 
ATOM     30  C   UNL     1       8.900   6.489   8.818  0.00  0.00    +0.001 A 
ATOM     31  C   UNL     1       9.573   4.170   8.907  0.00  0.00    +0.001 A 
ATOM     32  C   UNL     1       8.989   5.283   9.512  0.00  0.00    +0.000 A 
ENDBRANCH  26  27
ENDBRANCH  17  24
ENDBRANCH  10  17
TORSDOF 7
ENDMDL
MODEL 4
REMARK VINA RESULT:      -6.8      3.200      6.034
REMARK  Name = 38030355
REMARK  10 active torsions:
REMARK  status: ('A' for Active; 'I' for Inactive)
REMARK    1  A    between atoms: N_3  and  C_12
REMARK    2  A    between atoms: C_7  and  C_11
REMARK    3  A    between atoms: C_8  and  C_12
REMARK    4  A    between atoms: C_10  and  C_17
REMARK    5  A    between atoms: C_11  and  C_21
REMARK    6  A    between atoms: C_11  and  C_22
REMARK    7  A    between atoms: C_14  and  C_23
REMARK    8  A    between atoms: C_17  and  C_24
REMARK    9  A    between atoms: C_18  and  C_25
REMARK   10  A    between atoms: C_26  and  C_27
REMARK                            x       y       z     vdW  Elec       q    Type
REMARK                         _______ _______ _______ _____ _____    ______ ____
ROOT
ATOM      7  C   UNL     1      -3.589 -10.518  15.400  0.00  0.00    +0.000 C 
ATOM      8  C   UNL     1      -4.714 -11.267  14.648  0.00  0.00    +0.029 C 
ATOM      9  C   UNL     1      -3.986 -10.281  16.864  0.00  0.00    +0.012 C 
ATOM     10  C   UNL     1      -4.333 -11.580  17.622  0.00  0.00    +0.024 C 
ATOM     13  C   UNL     1      -5.286 -12.408  15.451  0.00  0.00    -0.023 C 
ATOM     14  C   UNL     1      -5.117 -12.572  16.776  0.00  0.00    -0.073 C 
ATOM     23  C   UNL     1      -5.661 -13.794  17.464  0.00  0.00    +0.039 C 
ENDROOT
BRANCH   7  11
ATOM     11  C   UNL     1      -2.254 -11.268  15.303  0.00  0.00    -0.013 C 
ATOM     21  C   UNL     1      -1.100 -10.356  15.706  0.00  0.00    +0.007 C 
ATOM     22  C   UNL     1      -2.049 -11.807  13.890  0.00  0.00    +0.007 C 
ENDBRANCH   7  11
BRANCH   8  12
ATOM     12  C   UNL     1      -5.846 -10.322  14.236  0.00  0.00    +0.092 C 
BRANCH  12   3
ATOM      3  N   UNL     1      -5.653  -9.851  12.865  0.00  0.00    -0.302 NA
ATOM     15  C   UNL     1      -6.930  -9.413  12.287  0.00  0.00    +0.085 C 
ATOM     16  C   UNL     1      -5.031 -10.898  12.044  0.00  0.00    +0.085 C 
ATOM     18  C   UNL     1      -6.055  -9.892   9.969  0.00  0.00    +0.077 C 
ATOM     19  C   UNL     1      -6.737  -8.865  10.871  0.00  0.00    +0.028 C 
ATOM     20  C   UNL     1      -4.771 -10.402  10.621  0.00  0.00    +0.028 C 
BRANCH  18  25
ATOM      2  O   UNL     1      -6.539  -9.318   7.702  0.00  0.00    -0.276 OA
ATOM      5  N   UNL     1      -4.514  -8.671   8.582  0.00  0.00    -0.329 N 
ATOM     25  C   UNL     1      -5.750  -9.270   8.642  0.00  0.00    +0.214 C 
ATOM     33  H   UNL     1      -3.876  -8.657   9.371  0.00  0.00    +0.145 HD
ATOM     34  H   UNL     1      -4.195  -8.219   7.732  0.00  0.00    +0.145 HD
ENDBRANCH  18  25
ENDBRANCH  12   3
ENDBRANCH   8  12
BRANCH  10  17
ATOM     17  C   UNL     1      -5.050 -11.210  18.926  0.00  0.00    +0.105 C 
BRANCH  17  24
ATOM      1  O   UNL     1      -6.904 -10.108  17.784  0.00  0.00    -0.420 OA
ATOM      4  N   UNL     1      -7.535 -11.641  19.286  0.00  0.00    -0.112 NA
ATOM      6  N   UNL     1      -8.675 -11.101  18.721  0.00  0.00    -0.107 NA
ATOM     24  C   UNL     1      -6.525 -11.031  18.709  0.00  0.00    +0.218 A 
ATOM     26  C   UNL     1      -8.259 -10.211  17.851  0.00  0.00    +0.248 A 
BRANCH  26  27
ATOM     27  C   UNL     1      -8.998  -9.348  16.975  0.00  0.00    +0.038 A 
ATOM     28  C   UNL     1      -9.108  -9.660  15.620  0.00  0.00    +0.013 A 
ATOM     29  C   UNL     1      -9.606  -8.199  17.478  0.00  0.00    +0.013 A 
ATOM     30  C   UNL     1      -9.827  -8.820  14.768  0.00  0.00    +0.001 A 
ATOM     31  C   UNL     1     -10.326  -7.360  16.627  0.00  0.00    +0.001 A 
ATOM     32  C   UNL     1     -10.435  -7.671  15.272  0.00  0.00    +0.000 A 
ENDBRANCH  26  27
ENDBRANCH  17  24
ENDBRANCH  10  17
TORSDOF 7
ENDMDL
MODEL 5
REMARK VINA RESULT:      -6.8      2.557      9.824
REMARK  Name = 38030355
REMARK  10 active torsions:
REMARK  status: ('A' for Active; 'I' for Inactive)
REMARK    1  A    between atoms: N_3  and  C_12
REMARK    2  A    between atoms: C_7  and  C_11
REMARK    3  A    between atoms: C_8  and  C_12
REMARK    4  A    between atoms: C_10  and  C_17
REMARK    5  A    between atoms: C_11  and  C_21
REMARK    6  A    between atoms: C_11  and  C_22
REMARK    7  A    between atoms: C_14  and  C_23
REMARK    8  A    between atoms: C_17  and  C_24
REMARK    9  A    between atoms: C_18  and  C_25
REMARK   10  A    between atoms: C_26  and  C_27
REMARK                            x       y       z     vdW  Elec       q    Type
REMARK                         _______ _______ _______ _____ _____    ______ ____
ROOT
ATOM      7  C   UNL     1      -4.197 -11.966  13.784  0.00  0.00    +0.000 C 
ATOM      8  C   UNL     1      -2.955 -11.381  14.496  0.00  0.00    +0.029 C 
ATOM      9  C   UNL     1      -4.757 -10.960  12.768  0.00  0.00    +0.012 C 
ATOM     10  C   UNL     1      -3.721 -10.516  11.712  0.00  0.00    +0.024 C 
ATOM     13  C   UNL     1      -2.012 -10.693  13.543  0.00  0.00    -0.023 C 
ATOM     14  C   UNL     1      -2.331 -10.310  12.293  0.00  0.00    -0.073 C 
ATOM     23  C   UNL     1      -1.285  -9.707  11.395  0.00  0.00    +0.039 C 
ENDROOT
BRANCH   7  11
ATOM     11  C   UNL     1      -3.878 -13.310  13.115  0.00  0.00    -0.013 C 
ATOM     21  C   UNL     1      -5.153 -13.953  12.579  0.00  0.00    +0.007 C 
ATOM     22  C   UNL     1      -3.176 -14.240  14.100  0.00  0.00    +0.007 C 
ENDBRANCH   7  11
BRANCH   8  12
ATOM     12  C   UNL     1      -3.348 -10.405  15.610  0.00  0.00    +0.092 C 
BRANCH  12   3
ATOM      3  N   UNL     1      -4.448 -10.947  16.407  0.00  0.00    -0.302 NA
ATOM     15  C   UNL     1      -5.527  -9.959  16.533  0.00  0.00    +0.085 C 
ATOM     16  C   UNL     1      -3.964 -11.374  17.727  0.00  0.00    +0.085 C 
ATOM     18  C   UNL     1      -6.269 -11.033  18.693  0.00  0.00    +0.077 C 
ATOM     19  C   UNL     1      -6.709 -10.530  17.320  0.00  0.00    +0.028 C 
ATOM     20  C   UNL     1      -5.091 -11.995  18.554  0.00  0.00    +0.028 C 
BRANCH  18  25
ATOM      2  O   UNL     1      -8.295 -11.089  19.958  0.00  0.00    -0.276 OA
ATOM      5  N   UNL     1      -7.376 -13.087  19.281  0.00  0.00    -0.329 N 
ATOM     25  C   UNL     1      -7.417 -11.716  19.369  0.00  0.00    +0.214 C 
ATOM     33  H   UNL     1      -6.632 -13.580  18.798  0.00  0.00    +0.145 HD
ATOM     34  H   UNL     1      -8.100 -13.658  19.705  0.00  0.00    +0.145 HD
ENDBRANCH  18  25
ENDBRANCH  12   3
ENDBRANCH   8  12
BRANCH  10  17
ATOM     17  C   UNL     1      -4.258  -9.272  10.993  0.00  0.00    +0.105 C 
BRANCH  17  24
ATOM      1  O   UNL     1      -4.220 -10.672   8.994  0.00  0.00    -0.420 OA
ATOM      4  N   UNL     1      -5.745  -9.036   8.938  0.00  0.00    -0.112 NA
ATOM      6  N   UNL     1      -5.833  -9.743   7.754  0.00  0.00    -0.107 NA
ATOM     24  C   UNL     1      -4.791  -9.613   9.631  0.00  0.00    +0.218 A 
ATOM     26  C   UNL     1      -4.925 -10.688   7.830  0.00  0.00    +0.248 A 
BRANCH  26  27
ATOM     27  C   UNL     1      -4.568 -11.715   6.895  0.00  0.00    +0.038 A 
ATOM     28  C   UNL     1      -4.098 -12.945   7.357  0.00  0.00    +0.013 A 
ATOM     29  C   UNL     1      -4.692 -11.485   5.525  0.00  0.00    +0.013 A 
ATOM     30  C   UNL     1      -3.752 -13.944   6.446  0.00  0.00    +0.001 A 
ATOM     31  C   UNL     1      -4.347 -12.485   4.616  0.00  0.00    +0.001 A 
ATOM     32  C   UNL     1      -3.876 -13.714   5.077  0.00  0.00    +0.000 A 
ENDBRANCH  26  27
ENDBRANCH  17  24
ENDBRANCH  10  17
TORSDOF 7
ENDMDL
MODEL 6
REMARK VINA RESULT:      -6.7      4.072      9.061
REMARK  Name = 38030355
REMARK  10 active torsions:
REMARK  status: ('A' for Active; 'I' for Inactive)
REMARK    1  A    between atoms: N_3  and  C_12
REMARK    2  A    between atoms: C_7  and  C_11
REMARK    3  A    between atoms: C_8  and  C_12
REMARK    4  A    between atoms: C_10  and  C_17
REMARK    5  A    between atoms: C_11  and  C_21
REMARK    6  A    between atoms: C_11  and  C_22
REMARK    7  A    between atoms: C_14  and  C_23
REMARK    8  A    between atoms: C_17  and  C_24
REMARK    9  A    between atoms: C_18  and  C_25
REMARK   10  A    between atoms: C_26  and  C_27
REMARK                            x       y       z     vdW  Elec       q    Type
REMARK                         _______ _______ _______ _____ _____    ______ ____
ROOT
ATOM      7  C   UNL     1      -7.269 -12.104  17.083  0.00  0.00    +0.000 C 
ATOM      8  C   UNL     1      -7.338 -11.763  18.590  0.00  0.00    +0.029 C 
ATOM      9  C   UNL     1      -6.005 -11.503  16.453  0.00  0.00    +0.012 C 
ATOM     10  C   UNL     1      -4.701 -11.959  17.143  0.00  0.00    +0.024 C 
ATOM     13  C   UNL     1      -6.012 -11.940  19.285  0.00  0.00    -0.023 C 
ATOM     14  C   UNL     1      -4.826 -12.042  18.657  0.00  0.00    -0.073 C 
ATOM     23  C   UNL     1      -3.571 -12.303  19.444  0.00  0.00    +0.039 C 
ENDROOT
BRANCH   7  11
ATOM     11  C   UNL     1      -7.338 -13.619  16.848  0.00  0.00    -0.013 C 
ATOM     21  C   UNL     1      -7.472 -13.921  15.359  0.00  0.00    +0.007 C 
ATOM     22  C   UNL     1      -8.500 -14.226  17.630  0.00  0.00    +0.007 C 
ENDBRANCH   7  11
BRANCH   8  12
ATOM     12  C   UNL     1      -7.844 -10.337  18.825  0.00  0.00    +0.092 C 
BRANCH  12   3
ATOM      3  N   UNL     1      -8.996 -10.050  17.971  0.00  0.00    -0.302 NA
ATOM     15  C   UNL     1      -8.775  -8.815  17.207  0.00  0.00    +0.085 C 
ATOM     16  C   UNL     1     -10.223  -9.963  18.775  0.00  0.00    +0.085 C 
ATOM     18  C   UNL     1     -11.269  -8.466  17.034  0.00  0.00    +0.077 C 
ATOM     19  C   UNL     1      -9.949  -8.529  16.268  0.00  0.00    +0.028 C 
ATOM     20  C   UNL     1     -11.446  -9.719  17.890  0.00  0.00    +0.028 C 
BRANCH  18  25
ATOM      2  O   UNL     1     -13.569  -8.549  16.395  0.00  0.00    -0.276 OA
ATOM      5  N   UNL     1     -12.014  -7.978  14.798  0.00  0.00    -0.329 N 
ATOM     25  C   UNL     1     -12.404  -8.335  16.067  0.00  0.00    +0.214 C 
ATOM     33  H   UNL     1     -11.042  -7.819  14.552  0.00  0.00    +0.145 HD
ATOM     34  H   UNL     1     -12.696  -7.862  14.056  0.00  0.00    +0.145 HD
ENDBRANCH  18  25
ENDBRANCH  12   3
ENDBRANCH   8  12
BRANCH  10  17
ATOM     17  C   UNL     1      -3.559 -11.041  16.688  0.00  0.00    +0.105 C 
BRANCH  17  24
ATOM      1  O   UNL     1      -3.835 -10.384  14.354  0.00  0.00    -0.420 OA
ATOM      4  N   UNL     1      -2.468 -12.129  14.659  0.00  0.00    -0.112 NA
ATOM      6  N   UNL     1      -2.533 -11.869  13.303  0.00  0.00    -0.107 NA
ATOM     24  C   UNL     1      -3.244 -11.238  15.233  0.00  0.00    +0.218 A 
ATOM     26  C   UNL     1      -3.341 -10.843  13.171  0.00  0.00    +0.248 A 
BRANCH  26  27
ATOM     27  C   UNL     1      -3.775 -10.144  11.996  0.00  0.00    +0.038 A 
ATOM     28  C   UNL     1      -2.882  -9.924  10.948  0.00  0.00    +0.013 A 
ATOM     29  C   UNL     1      -5.089  -9.686  11.903  0.00  0.00    +0.013 A 
ATOM     30  C   UNL     1      -3.305  -9.244   9.805  0.00  0.00    +0.001 A 
ATOM     31  C   UNL     1      -5.511  -9.007  10.760  0.00  0.00    +0.001 A 
ATOM     32  C   UNL     1      -4.618  -8.786   9.711  0.00  0.00    +0.000 A 
ENDBRANCH  26  27
ENDBRANCH  17  24
ENDBRANCH  10  17
TORSDOF 7
ENDMDL
MODEL 7
REMARK VINA RESULT:      -6.5      2.433     10.313
REMARK  Name = 38030355
REMARK  10 active torsions:
REMARK  status: ('A' for Active; 'I' for Inactive)
REMARK    1  A    between atoms: N_3  and  C_12
REMARK    2  A    between atoms: C_7  and  C_11
REMARK    3  A    between atoms: C_8  and  C_12
REMARK    4  A    between atoms: C_10  and  C_17
REMARK    5  A    between atoms: C_11  and  C_21
REMARK    6  A    between atoms: C_11  and  C_22
REMARK    7  A    between atoms: C_14  and  C_23
REMARK    8  A    between atoms: C_17  and  C_24
REMARK    9  A    between atoms: C_18  and  C_25
REMARK   10  A    between atoms: C_26  and  C_27
REMARK                            x       y       z     vdW  Elec       q    Type
REMARK                         _______ _______ _______ _____ _____    ______ ____
ROOT
ATOM      7  C   UNL     1      -4.905 -12.201  12.471  0.00  0.00    +0.000 C 
ATOM      8  C   UNL     1      -4.174 -11.319  13.509  0.00  0.00    +0.029 C 
ATOM      9  C   UNL     1      -5.220 -11.393  11.204  0.00  0.00    +0.012 C 
ATOM     10  C   UNL     1      -3.970 -10.762  10.553  0.00  0.00    +0.024 C 
ATOM     13  C   UNL     1      -3.094 -10.469  12.888  0.00  0.00    -0.023 C 
ATOM     14  C   UNL     1      -2.979 -10.219  11.571  0.00  0.00    -0.073 C 
ATOM     23  C   UNL     1      -1.812  -9.427  11.049  0.00  0.00    +0.039 C 
ENDROOT
BRANCH   7  11
ATOM     11  C   UNL     1      -4.094 -13.460  12.136  0.00  0.00    -0.013 C 
ATOM     21  C   UNL     1      -4.887 -14.372  11.206  0.00  0.00    +0.007 C 
ATOM     22  C   UNL     1      -3.705 -14.198  13.414  0.00  0.00    +0.007 C 
ENDBRANCH   7  11
BRANCH   8  12
ATOM     12  C   UNL     1      -5.149 -10.417  14.272  0.00  0.00    +0.092 C 
BRANCH  12   3
ATOM      3  N   UNL     1      -5.427 -10.964  15.600  0.00  0.00    -0.302 NA
ATOM     15  C   UNL     1      -6.765 -10.561  16.052  0.00  0.00    +0.085 C 
ATOM     16  C   UNL     1      -4.395 -10.542  16.556  0.00  0.00    +0.085 C 
ATOM     18  C   UNL     1      -6.035 -10.804  18.455  0.00  0.00    +0.077 C 
ATOM     19  C   UNL     1      -7.094 -11.170  17.417  0.00  0.00    +0.028 C 
ATOM     20  C   UNL     1      -4.641 -11.152  17.937  0.00  0.00    +0.028 C 
BRANCH  18  25
ATOM      2  O   UNL     1      -5.816 -11.193  20.802  0.00  0.00    -0.276 OA
ATOM      5  N   UNL     1      -7.140 -12.623  19.579  0.00  0.00    -0.329 N 
ATOM     25  C   UNL     1      -6.310 -11.537  19.731  0.00  0.00    +0.214 C 
ATOM     33  H   UNL     1      -7.525 -12.893  18.680  0.00  0.00    +0.145 HD
ATOM     34  H   UNL     1      -7.394 -13.200  20.374  0.00  0.00    +0.145 HD
ENDBRANCH  18  25
ENDBRANCH  12   3
ENDBRANCH   8  12
BRANCH  10  17
ATOM     17  C   UNL     1      -4.426  -9.705   9.540  0.00  0.00    +0.105 C 
BRANCH  17  24
ATOM      1  O   UNL     1      -5.624  -9.588   7.417  0.00  0.00    -0.420 OA
ATOM      4  N   UNL     1      -4.547 -11.520   7.757  0.00  0.00    -0.112 NA
ATOM      6  N   UNL     1      -5.177 -11.591   6.528  0.00  0.00    -0.107 NA
ATOM     24  C   UNL     1      -4.836 -10.333   8.239  0.00  0.00    +0.218 A 
ATOM     26  C   UNL     1      -5.793 -10.443   6.371  0.00  0.00    +0.248 A 
BRANCH  26  27
ATOM     27  C   UNL     1      -6.599  -9.958   5.289  0.00  0.00    +0.038 A 
ATOM     28  C   UNL     1      -6.933 -10.808   4.234  0.00  0.00    +0.013 A 
ATOM     29  C   UNL     1      -7.050  -8.639   5.291  0.00  0.00    +0.013 A 
ATOM     30  C   UNL     1      -7.718 -10.337   3.181  0.00  0.00    +0.001 A 
ATOM     31  C   UNL     1      -7.835  -8.168   4.239  0.00  0.00    +0.001 A 
ATOM     32  C   UNL     1      -8.169  -9.017   3.184  0.00  0.00    +0.000 A 
ENDBRANCH  26  27
ENDBRANCH  17  24
ENDBRANCH  10  17
TORSDOF 7
ENDMDL
MODEL 8
REMARK VINA RESULT:      -6.5      4.101      9.863
REMARK  Name = 38030355
REMARK  10 active torsions:
REMARK  status: ('A' for Active; 'I' for Inactive)
REMARK    1  A    between atoms: N_3  and  C_12
REMARK    2  A    between atoms: C_7  and  C_11
REMARK    3  A    between atoms: C_8  and  C_12
REMARK    4  A    between atoms: C_10  and  C_17
REMARK    5  A    between atoms: C_11  and  C_21
REMARK    6  A    between atoms: C_11  and  C_22
REMARK    7  A    between atoms: C_14  and  C_23
REMARK    8  A    between atoms: C_17  and  C_24
REMARK    9  A    between atoms: C_18  and  C_25
REMARK   10  A    between atoms: C_26  and  C_27
REMARK                            x       y       z     vdW  Elec       q    Type
REMARK                         _______ _______ _______ _____ _____    ______ ____
ROOT
ATOM      7  C   UNL     1      -6.815 -11.900  16.427  0.00  0.00    +0.000 C 
ATOM      8  C   UNL     1      -6.989 -11.357  17.864  0.00  0.00    +0.029 C 
ATOM      9  C   UNL     1      -5.475 -11.440  15.836  0.00  0.00    +0.012 C 
ATOM     10  C   UNL     1      -4.256 -11.849  16.691  0.00  0.00    +0.024 C 
ATOM     13  C   UNL     1      -5.735 -11.490  18.689  0.00  0.00    -0.023 C 
ATOM     14  C   UNL     1      -4.509 -11.722  18.186  0.00  0.00    -0.073 C 
ATOM     23  C   UNL     1      -3.337 -11.923  19.107  0.00  0.00    +0.039 C 
ENDROOT
BRANCH   7  11
ATOM     11  C   UNL     1      -6.941 -13.430  16.388  0.00  0.00    -0.013 C 
ATOM     21  C   UNL     1      -6.937 -13.927  14.946  0.00  0.00    +0.007 C 
ATOM     22  C   UNL     1      -8.208 -13.877  17.110  0.00  0.00    +0.007 C 
ENDBRANCH   7  11
BRANCH   8  12
ATOM     12  C   UNL     1      -7.441  -9.893  17.864  0.00  0.00    +0.092 C 
BRANCH  12   3
ATOM      3  N   UNL     1      -8.752  -9.756  18.497  0.00  0.00    -0.302 NA
ATOM     15  C   UNL     1      -9.048 -10.932  19.325  0.00  0.00    +0.085 C 
ATOM     16  C   UNL     1      -9.793  -9.548  17.481  0.00  0.00    +0.085 C 
ATOM     18  C   UNL     1     -11.522 -10.520  19.041  0.00  0.00    +0.077 C 
ATOM     19  C   UNL     1     -10.394 -10.782  20.038  0.00  0.00    +0.028 C 
ATOM     20  C   UNL     1     -11.164  -9.347  18.130  0.00  0.00    +0.028 C 
BRANCH  18  25
ATOM      2  O   UNL     1     -13.809  -9.854  19.211  0.00  0.00    -0.276 OA
ATOM      5  N   UNL     1     -12.689 -10.408  21.142  0.00  0.00    -0.329 N 
ATOM     25  C   UNL     1     -12.789 -10.231  19.782  0.00  0.00    +0.214 C 
ATOM     33  H   UNL     1     -11.830 -10.709  21.591  0.00  0.00    +0.145 HD
ATOM     34  H   UNL     1     -13.484 -10.238  21.750  0.00  0.00    +0.145 HD
ENDBRANCH  18  25
ENDBRANCH  12   3
ENDBRANCH   8  12
BRANCH  10  17
ATOM     17  C   UNL     1      -3.037 -11.046  16.221  0.00  0.00    +0.105 C 
BRANCH  17  24
ATOM      1  O   UNL     1      -3.320 -10.837  13.806  0.00  0.00    -0.420 OA
ATOM      4  N   UNL     1      -1.706 -12.260  14.420  0.00  0.00    -0.112 NA
ATOM      6  N   UNL     1      -1.756 -12.240  13.039  0.00  0.00    -0.107 NA
ATOM     24  C   UNL     1      -2.636 -11.426  14.825  0.00  0.00    +0.218 A 
ATOM     26  C   UNL     1      -2.711 -11.397  12.725  0.00  0.00    +0.248 A 
BRANCH  26  27
ATOM     27  C   UNL     1      -3.203 -10.981  11.443  0.00  0.00    +0.038 A 
ATOM     28  C   UNL     1      -3.061  -9.654  11.040  0.00  0.00    +0.013 A 
ATOM     29  C   UNL     1      -3.822 -11.904  10.601  0.00  0.00    +0.013 A 
ATOM     30  C   UNL     1      -3.540  -9.250   9.793  0.00  0.00    +0.001 A 
ATOM     31  C   UNL     1      -4.300 -11.500   9.354  0.00  0.00    +0.001 A 
ATOM     32  C   UNL     1      -4.159 -10.172   8.951  0.00  0.00    +0.000 A 
ENDBRANCH  26  27
ENDBRANCH  17  24
ENDBRANCH  10  17
TORSDOF 7
ENDMDL
MODEL 9
REMARK VINA RESULT:      -6.3      4.744      8.806
REMARK  Name = 38030355
REMARK  10 active torsions:
REMARK  status: ('A' for Active; 'I' for Inactive)
REMARK    1  A    between atoms: N_3  and  C_12
REMARK    2  A    between atoms: C_7  and  C_11
REMARK    3  A    between atoms: C_8  and  C_12
REMARK    4  A    between atoms: C_10  and  C_17
REMARK    5  A    between atoms: C_11  and  C_21
REMARK    6  A    between atoms: C_11  and  C_22
REMARK    7  A    between atoms: C_14  and  C_23
REMARK    8  A    between atoms: C_17  and  C_24
REMARK    9  A    between atoms: C_18  and  C_25
REMARK   10  A    between atoms: C_26  and  C_27
REMARK                            x       y       z     vdW  Elec       q    Type
REMARK                         _______ _______ _______ _____ _____    ______ ____
ROOT
ATOM      7  C   UNL     1      -9.250 -10.793  16.263  0.00  0.00    +0.000 C 
ATOM      8  C   UNL     1      -9.971 -10.804  17.631  0.00  0.00    +0.029 C 
ATOM      9  C   UNL     1      -7.808 -10.290  16.419  0.00  0.00    +0.012 C 
ATOM     10  C   UNL     1      -6.979 -11.111  17.431  0.00  0.00    +0.024 C 
ATOM     13  C   UNL     1      -9.110 -11.362  18.735  0.00  0.00    -0.023 C 
ATOM     14  C   UNL     1      -7.776 -11.519  18.661  0.00  0.00    -0.073 C 
ATOM     23  C   UNL     1      -7.024 -12.168  19.791  0.00  0.00    +0.039 C 
ENDROOT
BRANCH   7  11
ATOM     11  C   UNL     1      -9.285 -12.177  15.601  0.00  0.00    -0.013 C 
ATOM     21  C   UNL     1      -8.592 -12.136  14.243  0.00  0.00    +0.007 C 
ATOM     22  C   UNL     1     -10.724 -12.663  15.459  0.00  0.00    +0.007 C 
ENDBRANCH   7  11
BRANCH   8  12
ATOM     12  C   UNL     1     -10.454  -9.405  18.027  0.00  0.00    +0.092 C 
BRANCH  12   3
ATOM      3  N   UNL     1     -10.873  -8.650  16.847  0.00  0.00    -0.302 NA
ATOM     15  C   UNL     1     -10.316  -7.291  16.881  0.00  0.00    +0.085 C 
ATOM     16  C   UNL     1     -12.339  -8.619  16.750  0.00  0.00    +0.085 C 
ATOM     18  C   UNL     1     -12.216  -6.466  15.440  0.00  0.00    +0.077 C 
ATOM     19  C   UNL     1     -10.700  -6.504  15.627  0.00  0.00    +0.028 C 
ATOM     20  C   UNL     1     -12.793  -7.880  15.490  0.00  0.00    +0.028 C 
BRANCH  18  25
ATOM      2  O   UNL     1     -12.710  -4.608  14.023  0.00  0.00    -0.276 OA
ATOM      5  N   UNL     1     -12.657  -6.709  13.086  0.00  0.00    -0.329 N 
ATOM     25  C   UNL     1     -12.544  -5.820  14.130  0.00  0.00    +0.214 C 
ATOM     33  H   UNL     1     -12.526  -7.708  13.205  0.00  0.00    +0.145 HD
ATOM     34  H   UNL     1     -12.880  -6.387  12.150  0.00  0.00    +0.145 HD
ENDBRANCH  18  25
ENDBRANCH  12   3
ENDBRANCH   8  12
BRANCH  10  17
ATOM     17  C   UNL     1      -5.709 -10.324  17.777  0.00  0.00    +0.105 C 
BRANCH  17  24
ATOM      1  O   UNL     1      -4.705 -10.308  15.552  0.00  0.00    -0.420 OA
ATOM      4  N   UNL     1      -3.453 -11.306  17.115  0.00  0.00    -0.112 NA
ATOM      6  N   UNL     1      -2.770 -11.370  15.915  0.00  0.00    -0.107 NA
ATOM     24  C   UNL     1      -4.577 -10.678  16.855  0.00  0.00    +0.218 A 
ATOM     26  C   UNL     1      -3.537 -10.775  15.031  0.00  0.00    +0.248 A 
BRANCH  26  27
ATOM     27  C   UNL     1      -3.339 -10.546  13.629  0.00  0.00    +0.038 A 
ATOM     28  C   UNL     1      -2.046 -10.457  13.115  0.00  0.00    +0.013 A 
ATOM     29  C   UNL     1      -4.438 -10.412  12.782  0.00  0.00    +0.013 A 
ATOM     30  C   UNL     1      -1.853 -10.233  11.751  0.00  0.00    +0.001 A 
ATOM     31  C   UNL     1      -4.245 -10.190  11.419  0.00  0.00    +0.001 A 
ATOM     32  C   UNL     1      -2.952 -10.100  10.903  0.00  0.00    +0.000 A 
ENDBRANCH  26  27
ENDBRANCH  17  24
ENDBRANCH  10  17
TORSDOF 7
ENDMDL
MODEL 10
REMARK VINA RESULT:      -6.2      2.701     10.603
REMARK  Name = 38030355
REMARK  10 active torsions:
REMARK  status: ('A' for Active; 'I' for Inactive)
REMARK    1  A    between atoms: N_3  and  C_12
REMARK    2  A    between atoms: C_7  and  C_11
REMARK    3  A    between atoms: C_8  and  C_12
REMARK    4  A    between atoms: C_10  and  C_17
REMARK    5  A    between atoms: C_11  and  C_21
REMARK    6  A    between atoms: C_11  and  C_22
REMARK    7  A    between atoms: C_14  and  C_23
REMARK    8  A    between atoms: C_17  and  C_24
REMARK    9  A    between atoms: C_18  and  C_25
REMARK   10  A    between atoms: C_26  and  C_27
REMARK                            x       y       z     vdW  Elec       q    Type
REMARK                         _______ _______ _______ _____ _____    ______ ____
ROOT
ATOM      7  C   UNL     1      -6.270 -11.598  12.073  0.00  0.00    +0.000 C 
ATOM      8  C   UNL     1      -5.110 -10.889  12.809  0.00  0.00    +0.029 C 
ATOM      9  C   UNL     1      -6.924 -10.650  11.059  0.00  0.00    +0.012 C 
ATOM     10  C   UNL     1      -5.930 -10.082  10.023  0.00  0.00    +0.024 C 
ATOM     13  C   UNL     1      -4.235 -10.090  11.876  0.00  0.00    -0.023 C 
ATOM     14  C   UNL     1      -4.578  -9.731  10.626  0.00  0.00    -0.073 C 
ATOM     23  C   UNL     1      -3.593  -9.007   9.748  0.00  0.00    +0.039 C 
ENDROOT
BRANCH   7  11
ATOM     11  C   UNL     1      -5.796 -12.892  11.396  0.00  0.00    -0.013 C 
ATOM     21  C   UNL     1      -6.982 -13.650  10.808  0.00  0.00    +0.007 C 
ATOM     22  C   UNL     1      -5.036 -13.765  12.390  0.00  0.00    +0.007 C 
ENDBRANCH   7  11
BRANCH   8  12
ATOM     12  C   UNL     1      -5.622  -9.975  13.926  0.00  0.00    +0.092 C 
BRANCH  12   3
ATOM      3  N   UNL     1      -5.508 -10.634  15.227  0.00  0.00    -0.302 NA
ATOM     15  C   UNL     1      -5.810  -9.689  16.310  0.00  0.00    +0.085 C 
ATOM     16  C   UNL     1      -4.169 -11.217  15.391  0.00  0.00    +0.085 C 
ATOM     18  C   UNL     1      -4.392 -11.043  17.898  0.00  0.00    +0.077 C 
ATOM     19  C   UNL     1      -5.747 -10.376  17.676  0.00  0.00    +0.028 C 
ATOM     20  C   UNL     1      -4.051 -11.958  16.723  0.00  0.00    +0.028 C 
BRANCH  18  25
ATOM      2  O   UNL     1      -3.394 -12.156  19.762  0.00  0.00    -0.276 OA
ATOM      5  N   UNL     1      -5.689 -12.150  19.596  0.00  0.00    -0.329 N 
ATOM     25  C   UNL     1      -4.421 -11.827  19.173  0.00  0.00    +0.214 C 
ATOM     33  H   UNL     1      -6.521 -11.876  19.083  0.00  0.00    +0.145 HD
ATOM     34  H   UNL     1      -5.835 -12.684  20.446  0.00  0.00    +0.145 HD
ENDBRANCH  18  25
ENDBRANCH  12   3
ENDBRANCH   8  12
BRANCH  10  17
ATOM     17  C   UNL     1      -6.590  -8.896   9.308  0.00  0.00    +0.105 C 
BRANCH  17  24
ATOM      1  O   UNL     1      -7.526  -8.359   7.119  0.00  0.00    -0.420 OA
ATOM      4  N   UNL     1      -5.921  -9.918   7.073  0.00  0.00    -0.112 NA
ATOM      6  N   UNL     1      -6.357  -9.715   5.777  0.00  0.00    -0.107 NA
ATOM     24  C   UNL     1      -6.631  -9.106   7.822  0.00  0.00    +0.218 A 
ATOM     26  C   UNL     1      -7.293  -8.798   5.851  0.00  0.00    +0.248 A 
BRANCH  26  27
ATOM     27  C   UNL     1      -8.092  -8.196   4.823  0.00  0.00    +0.038 A 
ATOM     28  C   UNL     1      -7.661  -8.229   3.497  0.00  0.00    +0.013 A 
ATOM     29  C   UNL     1      -9.300  -7.581   5.149  0.00  0.00    +0.013 A 
ATOM     30  C   UNL     1      -8.439  -7.644   2.497  0.00  0.00    +0.001 A 
ATOM     31  C   UNL     1     -10.078  -6.998   4.149  0.00  0.00    +0.001 A 
ATOM     32  C   UNL     1      -9.647  -7.029   2.823  0.00  0.00    +0.000 A 
ENDBRANCH  26  27
ENDBRANCH  17  24
ENDBRANCH  10  17
TORSDOF 7
ENDMDL
