REMARK  Name = 71694374
REMARK  7 active torsions:
REMARK  status: ('A' for Active; 'I' for Inactive)
REMARK    1  A    between atoms: N_8  and  C_31
REMARK    2  A    between atoms: N_8  and  C_33
REMARK    3  A    between atoms: N_8  and  C_34
REMARK    4  A    between atoms: C_10  and  C_15
REMARK    5  A    between atoms: C_15  and  C_17
REMARK    6  A    between atoms: C_33  and  C_35
REMARK    7  A    between atoms: C_35  and  C_36
REMARK                            x       y       z     vdW  Elec       q    Type
REMARK                         _______ _______ _______ _____ _____    ______ ____
ROOT
ATOM      2  O   UNL     1      -0.264   3.052  -1.467  0.00  0.00    -0.274 OA
ATOM      4  O   UNL     1       0.038  -2.142  -0.423  0.00  0.00    -0.488 OA
ATOM      5  N   UNL     1      -1.988   1.517  -1.641  0.00  0.00    -0.300 N 
ATOM      7  N   UNL     1       0.738   0.004  -2.259  0.00  0.00    -0.304 NA
ATOM     10  C   UNL     1      -3.503   0.050   0.371  0.00  0.00    +0.008 C 
ATOM     11  C   UNL     1      -2.567  -0.638  -0.668  0.00  0.00    +0.032 C 
ATOM     12  C   UNL     1      -3.038   1.510   0.583  0.00  0.00    +0.023 C 
ATOM     13  C   UNL     1      -2.500   0.182  -1.970  0.00  0.00    +0.115 C 
ATOM     14  C   UNL     1      -2.858   2.270  -0.734  0.00  0.00    +0.108 C 
ATOM     16  C   UNL     1      -2.908  -2.078  -0.945  0.00  0.00    -0.023 C 
ATOM     18  C   UNL     1      -0.709   1.994  -1.927  0.00  0.00    +0.229 C 
ATOM     19  C   UNL     1      -2.146  -3.171  -0.774  0.00  0.00    +0.010 C 
ATOM     20  C   UNL     1       0.170   1.199  -2.876  0.00  0.00    +0.178 C 
ATOM     23  C   UNL     1      -0.720  -3.341  -0.315  0.00  0.00    +0.256 C 
ATOM     26  C   UNL     1       1.457   0.234  -1.008  0.00  0.00    +0.120 C 
ATOM     27  C   UNL     1       2.126  -1.033  -0.500  0.00  0.00    +0.010 A 
ATOM     28  C   UNL     1       1.391  -2.204  -0.203  0.00  0.00    +0.125 A 
ATOM     29  C   UNL     1       3.515  -1.029  -0.296  0.00  0.00    +0.031 A 
ATOM     30  C   UNL     1       2.057  -3.332   0.292  0.00  0.00    +0.048 A 
ATOM     31  C   UNL     1       4.167  -2.161   0.190  0.00  0.00    +0.030 A 
ATOM     32  C   UNL     1       3.439  -3.308   0.484  0.00  0.00    +0.027 A 
ATOM     41  H   UNL     1       1.362  -0.441  -2.933  0.00  0.00    +0.123 HD
ENDROOT
BRANCH  31   8
ATOM      8  N   UNL     1       5.564  -2.141   0.388  0.00  0.00    -0.333 N 
ATOM     34  C   UNL     1       6.250  -3.311   0.897  0.00  0.00    +0.129 C 
BRANCH   8  33
ATOM     33  C   UNL     1       6.332  -0.952   0.076  0.00  0.00    +0.111 C 
BRANCH  33  35
ATOM     35  C   UNL     1       6.282   0.049   1.230  0.00  0.00    +0.074 C 
BRANCH  35  36
ATOM      9  N   UNL     1       8.395   1.252   1.378  0.00  0.00    -0.260 NA
ATOM     36  C   UNL     1       7.105   1.288   0.975  0.00  0.00    +0.043 A 
ATOM     37  C   UNL     1       6.516   2.378   0.355  0.00  0.00    +0.023 A 
ATOM     38  C   UNL     1       7.302   3.504   0.133  0.00  0.00    +0.003 A 
ATOM     39  C   UNL     1       9.128   2.365   1.146  0.00  0.00    +0.111 A 
ATOM     40  C   UNL     1       8.634   3.505   0.533  0.00  0.00    +0.020 A 
ENDBRANCH  35  36
ENDBRANCH  33  35
ENDBRANCH   8  33
ENDBRANCH  31   8
BRANCH  10  15
ATOM     15  C   UNL     1      -4.995   0.006   0.015  0.00  0.00    +0.100 C 
BRANCH  15  17
ATOM      1  O   UNL     1      -5.258   0.404   2.337  0.00  0.00    -0.276 OA
ATOM      3  O   UNL     1      -9.899   0.971   0.725  0.00  0.00    -0.377 OA
ATOM      6  N   UNL     1      -7.206   0.225   1.087  0.00  0.00    -0.297 N 
ATOM     17  C   UNL     1      -5.823   0.228   1.255  0.00  0.00    +0.216 C 
ATOM     21  C   UNL     1      -8.085   0.438   2.237  0.00  0.00    +0.136 C 
ATOM     22  C   UNL     1      -7.912  -0.105  -0.156  0.00  0.00    +0.136 C 
ATOM     24  C   UNL     1      -9.192   1.420   1.884  0.00  0.00    +0.179 C 
ATOM     25  C   UNL     1      -9.031   0.897  -0.409  0.00  0.00    +0.179 C 
ENDBRANCH  15  17
ENDBRANCH  10  15
TORSDOF 6
