REMARK  Name = 75536985
REMARK  3 active torsions:
REMARK  status: ('A' for Active; 'I' for Inactive)
REMARK    1  A    between atoms: N_5  and  C_13
REMARK    2  A    between atoms: C_13  and  C_15
REMARK    3  A    between atoms: C_14  and  C_16
REMARK                            x       y       z     vdW  Elec       q    Type
REMARK                         _______ _______ _______ _____ _____    ______ ____
ROOT
ATOM      2  O   UNL     1       0.259   2.699   0.696  0.00  0.00    -0.252 OA
ATOM      3  O   UNL     1      -5.734  -0.834   0.931  0.00  0.00    -0.276 OA
ATOM      4  N   UNL     1      -1.443   1.209   0.059  0.00  0.00    -0.278 N 
ATOM      5  N   UNL     1       0.527   1.101  -1.017  0.00  0.00    -0.279 N 
ATOM      6  N   UNL     1      -3.481  -0.655   0.397  0.00  0.00    -0.298 N 
ATOM      7  C   UNL     1      -1.652   0.224  -0.988  0.00  0.00    +0.112 C 
ATOM      8  C   UNL     1      -0.256   0.007  -1.567  0.00  0.00    +0.133 C 
ATOM      9  C   UNL     1      -2.308  -1.030  -0.416  0.00  0.00    +0.131 C 
ATOM     10  C   UNL     1      -2.536   1.560   0.947  0.00  0.00    +0.128 C 
ATOM     11  C   UNL     1      -3.196   0.293   1.485  0.00  0.00    +0.127 C 
ATOM     12  C   UNL     1      -0.167   1.787  -0.001  0.00  0.00    +0.306 C 
ATOM     14  C   UNL     1      -4.774  -1.144   0.221  0.00  0.00    +0.213 C 
ATOM     16  C   UNL     1      -4.980  -2.109  -0.919  0.00  0.00    +0.109 C 
ENDROOT
BRANCH   5  13
ATOM     13  C   UNL     1       1.902   1.328  -1.403  0.00  0.00    +0.144 C 
BRANCH  13  15
ATOM      1  F   UNL     1       5.456  -2.033   1.386  0.00  0.00    -0.205 F 
ATOM     15  C   UNL     1       2.850   0.432  -0.659  0.00  0.00    -0.030 A 
ATOM     17  C   UNL     1       3.396   0.849   0.554  0.00  0.00    +0.008 A 
ATOM     18  C   UNL     1       3.184  -0.818  -1.182  0.00  0.00    +0.008 A 
ATOM     19  C   UNL     1       4.277   0.017   1.245  0.00  0.00    +0.038 A 
ATOM     20  C   UNL     1       4.065  -1.650  -0.491  0.00  0.00    +0.038 A 
ATOM     21  C   UNL     1       4.611  -1.233   0.722  0.00  0.00    +0.123 A 
ENDBRANCH  13  15
ENDBRANCH   5  13
TORSDOF 2
