MODEL 1
REMARK VINA RESULT:      -7.5      0.000      0.000
REMARK  Name = 75536638
REMARK  7 active torsions:
REMARK  status: ('A' for Active; 'I' for Inactive)
REMARK    1  A    between atoms: O_3  and  C_9
REMARK    2  A    between atoms: N_5  and  C_8
REMARK    3  A    between atoms: N_5  and  C_13
REMARK    4  A    between atoms: N_6  and  C_12
REMARK    5  A    between atoms: C_10  and  C_12
REMARK    6  A    between atoms: C_13  and  C_14
REMARK    7  A    between atoms: C_15  and  C_17
REMARK                            x       y       z     vdW  Elec       q    Type
REMARK                         _______ _______ _______ _____ _____    ______ ____
ROOT
ATOM      2  O   UNL     1      12.939   6.677  20.621  0.00  0.00    -0.371 OA
ATOM      8  C   UNL     1      10.846   7.707  21.072  0.00  0.00    +0.111 C 
ATOM      9  C   UNL     1      11.438   8.319  19.817  0.00  0.00    +0.164 C 
ATOM     10  C   UNL     1      12.427   7.239  19.401  0.00  0.00    +0.165 C 
ATOM     11  C   UNL     1      12.073   7.065  21.701  0.00  0.00    +0.181 C 
ENDROOT
BRANCH   9   3
ATOM      3  O   UNL     1      10.469   8.561  18.816  0.00  0.00    -0.388 OA
ATOM     27  H   UNL     1      10.213   7.708  18.426  0.00  0.00    +0.210 HD
ENDBRANCH   9   3
BRANCH   8   5
ATOM      5  N   UNL     1      10.203   8.674  21.946  0.00  0.00    -0.303 NA
ATOM     26  H   UNL     1       9.464   8.207  22.473  0.00  0.00    +0.123 HD
BRANCH   5  13
ATOM     13  C   UNL     1      11.159   9.252  22.883  0.00  0.00    +0.137 C 
BRANCH  13  14
ATOM      7  N   UNL     1      10.634  11.250  24.169  0.00  0.00    -0.259 NA
ATOM     14  C   UNL     1      11.018  10.749  22.974  0.00  0.00    +0.055 A 
ATOM     16  C   UNL     1      11.285  11.524  21.856  0.00  0.00    +0.024 A 
ATOM     18  C   UNL     1      11.148  12.903  21.973  0.00  0.00    +0.003 A 
ATOM     21  C   UNL     1      10.512  12.594  24.244  0.00  0.00    +0.111 A 
ATOM     22  C   UNL     1      10.755  13.456  23.187  0.00  0.00    +0.020 A 
ENDBRANCH  13  14
ENDBRANCH   5  13
ENDBRANCH   8   5
BRANCH  10  12
ATOM     12  C   UNL     1      13.574   7.766  18.557  0.00  0.00    +0.138 C 
BRANCH  12   6
ATOM      4  O   UNL     1      15.367   9.293  20.200  0.00  0.00    -0.270 OA
ATOM      6  N   UNL     1      14.842   7.335  19.072  0.00  0.00    -0.309 N 
ATOM     15  C   UNL     1      15.649   8.146  19.864  0.00  0.00    +0.244 C 
ATOM     28  H   UNL     1      15.166   6.422  18.773  0.00  0.00    +0.149 HD
BRANCH  15  17
ATOM      1  F   UNL     1      20.545   5.935  21.496  0.00  0.00    -0.205 F 
ATOM     17  C   UNL     1      16.944   7.561  20.296  0.00  0.00    +0.037 A 
ATOM     19  C   UNL     1      17.405   6.380  19.713  0.00  0.00    +0.016 A 
ATOM     20  C   UNL     1      17.700   8.192  21.285  0.00  0.00    +0.016 A 
ATOM     23  C   UNL     1      18.622   5.830  20.119  0.00  0.00    +0.039 A 
ATOM     24  C   UNL     1      18.916   7.643  21.690  0.00  0.00    +0.039 A 
ATOM     25  C   UNL     1      19.376   6.462  21.107  0.00  0.00    +0.123 A 
ENDBRANCH  15  17
ENDBRANCH  12   6
ENDBRANCH  10  12
TORSDOF 7
ENDMDL
MODEL 2
REMARK VINA RESULT:      -7.1      2.679      6.305
REMARK  Name = 75536638
REMARK  7 active torsions:
REMARK  status: ('A' for Active; 'I' for Inactive)
REMARK    1  A    between atoms: O_3  and  C_9
REMARK    2  A    between atoms: N_5  and  C_8
REMARK    3  A    between atoms: N_5  and  C_13
REMARK    4  A    between atoms: N_6  and  C_12
REMARK    5  A    between atoms: C_10  and  C_12
REMARK    6  A    between atoms: C_13  and  C_14
REMARK    7  A    between atoms: C_15  and  C_17
REMARK                            x       y       z     vdW  Elec       q    Type
REMARK                         _______ _______ _______ _____ _____    ______ ____
ROOT
ATOM      2  O   UNL     1      10.544   8.521  19.832  0.00  0.00    -0.371 OA
ATOM      8  C   UNL     1      12.410   7.230  19.127  0.00  0.00    +0.111 C 
ATOM      9  C   UNL     1      12.373   7.259  20.643  0.00  0.00    +0.164 C 
ATOM     10  C   UNL     1      10.918   7.629  20.895  0.00  0.00    +0.165 C 
ATOM     11  C   UNL     1      11.520   8.414  18.781  0.00  0.00    +0.181 C 
ENDROOT
BRANCH   9   3
ATOM      3  O   UNL     1      12.709   6.014  21.223  0.00  0.00    -0.388 OA
ATOM     27  H   UNL     1      13.587   5.751  20.897  0.00  0.00    +0.210 HD
ENDBRANCH   9   3
BRANCH   8   5
ATOM      5  N   UNL     1      13.748   7.346  18.573  0.00  0.00    -0.303 NA
ATOM     26  H   UNL     1      13.692   7.791  17.656  0.00  0.00    +0.123 HD
BRANCH   5  13
ATOM     13  C   UNL     1      14.605   8.151  19.435  0.00  0.00    +0.137 C 
BRANCH  13  14
ATOM      7  N   UNL     1      16.208   6.383  18.964  0.00  0.00    -0.259 NA
ATOM     14  C   UNL     1      15.919   7.469  19.714  0.00  0.00    +0.055 A 
ATOM     16  C   UNL     1      16.750   7.976  20.700  0.00  0.00    +0.024 A 
ATOM     18  C   UNL     1      17.957   7.324  20.932  0.00  0.00    +0.003 A 
ATOM     21  C   UNL     1      17.390   5.777  19.217  0.00  0.00    +0.111 A 
ATOM     22  C   UNL     1      18.290   6.204  20.180  0.00  0.00    +0.020 A 
ENDBRANCH  13  14
ENDBRANCH   5  13
ENDBRANCH   8   5
BRANCH  10  12
ATOM     12  C   UNL     1      10.692   8.305  22.235  0.00  0.00    +0.138 C 
BRANCH  12   6
ATOM      4  O   UNL     1      11.293  11.077  21.785  0.00  0.00    -0.270 OA
ATOM      6  N   UNL     1      11.864   9.009  22.669  0.00  0.00    -0.309 N 
ATOM     15  C   UNL     1      12.073  10.359  22.405  0.00  0.00    +0.244 C 
ATOM     28  H   UNL     1      12.582   8.458  23.126  0.00  0.00    +0.149 HD
BRANCH  15  17
ATOM      1  F   UNL     1      16.899  12.537  24.275  0.00  0.00    -0.205 F 
ATOM     17  C   UNL     1      13.350  10.935  22.899  0.00  0.00    +0.037 A 
ATOM     19  C   UNL     1      14.548  10.638  22.249  0.00  0.00    +0.016 A 
ATOM     20  C   UNL     1      13.352  11.773  24.015  0.00  0.00    +0.016 A 
ATOM     23  C   UNL     1      15.747  11.178  22.713  0.00  0.00    +0.039 A 
ATOM     24  C   UNL     1      14.550  12.314  24.480  0.00  0.00    +0.039 A 
ATOM     25  C   UNL     1      15.748  12.016  23.829  0.00  0.00    +0.123 A 
ENDBRANCH  15  17
ENDBRANCH  12   6
ENDBRANCH  10  12
TORSDOF 7
ENDMDL
MODEL 3
REMARK VINA RESULT:      -6.7      2.999      7.306
REMARK  Name = 75536638
REMARK  7 active torsions:
REMARK  status: ('A' for Active; 'I' for Inactive)
REMARK    1  A    between atoms: O_3  and  C_9
REMARK    2  A    between atoms: N_5  and  C_8
REMARK    3  A    between atoms: N_5  and  C_13
REMARK    4  A    between atoms: N_6  and  C_12
REMARK    5  A    between atoms: C_10  and  C_12
REMARK    6  A    between atoms: C_13  and  C_14
REMARK    7  A    between atoms: C_15  and  C_17
REMARK                            x       y       z     vdW  Elec       q    Type
REMARK                         _______ _______ _______ _____ _____    ______ ____
ROOT
ATOM      2  O   UNL     1      11.399   6.751  20.521  0.00  0.00    -0.371 OA
ATOM      8  C   UNL     1      13.746   7.044  20.292  0.00  0.00    +0.111 C 
ATOM      9  C   UNL     1      13.215   8.062  21.282  0.00  0.00    +0.164 C 
ATOM     10  C   UNL     1      11.900   7.415  21.694  0.00  0.00    +0.165 C 
ATOM     11  C   UNL     1      12.472   6.633  19.570  0.00  0.00    +0.181 C 
ENDROOT
BRANCH   9   3
ATOM      3  O   UNL     1      14.078   8.252  22.387  0.00  0.00    -0.388 OA
ATOM     27  H   UNL     1      14.656   9.010  22.196  0.00  0.00    +0.210 HD
ENDBRANCH   9   3
BRANCH   8   5
ATOM      5  N   UNL     1      14.758   7.575  19.394  0.00  0.00    -0.303 NA
ATOM     26  H   UNL     1      15.145   8.429  19.796  0.00  0.00    +0.123 HD
BRANCH   5  13
ATOM     13  C   UNL     1      15.839   6.615  19.196  0.00  0.00    +0.137 C 
BRANCH  13  14
ATOM      7  N   UNL     1      16.952   8.045  20.819  0.00  0.00    -0.259 NA
ATOM     14  C   UNL     1      17.044   6.947  20.037  0.00  0.00    +0.055 A 
ATOM     16  C   UNL     1      18.161   6.130  19.973  0.00  0.00    +0.024 A 
ATOM     18  C   UNL     1      19.256   6.462  20.762  0.00  0.00    +0.003 A 
ATOM     21  C   UNL     1      18.036   8.336  21.573  0.00  0.00    +0.111 A 
ATOM     22  C   UNL     1      19.200   7.584  21.581  0.00  0.00    +0.020 A 
ENDBRANCH  13  14
ENDBRANCH   5  13
ENDBRANCH   8   5
BRANCH  10  12
ATOM     12  C   UNL     1      10.871   8.411  22.198  0.00  0.00    +0.138 C 
BRANCH  12   6
ATOM      4  O   UNL     1      11.146  11.245  21.827  0.00  0.00    -0.270 OA
ATOM      6  N   UNL     1      11.454   9.343  23.120  0.00  0.00    -0.309 N 
ATOM     15  C   UNL     1      11.546  10.706  22.856  0.00  0.00    +0.244 C 
ATOM     28  H   UNL     1      11.868   8.953  23.959  0.00  0.00    +0.149 HD
BRANCH  15  17
ATOM      1  F   UNL     1      14.019  13.837  26.806  0.00  0.00    -0.205 F 
ATOM     17  C   UNL     1      12.200  11.534  23.900  0.00  0.00    +0.037 A 
ATOM     19  C   UNL     1      11.423  12.281  24.786  0.00  0.00    +0.016 A 
ATOM     20  C   UNL     1      13.592  11.566  23.996  0.00  0.00    +0.016 A 
ATOM     23  C   UNL     1      12.037  13.060  25.768  0.00  0.00    +0.039 A 
ATOM     24  C   UNL     1      14.206  12.344  24.977  0.00  0.00    +0.039 A 
ATOM     25  C   UNL     1      13.428  13.090  25.863  0.00  0.00    +0.123 A 
ENDBRANCH  15  17
ENDBRANCH  12   6
ENDBRANCH  10  12
TORSDOF 7
ENDMDL
MODEL 4
REMARK VINA RESULT:      -6.7     26.521     27.901
REMARK  Name = 75536638
REMARK  7 active torsions:
REMARK  status: ('A' for Active; 'I' for Inactive)
REMARK    1  A    between atoms: O_3  and  C_9
REMARK    2  A    between atoms: N_5  and  C_8
REMARK    3  A    between atoms: N_5  and  C_13
REMARK    4  A    between atoms: N_6  and  C_12
REMARK    5  A    between atoms: C_10  and  C_12
REMARK    6  A    between atoms: C_13  and  C_14
REMARK    7  A    between atoms: C_15  and  C_17
REMARK                            x       y       z     vdW  Elec       q    Type
REMARK                         _______ _______ _______ _____ _____    ______ ____
ROOT
ATOM      2  O   UNL     1      -4.184 -11.623  18.543  0.00  0.00    -0.371 OA
ATOM      8  C   UNL     1      -6.400 -10.860  18.152  0.00  0.00    +0.111 C 
ATOM      9  C   UNL     1      -5.512 -10.407  17.009  0.00  0.00    +0.164 C 
ATOM     10  C   UNL     1      -4.349 -11.381  17.136  0.00  0.00    +0.165 C 
ATOM     11  C   UNL     1      -5.370 -11.179  19.225  0.00  0.00    +0.181 C 
ENDROOT
BRANCH   9   3
ATOM      3  O   UNL     1      -6.148 -10.506  15.750  0.00  0.00    -0.388 OA
ATOM     27  H   UNL     1      -7.109 -10.444  15.887  0.00  0.00    +0.210 HD
ENDBRANCH   9   3
BRANCH   8   5
ATOM      5  N   UNL     1      -7.365  -9.858  18.575  0.00  0.00    -0.303 NA
ATOM     26  H   UNL     1      -7.142  -8.970  18.124  0.00  0.00    +0.123 HD
BRANCH   5  13
ATOM     13  C   UNL     1      -8.721 -10.248  18.206  0.00  0.00    +0.137 C 
BRANCH  13  14
ATOM      7  N   UNL     1      -9.156  -9.750  15.864  0.00  0.00    -0.259 NA
ATOM     14  C   UNL     1      -9.295  -9.344  17.146  0.00  0.00    +0.055 A 
ATOM     16  C   UNL     1      -9.923  -8.168  17.525  0.00  0.00    +0.024 A 
ATOM     18  C   UNL     1     -10.443  -7.357  16.523  0.00  0.00    +0.003 A 
ATOM     21  C   UNL     1      -9.675  -8.935  14.918  0.00  0.00    +0.111 A 
ATOM     22  C   UNL     1     -10.321  -7.741  15.192  0.00  0.00    +0.020 A 
ENDBRANCH  13  14
ENDBRANCH   5  13
ENDBRANCH   8   5
BRANCH  10  12
ATOM     12  C   UNL     1      -3.053 -10.851  16.551  0.00  0.00    +0.138 C 
BRANCH  12   6
ATOM      4  O   UNL     1      -1.850 -11.971  14.196  0.00  0.00    -0.270 OA
ATOM      6  N   UNL     1      -3.234 -10.402  15.200  0.00  0.00    -0.309 N 
ATOM     15  C   UNL     1      -2.609 -11.008  14.115  0.00  0.00    +0.244 C 
ATOM     28  H   UNL     1      -3.794  -9.567  15.070  0.00  0.00    +0.149 HD
BRANCH  15  17
ATOM      1  F   UNL     1      -3.631  -8.743   9.080  0.00  0.00    -0.205 F 
ATOM     17  C   UNL     1      -2.879 -10.409  12.783  0.00  0.00    +0.037 A 
ATOM     19  C   UNL     1      -1.819 -10.010  11.969  0.00  0.00    +0.016 A 
ATOM     20  C   UNL     1      -4.194 -10.244  12.345  0.00  0.00    +0.016 A 
ATOM     23  C   UNL     1      -2.072  -9.447  10.718  0.00  0.00    +0.039 A 
ATOM     24  C   UNL     1      -4.448  -9.681  11.095  0.00  0.00    +0.039 A 
ATOM     25  C   UNL     1      -3.387  -9.283  10.282  0.00  0.00    +0.123 A 
ENDBRANCH  15  17
ENDBRANCH  12   6
ENDBRANCH  10  12
TORSDOF 7
ENDMDL
MODEL 5
REMARK VINA RESULT:      -6.6      2.935      4.549
REMARK  Name = 75536638
REMARK  7 active torsions:
REMARK  status: ('A' for Active; 'I' for Inactive)
REMARK    1  A    between atoms: O_3  and  C_9
REMARK    2  A    between atoms: N_5  and  C_8
REMARK    3  A    between atoms: N_5  and  C_13
REMARK    4  A    between atoms: N_6  and  C_12
REMARK    5  A    between atoms: C_10  and  C_12
REMARK    6  A    between atoms: C_13  and  C_14
REMARK    7  A    between atoms: C_15  and  C_17
REMARK                            x       y       z     vdW  Elec       q    Type
REMARK                         _______ _______ _______ _____ _____    ______ ____
ROOT
ATOM      2  O   UNL     1      14.792   9.395  22.217  0.00  0.00    -0.371 OA
ATOM      8  C   UNL     1      13.239   7.697  21.625  0.00  0.00    +0.111 C 
ATOM      9  C   UNL     1      14.552   7.436  20.913  0.00  0.00    +0.164 C 
ATOM     10  C   UNL     1      15.519   8.236  21.775  0.00  0.00    +0.165 C 
ATOM     11  C   UNL     1      13.388   9.162  22.005  0.00  0.00    +0.181 C 
ENDROOT
BRANCH   9   3
ATOM      3  O   UNL     1      14.891   6.063  20.876  0.00  0.00    -0.388 OA
ATOM     27  H   UNL     1      14.423   5.653  20.128  0.00  0.00    +0.210 HD
ENDBRANCH   9   3
BRANCH   8   5
ATOM      5  N   UNL     1      12.068   7.443  20.801  0.00  0.00    -0.303 NA
ATOM     26  H   UNL     1      11.381   6.925  21.350  0.00  0.00    +0.123 HD
BRANCH   5  13
ATOM     13  C   UNL     1      11.465   8.691  20.347  0.00  0.00    +0.137 C 
BRANCH  13  14
ATOM      7  N   UNL     1      10.541   8.463  18.108  0.00  0.00    -0.259 NA
ATOM     14  C   UNL     1      11.592   8.865  18.857  0.00  0.00    +0.055 A 
ATOM     16  C   UNL     1      12.752   9.416  18.335  0.00  0.00    +0.024 A 
ATOM     18  C   UNL     1      12.838   9.564  16.955  0.00  0.00    +0.003 A 
ATOM     21  C   UNL     1      10.661   8.624  16.771  0.00  0.00    +0.111 A 
ATOM     22  C   UNL     1      11.777   9.164  16.152  0.00  0.00    +0.020 A 
ENDBRANCH  13  14
ENDBRANCH   5  13
ENDBRANCH   8   5
BRANCH  10  12
ATOM     12  C   UNL     1      16.771   8.668  21.034  0.00  0.00    +0.138 C 
BRANCH  12   6
ATOM      4  O   UNL     1      19.184   8.578  22.588  0.00  0.00    -0.270 OA
ATOM      6  N   UNL     1      17.758   7.626  21.025  0.00  0.00    -0.309 N 
ATOM     15  C   UNL     1      18.903   7.666  21.815  0.00  0.00    +0.244 C 
ATOM     28  H   UNL     1      17.620   6.877  20.356  0.00  0.00    +0.149 HD
BRANCH  15  17
ATOM      1  F   UNL     1      22.443   3.343  21.269  0.00  0.00    -0.205 F 
ATOM     17  C   UNL     1      19.839   6.522  21.670  0.00  0.00    +0.037 A 
ATOM     19  C   UNL     1      20.797   6.276  22.655  0.00  0.00    +0.016 A 
ATOM     20  C   UNL     1      19.763   5.694  20.550  0.00  0.00    +0.016 A 
ATOM     23  C   UNL     1      21.677   5.202  22.519  0.00  0.00    +0.039 A 
ATOM     24  C   UNL     1      20.642   4.621  20.414  0.00  0.00    +0.039 A 
ATOM     25  C   UNL     1      21.599   4.375  21.399  0.00  0.00    +0.123 A 
ENDBRANCH  15  17
ENDBRANCH  12   6
ENDBRANCH  10  12
TORSDOF 7
ENDMDL
MODEL 6
REMARK VINA RESULT:      -6.6      5.036     10.532
REMARK  Name = 75536638
REMARK  7 active torsions:
REMARK  status: ('A' for Active; 'I' for Inactive)
REMARK    1  A    between atoms: O_3  and  C_9
REMARK    2  A    between atoms: N_5  and  C_8
REMARK    3  A    between atoms: N_5  and  C_13
REMARK    4  A    between atoms: N_6  and  C_12
REMARK    5  A    between atoms: C_10  and  C_12
REMARK    6  A    between atoms: C_13  and  C_14
REMARK    7  A    between atoms: C_15  and  C_17
REMARK                            x       y       z     vdW  Elec       q    Type
REMARK                         _______ _______ _______ _____ _____    ______ ____
ROOT
ATOM      2  O   UNL     1      19.146   6.981  21.701  0.00  0.00    -0.371 OA
ATOM      8  C   UNL     1      21.156   5.784  22.114  0.00  0.00    +0.111 C 
ATOM      9  C   UNL     1      20.467   5.190  20.901  0.00  0.00    +0.164 C 
ATOM     10  C   UNL     1      19.562   6.340  20.483  0.00  0.00    +0.165 C 
ATOM     11  C   UNL     1      20.014   6.550  22.763  0.00  0.00    +0.181 C 
ENDROOT
BRANCH   9   3
ATOM      3  O   UNL     1      21.374   4.834  19.876  0.00  0.00    -0.388 OA
ATOM     27  H   UNL     1      20.862   4.581  19.088  0.00  0.00    +0.210 HD
ENDBRANCH   9   3
BRANCH   8   5
ATOM      5  N   UNL     1      21.745   4.790  22.996  0.00  0.00    -0.303 NA
ATOM     26  H   UNL     1      21.354   3.874  22.775  0.00  0.00    +0.123 HD
BRANCH   5  13
ATOM     13  C   UNL     1      23.193   4.737  22.835  0.00  0.00    +0.137 C 
BRANCH  13  14
ATOM      7  N   UNL     1      23.886   3.265  21.025  0.00  0.00    -0.259 NA
ATOM     14  C   UNL     1      23.653   3.387  22.351  0.00  0.00    +0.055 A 
ATOM     16  C   UNL     1      23.814   2.358  23.266  0.00  0.00    +0.024 A 
ATOM     18  C   UNL     1      24.242   1.124  22.788  0.00  0.00    +0.003 A 
ATOM     21  C   UNL     1      24.301   2.051  20.599  0.00  0.00    +0.111 A 
ATOM     22  C   UNL     1      24.492   0.960  21.431  0.00  0.00    +0.020 A 
ENDBRANCH  13  14
ENDBRANCH   5  13
ENDBRANCH   8   5
BRANCH  10  12
ATOM     12  C   UNL     1      18.343   5.892  19.697  0.00  0.00    +0.138 C 
BRANCH  12   6
ATOM      4  O   UNL     1      15.798   6.169  18.396  0.00  0.00    -0.270 OA
ATOM      6  N   UNL     1      17.132   6.394  20.281  0.00  0.00    -0.309 N 
ATOM     15  C   UNL     1      15.938   6.493  19.572  0.00  0.00    +0.244 C 
ATOM     28  H   UNL     1      17.196   6.745  21.230  0.00  0.00    +0.149 HD
BRANCH  15  17
ATOM      1  F   UNL     1      11.561   8.624  22.369  0.00  0.00    -0.205 F 
ATOM     17  C   UNL     1      14.780   7.057  20.312  0.00  0.00    +0.037 A 
ATOM     19  C   UNL     1      13.480   6.774  19.893  0.00  0.00    +0.016 A 
ATOM     20  C   UNL     1      14.992   7.870  21.426  0.00  0.00    +0.016 A 
ATOM     23  C   UNL     1      12.392   7.303  20.587  0.00  0.00    +0.039 A 
ATOM     24  C   UNL     1      13.905   8.400  22.120  0.00  0.00    +0.039 A 
ATOM     25  C   UNL     1      12.605   8.116  21.701  0.00  0.00    +0.123 A 
ENDBRANCH  15  17
ENDBRANCH  12   6
ENDBRANCH  10  12
TORSDOF 7
ENDMDL
MODEL 7
REMARK VINA RESULT:      -6.6      3.418      8.058
REMARK  Name = 75536638
REMARK  7 active torsions:
REMARK  status: ('A' for Active; 'I' for Inactive)
REMARK    1  A    between atoms: O_3  and  C_9
REMARK    2  A    between atoms: N_5  and  C_8
REMARK    3  A    between atoms: N_5  and  C_13
REMARK    4  A    between atoms: N_6  and  C_12
REMARK    5  A    between atoms: C_10  and  C_12
REMARK    6  A    between atoms: C_13  and  C_14
REMARK    7  A    between atoms: C_15  and  C_17
REMARK                            x       y       z     vdW  Elec       q    Type
REMARK                         _______ _______ _______ _____ _____    ______ ____
ROOT
ATOM      2  O   UNL     1      12.434   8.793  18.763  0.00  0.00    -0.371 OA
ATOM      8  C   UNL     1      12.862   7.146  20.421  0.00  0.00    +0.111 C 
ATOM      9  C   UNL     1      12.767   8.506  21.087  0.00  0.00    +0.164 C 
ATOM     10  C   UNL     1      11.997   9.295  20.037  0.00  0.00    +0.165 C 
ATOM     11  C   UNL     1      13.104   7.537  18.971  0.00  0.00    +0.181 C 
ENDROOT
BRANCH   9   3
ATOM      3  O   UNL     1      12.080   8.462  22.322  0.00  0.00    -0.388 OA
ATOM     27  H   UNL     1      11.282   9.013  22.248  0.00  0.00    +0.210 HD
ENDBRANCH   9   3
BRANCH   8   5
ATOM      5  N   UNL     1      13.914   6.303  20.962  0.00  0.00    -0.303 NA
ATOM     26  H   UNL     1      14.207   5.635  20.249  0.00  0.00    +0.123 HD
BRANCH   5  13
ATOM     13  C   UNL     1      15.068   7.098  21.366  0.00  0.00    +0.137 C 
BRANCH  13  14
ATOM      7  N   UNL     1      16.225   6.082  19.482  0.00  0.00    -0.259 NA
ATOM     14  C   UNL     1      16.339   6.609  20.721  0.00  0.00    +0.055 A 
ATOM     16  C   UNL     1      17.536   6.720  21.411  0.00  0.00    +0.024 A 
ATOM     18  C   UNL     1      18.691   6.261  20.788  0.00  0.00    +0.003 A 
ATOM     21  C   UNL     1      17.369   5.647  18.908  0.00  0.00    +0.111 A 
ATOM     22  C   UNL     1      18.614   5.713  19.512  0.00  0.00    +0.020 A 
ENDBRANCH  13  14
ENDBRANCH   5  13
ENDBRANCH   8   5
BRANCH  10  12
ATOM     12  C   UNL     1      12.240  10.791  20.110  0.00  0.00    +0.138 C 
BRANCH  12   6
ATOM      4  O   UNL     1      11.549  13.514  20.704  0.00  0.00    -0.270 OA
ATOM      6  N   UNL     1      11.862  11.320  21.389  0.00  0.00    -0.309 N 
ATOM     15  C   UNL     1      11.542  12.659  21.586  0.00  0.00    +0.244 C 
ATOM     28  H   UNL     1      11.903  10.681  22.175  0.00  0.00    +0.149 HD
BRANCH  15  17
ATOM      1  F   UNL     1      10.232  14.153  26.837  0.00  0.00    -0.205 F 
ATOM     17  C   UNL     1      11.195  13.054  22.975  0.00  0.00    +0.037 A 
ATOM     19  C   UNL     1      11.628  12.277  24.049  0.00  0.00    +0.016 A 
ATOM     20  C   UNL     1      10.436  14.202  23.206  0.00  0.00    +0.016 A 
ATOM     23  C   UNL     1      11.302  12.647  25.355  0.00  0.00    +0.039 A 
ATOM     24  C   UNL     1      10.110  14.573  24.510  0.00  0.00    +0.039 A 
ATOM     25  C   UNL     1      10.544  13.796  25.584  0.00  0.00    +0.123 A 
ENDBRANCH  15  17
ENDBRANCH  12   6
ENDBRANCH  10  12
TORSDOF 7
ENDMDL
MODEL 8
REMARK VINA RESULT:      -6.5      4.555      6.724
REMARK  Name = 75536638
REMARK  7 active torsions:
REMARK  status: ('A' for Active; 'I' for Inactive)
REMARK    1  A    between atoms: O_3  and  C_9
REMARK    2  A    between atoms: N_5  and  C_8
REMARK    3  A    between atoms: N_5  and  C_13
REMARK    4  A    between atoms: N_6  and  C_12
REMARK    5  A    between atoms: C_10  and  C_12
REMARK    6  A    between atoms: C_13  and  C_14
REMARK    7  A    between atoms: C_15  and  C_17
REMARK                            x       y       z     vdW  Elec       q    Type
REMARK                         _______ _______ _______ _____ _____    ______ ____
ROOT
ATOM      2  O   UNL     1      17.481   6.803  21.566  0.00  0.00    -0.371 OA
ATOM      8  C   UNL     1      16.235   6.278  19.613  0.00  0.00    +0.111 C 
ATOM      9  C   UNL     1      17.715   6.202  19.291  0.00  0.00    +0.164 C 
ATOM     10  C   UNL     1      18.311   6.032  20.681  0.00  0.00    +0.165 C 
ATOM     11  C   UNL     1      16.247   7.102  20.891  0.00  0.00    +0.181 C 
ENDROOT
BRANCH   9   3
ATOM      3  O   UNL     1      18.035   5.116  18.443  0.00  0.00    -0.388 OA
ATOM     27  H   UNL     1      17.597   5.257  17.587  0.00  0.00    +0.210 HD
ENDBRANCH   9   3
BRANCH   8   5
ATOM      5  N   UNL     1      15.438   6.882  18.558  0.00  0.00    -0.303 NA
ATOM     26  H   UNL     1      14.903   6.153  18.086  0.00  0.00    +0.123 HD
BRANCH   5  13
ATOM     13  C   UNL     1      14.513   7.871  19.100  0.00  0.00    +0.137 C 
BRANCH  13  14
ATOM      7  N   UNL     1      14.047   8.985  16.988  0.00  0.00    -0.259 NA
ATOM     14  C   UNL     1      13.531   8.347  18.061  0.00  0.00    +0.055 A 
ATOM     16  C   UNL     1      12.178   8.114  18.250  0.00  0.00    +0.024 A 
ATOM     18  C   UNL     1      11.298   8.565  17.273  0.00  0.00    +0.003 A 
ATOM     21  C   UNL     1      13.161   9.408  16.058  0.00  0.00    +0.111 A 
ATOM     22  C   UNL     1      11.791   9.225  16.153  0.00  0.00    +0.020 A 
ENDBRANCH  13  14
ENDBRANCH   5  13
ENDBRANCH   8   5
BRANCH  10  12
ATOM     12  C   UNL     1      19.749   6.507  20.782  0.00  0.00    +0.138 C 
BRANCH  12   6
ATOM      4  O   UNL     1      21.131   5.680  23.160  0.00  0.00    -0.270 OA
ATOM      6  N   UNL     1      20.656   5.402  20.906  0.00  0.00    -0.309 N 
ATOM     15  C   UNL     1      21.284   5.073  22.103  0.00  0.00    +0.244 C 
ATOM     28  H   UNL     1      20.881   4.902  20.053  0.00  0.00    +0.149 HD
BRANCH  15  17
ATOM      1  F   UNL     1      24.805   0.702  21.938  0.00  0.00    -0.205 F 
ATOM     17  C   UNL     1      22.215   3.917  22.059  0.00  0.00    +0.037 A 
ATOM     19  C   UNL     1      22.483   3.192  23.221  0.00  0.00    +0.016 A 
ATOM     20  C   UNL     1      22.824   3.555  20.857  0.00  0.00    +0.016 A 
ATOM     23  C   UNL     1      23.358   2.106  23.181  0.00  0.00    +0.039 A 
ATOM     24  C   UNL     1      23.699   2.470  20.816  0.00  0.00    +0.039 A 
ATOM     25  C   UNL     1      23.965   1.745  21.978  0.00  0.00    +0.123 A 
ENDBRANCH  15  17
ENDBRANCH  12   6
ENDBRANCH  10  12
TORSDOF 7
ENDMDL
MODEL 9
REMARK VINA RESULT:      -6.4     16.212     19.089
REMARK  Name = 75536638
REMARK  7 active torsions:
REMARK  status: ('A' for Active; 'I' for Inactive)
REMARK    1  A    between atoms: O_3  and  C_9
REMARK    2  A    between atoms: N_5  and  C_8
REMARK    3  A    between atoms: N_5  and  C_13
REMARK    4  A    between atoms: N_6  and  C_12
REMARK    5  A    between atoms: C_10  and  C_12
REMARK    6  A    between atoms: C_13  and  C_14
REMARK    7  A    between atoms: C_15  and  C_17
REMARK                            x       y       z     vdW  Elec       q    Type
REMARK                         _______ _______ _______ _____ _____    ______ ____
ROOT
ATOM      2  O   UNL     1      13.323   4.939   0.001  0.00  0.00    -0.371 OA
ATOM      8  C   UNL     1      15.301   5.602   1.138  0.00  0.00    +0.111 C 
ATOM      9  C   UNL     1      14.652   4.461   1.898  0.00  0.00    +0.164 C 
ATOM     10  C   UNL     1      13.778   3.845   0.814  0.00  0.00    +0.165 C 
ATOM     11  C   UNL     1      14.145   6.087   0.278  0.00  0.00    +0.181 C 
ENDROOT
BRANCH   9   3
ATOM      3  O   UNL     1      15.594   3.536   2.405  0.00  0.00    -0.388 OA
ATOM     27  H   UNL     1      15.437   3.431   3.359  0.00  0.00    +0.210 HD
ENDBRANCH   9   3
BRANCH   8   5
ATOM      5  N   UNL     1      15.843   6.642   1.997  0.00  0.00    -0.303 NA
ATOM     26  H   UNL     1      16.584   7.135   1.497  0.00  0.00    +0.123 HD
BRANCH   5  13
ATOM     13  C   UNL     1      14.811   7.601   2.375  0.00  0.00    +0.137 C 
BRANCH  13  14
ATOM      7  N   UNL     1      15.528   7.682   4.698  0.00  0.00    -0.259 NA
ATOM     14  C   UNL     1      14.491   7.528   3.845  0.00  0.00    +0.055 A 
ATOM     16  C   UNL     1      13.181   7.314   4.244  0.00  0.00    +0.024 A 
ATOM     18  C   UNL     1      12.919   7.254   5.609  0.00  0.00    +0.003 A 
ATOM     21  C   UNL     1      15.234   7.618   6.017  0.00  0.00    +0.111 A 
ATOM     22  C   UNL     1      13.959   7.408   6.518  0.00  0.00    +0.020 A 
ENDBRANCH  13  14
ENDBRANCH   5  13
ENDBRANCH   8   5
BRANCH  10  12
ATOM     12  C   UNL     1      12.585   3.084   1.364  0.00  0.00    +0.138 C 
BRANCH  12   6
ATOM      4  O   UNL     1      10.075   4.472   1.227  0.00  0.00    -0.270 OA
ATOM      6  N   UNL     1      11.947   3.809   2.426  0.00  0.00    -0.309 N 
ATOM     15  C   UNL     1      10.724   4.454   2.269  0.00  0.00    +0.244 C 
ATOM     28  H   UNL     1      12.465   3.892   3.293  0.00  0.00    +0.149 HD
BRANCH  15  17
ATOM      1  F   UNL     1       8.779   7.208   6.759  0.00  0.00    -0.205 F 
ATOM     17  C   UNL     1      10.210   5.183   3.457  0.00  0.00    +0.037 A 
ATOM     19  C   UNL     1       9.698   6.473   3.316  0.00  0.00    +0.016 A 
ATOM     20  C   UNL     1      10.239   4.577   4.714  0.00  0.00    +0.016 A 
ATOM     23  C   UNL     1       9.215   7.158   4.431  0.00  0.00    +0.039 A 
ATOM     24  C   UNL     1       9.756   5.261   5.829  0.00  0.00    +0.039 A 
ATOM     25  C   UNL     1       9.244   6.551   5.687  0.00  0.00    +0.123 A 
ENDBRANCH  15  17
ENDBRANCH  12   6
ENDBRANCH  10  12
TORSDOF 7
ENDMDL
MODEL 10
REMARK VINA RESULT:      -6.4      4.133      6.208
REMARK  Name = 75536638
REMARK  7 active torsions:
REMARK  status: ('A' for Active; 'I' for Inactive)
REMARK    1  A    between atoms: O_3  and  C_9
REMARK    2  A    between atoms: N_5  and  C_8
REMARK    3  A    between atoms: N_5  and  C_13
REMARK    4  A    between atoms: N_6  and  C_12
REMARK    5  A    between atoms: C_10  and  C_12
REMARK    6  A    between atoms: C_13  and  C_14
REMARK    7  A    between atoms: C_15  and  C_17
REMARK                            x       y       z     vdW  Elec       q    Type
REMARK                         _______ _______ _______ _____ _____    ______ ____
ROOT
ATOM      2  O   UNL     1      17.984   6.584  21.664  0.00  0.00    -0.371 OA
ATOM      8  C   UNL     1      16.390   6.302  19.926  0.00  0.00    +0.111 C 
ATOM      9  C   UNL     1      17.785   6.203  19.339  0.00  0.00    +0.164 C 
ATOM     10  C   UNL     1      18.604   5.874  20.579  0.00  0.00    +0.165 C 
ATOM     11  C   UNL     1      16.670   6.994  21.251  0.00  0.00    +0.181 C 
ENDROOT
BRANCH   9   3
ATOM      3  O   UNL     1      17.893   5.195  18.352  0.00  0.00    -0.388 OA
ATOM     27  H   UNL     1      17.334   4.445  18.619  0.00  0.00    +0.210 HD
ENDBRANCH   9   3
BRANCH   8   5
ATOM      5  N   UNL     1      15.455   7.037  19.090  0.00  0.00    -0.303 NA
ATOM     26  H   UNL     1      15.563   6.732  18.122  0.00  0.00    +0.123 HD
BRANCH   5  13
ATOM     13  C   UNL     1      14.078   6.799  19.509  0.00  0.00    +0.137 C 
BRANCH  13  14
ATOM      7  N   UNL     1      12.894   7.995  21.266  0.00  0.00    -0.259 NA
ATOM     14  C   UNL     1      13.425   8.055  20.025  0.00  0.00    +0.055 A 
ATOM     16  C   UNL     1      13.402   9.185  19.224  0.00  0.00    +0.024 A 
ATOM     18  C   UNL     1      12.793  10.328  19.729  0.00  0.00    +0.003 A 
ATOM     21  C   UNL     1      12.311   9.126  21.724  0.00  0.00    +0.111 A 
ATOM     22  C   UNL     1      12.236  10.306  21.003  0.00  0.00    +0.020 A 
ENDBRANCH  13  14
ENDBRANCH   5  13
ENDBRANCH   8   5
BRANCH  10  12
ATOM     12  C   UNL     1      20.061   6.283  20.464  0.00  0.00    +0.138 C 
BRANCH  12   6
ATOM      4  O   UNL     1      21.112   5.406  22.988  0.00  0.00    -0.270 OA
ATOM      6  N   UNL     1      20.936   5.168  20.686  0.00  0.00    -0.309 N 
ATOM     15  C   UNL     1      21.398   4.814  21.950  0.00  0.00    +0.244 C 
ATOM     28  H   UNL     1      21.267   4.679  19.862  0.00  0.00    +0.149 HD
BRANCH  15  17
ATOM      1  F   UNL     1      24.876   0.412  22.176  0.00  0.00    -0.205 F 
ATOM     17  C   UNL     1      22.318   3.649  22.010  0.00  0.00    +0.037 A 
ATOM     19  C   UNL     1      22.620   3.061  23.238  0.00  0.00    +0.016 A 
ATOM     20  C   UNL     1      22.882   3.144  20.838  0.00  0.00    +0.016 A 
ATOM     23  C   UNL     1      23.484   1.967  23.295  0.00  0.00    +0.039 A 
ATOM     24  C   UNL     1      23.746   2.051  20.893  0.00  0.00    +0.039 A 
ATOM     25  C   UNL     1      24.047   1.463  22.122  0.00  0.00    +0.123 A 
ENDBRANCH  15  17
ENDBRANCH  12   6
ENDBRANCH  10  12
TORSDOF 7
ENDMDL
