REMARK  Name = 75367086
REMARK  6 active torsions:
REMARK  status: ('A' for Active; 'I' for Inactive)
REMARK    1  A    between atoms: O_3  and  C_12
REMARK    2  A    between atoms: N_5  and  C_7
REMARK    3  A    between atoms: N_5  and  C_8
REMARK    4  A    between atoms: N_6  and  C_15
REMARK    5  A    between atoms: C_13  and  C_15
REMARK    6  A    between atoms: C_16  and  C_17
REMARK                            x       y       z     vdW  Elec       q    Type
REMARK                         _______ _______ _______ _____ _____    ______ ____
ROOT
ATOM      2  O   UNL     1      -1.089   0.731  -0.354  0.00  0.00    -0.371 OA
ATOM      8  C   UNL     1      -3.176  -0.233   0.244  0.00  0.00    +0.111 C 
ATOM     12  C   UNL     1      -2.288  -1.308  -0.354  0.00  0.00    +0.164 C 
ATOM     13  C   UNL     1      -0.911  -0.684  -0.174  0.00  0.00    +0.165 C 
ATOM     14  C   UNL     1      -2.492   1.032  -0.250  0.00  0.00    +0.181 C 
ENDROOT
BRANCH  12   3
ATOM      3  O   UNL     1      -2.398  -2.546   0.321  0.00  0.00    -0.388 OA
ATOM     24  H   UNL     1      -2.195  -2.400   1.261  0.00  0.00    +0.210 HD
ENDBRANCH  12   3
BRANCH   8   5
ATOM      5  N   UNL     1      -4.566  -0.325  -0.175  0.00  0.00    -0.306 NA
ATOM     23  H   UNL     1      -4.858  -1.300  -0.099  0.00  0.00    +0.123 HD
BRANCH   5   7
ATOM      7  C   UNL     1      -5.378   0.575   0.631  0.00  0.00    +0.054 C 
ATOM      9  C   UNL     1      -6.862   0.164   0.514  0.00  0.00    +0.019 C 
ATOM     10  C   UNL     1      -5.735   1.824  -0.203  0.00  0.00    +0.019 C 
ATOM     11  C   UNL     1      -7.174   1.667   0.338  0.00  0.00    +0.003 C 
ENDBRANCH   5   7
ENDBRANCH   8   5
BRANCH  13  15
ATOM     15  C   UNL     1       0.117  -1.201  -1.165  0.00  0.00    +0.138 C 
BRANCH  15   6
ATOM      4  O   UNL     1       2.220  -2.139   0.551  0.00  0.00    -0.270 OA
ATOM      6  N   UNL     1       1.396  -0.584  -0.960  0.00  0.00    -0.309 N 
ATOM     16  C   UNL     1       2.359  -1.111  -0.105  0.00  0.00    +0.244 C 
ATOM     25  H   UNL     1       1.548   0.308  -1.419  0.00  0.00    +0.149 HD
BRANCH  16  17
ATOM      1  F   UNL     1       7.132   1.810   0.355  0.00  0.00    -0.205 F 
ATOM     17  C   UNL     1       3.622  -0.337   0.016  0.00  0.00    +0.037 A 
ATOM     18  C   UNL     1       4.380  -0.421   1.184  0.00  0.00    +0.016 A 
ATOM     19  C   UNL     1       4.049   0.471  -1.037  0.00  0.00    +0.016 A 
ATOM     20  C   UNL     1       5.566   0.304   1.299  0.00  0.00    +0.039 A 
ATOM     21  C   UNL     1       5.235   1.197  -0.922  0.00  0.00    +0.039 A 
ATOM     22  C   UNL     1       5.993   1.113   0.246  0.00  0.00    +0.123 A 
ENDBRANCH  16  17
ENDBRANCH  15   6
ENDBRANCH  13  15
TORSDOF 6
