MODEL 1
REMARK VINA RESULT:      -7.9      0.000      0.000
REMARK  Name = 40777256
REMARK  7 active torsions:
REMARK  status: ('A' for Active; 'I' for Inactive)
REMARK    1  A    between atoms: S_3  and  N_7
REMARK    2  A    between atoms: S_3  and  C_22
REMARK    3  A    between atoms: N_7  and  C_17
REMARK    4  A    between atoms: C_11  and  C_18
REMARK    5  A    between atoms: C_12  and  C_17
REMARK    6  A    between atoms: C_20  and  C_23
REMARK    7  A    between atoms: C_21  and  C_24
REMARK                            x       y       z     vdW  Elec       q    Type
REMARK                         _______ _______ _______ _____ _____    ______ ____
ROOT
ATOM      6  N   UNL     1      11.306   8.744  20.556  0.00  0.00    -0.297 NA
ATOM     10  C   UNL     1      13.048   6.835  20.881  0.00  0.00    +0.002 C 
ATOM     11  C   UNL     1      13.550   8.149  21.541  0.00  0.00    +0.055 C 
ATOM     12  C   UNL     1      11.586   8.083  19.253  0.00  0.00    +0.072 C 
ATOM     13  C   UNL     1      12.762   7.094  19.386  0.00  0.00    +0.024 C 
ATOM     14  C   UNL     1      11.699   6.489  21.547  0.00  0.00    +0.019 C 
ATOM     15  C   UNL     1      12.563   9.280  21.135  0.00  0.00    +0.094 C 
ATOM     16  C   UNL     1      10.772   7.715  21.480  0.00  0.00    +0.085 C 
ENDROOT
BRANCH  11  18
ATOM      8  N   UNL     1      15.251   9.860  21.142  0.00  0.00    -0.237 NA
ATOM      9  N   UNL     1      17.593   9.323  20.949  0.00  0.00    -0.232 NA
ATOM     18  C   UNL     1      15.004   8.548  21.332  0.00  0.00    +0.050 A 
ATOM     19  C   UNL     1      15.985   7.577  21.343  0.00  0.00    +0.052 A 
ATOM     20  C   UNL     1      17.274   8.027  21.145  0.00  0.00    +0.076 A 
ATOM     21  C   UNL     1      16.548  10.174  20.960  0.00  0.00    +0.127 A 
ATOM     24  C   UNL     1      16.861  11.616  20.743  0.00  0.00    +0.088 C 
BRANCH  20  23
ATOM      1 BR   UNL     1      17.212   5.837  18.816  0.00  0.00    -0.050 Br
ATOM     23  C   UNL     1      18.390   7.112  21.134  0.00  0.00    +0.014 A 
ATOM     27  C   UNL     1      18.509   6.101  20.181  0.00  0.00    +0.027 A 
ATOM     28  C   UNL     1      19.370   7.264  22.115  0.00  0.00    +0.011 A 
ATOM     31  C   UNL     1      19.606   5.240  20.210  0.00  0.00    +0.016 A 
ATOM     32  C   UNL     1      20.468   6.403  22.143  0.00  0.00    +0.001 A 
ATOM     34  C   UNL     1      20.585   5.392  21.191  0.00  0.00    +0.001 A 
ENDBRANCH  20  23
ENDBRANCH  11  18
BRANCH  12  17
ATOM     17  C   UNL     1      11.814   9.093  18.126  0.00  0.00    +0.124 C 
BRANCH  17   7
ATOM      7  N   UNL     1      13.059   8.754  17.419  0.00  0.00    -0.188 NA
ATOM     35  H   UNL     1      13.894   8.635  18.005  0.00  0.00    +0.148 HD
BRANCH   7   3
ATOM      3  S   UNL     1      13.297   9.267  15.811  0.00  0.00    +0.058 S 
ATOM      4  O   UNL     1      12.016   9.601  15.220  0.00  0.00    -0.153 OA
ATOM      5  O   UNL     1      14.189   8.337  15.145  0.00  0.00    -0.153 OA
BRANCH   3  22
ATOM      2 CL   UNL     1      16.499  14.605  16.633  0.00  0.00    -0.084 Cl
ATOM     22  C   UNL     1      14.198  10.770  16.043  0.00  0.00    +0.105 A 
ATOM     25  C   UNL     1      14.238  11.723  15.026  0.00  0.00    +0.030 A 
ATOM     26  C   UNL     1      14.871  11.002  17.242  0.00  0.00    +0.030 A 
ATOM     29  C   UNL     1      14.950  12.909  15.207  0.00  0.00    +0.022 A 
ATOM     30  C   UNL     1      15.583  12.188  17.425  0.00  0.00    +0.022 A 
ATOM     33  C   UNL     1      15.621  13.141  16.407  0.00  0.00    +0.041 A 
ENDBRANCH   3  22
ENDBRANCH   7   3
ENDBRANCH  17   7
ENDBRANCH  12  17
TORSDOF 6
ENDMDL
MODEL 2
REMARK VINA RESULT:      -7.5     14.342     17.607
REMARK  Name = 40777256
REMARK  7 active torsions:
REMARK  status: ('A' for Active; 'I' for Inactive)
REMARK    1  A    between atoms: S_3  and  N_7
REMARK    2  A    between atoms: S_3  and  C_22
REMARK    3  A    between atoms: N_7  and  C_17
REMARK    4  A    between atoms: C_11  and  C_18
REMARK    5  A    between atoms: C_12  and  C_17
REMARK    6  A    between atoms: C_20  and  C_23
REMARK    7  A    between atoms: C_21  and  C_24
REMARK                            x       y       z     vdW  Elec       q    Type
REMARK                         _______ _______ _______ _____ _____    ______ ____
ROOT
ATOM      6  N   UNL     1       9.933   7.059   7.492  0.00  0.00    -0.297 NA
ATOM     10  C   UNL     1       9.762   5.184   5.694  0.00  0.00    +0.002 C 
ATOM     11  C   UNL     1      11.124   5.924   5.581  0.00  0.00    +0.055 C 
ATOM     12  C   UNL     1       8.644   7.174   6.759  0.00  0.00    +0.072 C 
ATOM     13  C   UNL     1       8.614   6.206   5.557  0.00  0.00    +0.024 C 
ATOM     14  C   UNL     1       9.687   4.606   7.124  0.00  0.00    +0.019 C 
ATOM     15  C   UNL     1      11.069   7.146   6.541  0.00  0.00    +0.094 C 
ATOM     16  C   UNL     1       9.971   5.726   8.139  0.00  0.00    +0.085 C 
ENDROOT
BRANCH  11  18
ATOM      8  N   UNL     1      12.182   7.522   4.062  0.00  0.00    -0.237 NA
ATOM      9  N   UNL     1      12.537   7.034   1.728  0.00  0.00    -0.232 NA
ATOM     18  C   UNL     1      11.623   6.301   4.193  0.00  0.00    +0.050 A 
ATOM     19  C   UNL     1      11.487   5.404   3.154  0.00  0.00    +0.052 A 
ATOM     20  C   UNL     1      11.966   5.828   1.931  0.00  0.00    +0.076 A 
ATOM     21  C   UNL     1      12.612   7.819   2.820  0.00  0.00    +0.127 A 
ATOM     24  C   UNL     1      13.234   9.161   2.634  0.00  0.00    +0.088 C 
BRANCH  20  23
ATOM      1 BR   UNL     1      14.329   3.695   1.623  0.00  0.00    -0.050 Br
ATOM     23  C   UNL     1      11.882   4.984   0.764  0.00  0.00    +0.014 A 
ATOM     27  C   UNL     1      12.836   4.005   0.488  0.00  0.00    +0.027 A 
ATOM     28  C   UNL     1      10.804   5.171  -0.103  0.00  0.00    +0.011 A 
ATOM     31  C   UNL     1      12.713   3.212  -0.654  0.00  0.00    +0.016 A 
ATOM     32  C   UNL     1      10.681   4.378  -1.244  0.00  0.00    +0.001 A 
ATOM     34  C   UNL     1      11.635   3.400  -1.519  0.00  0.00    +0.001 A 
ENDBRANCH  20  23
ENDBRANCH  11  18
BRANCH  12  17
ATOM     17  C   UNL     1       8.338   8.614   6.341  0.00  0.00    +0.124 C 
BRANCH  17   7
ATOM      7  N   UNL     1       7.389   8.598   5.216  0.00  0.00    -0.188 NA
ATOM     35  H   UNL     1       7.265   7.696   4.741  0.00  0.00    +0.148 HD
BRANCH   7   3
ATOM      3  S   UNL     1       7.129  10.009   4.296  0.00  0.00    +0.058 S 
ATOM      4  O   UNL     1       7.995  11.065   4.785  0.00  0.00    -0.153 OA
ATOM      5  O   UNL     1       5.703  10.234   4.167  0.00  0.00    -0.153 OA
BRANCH   3  22
ATOM      2 CL   UNL     1       9.223   8.252  -1.356  0.00  0.00    -0.084 Cl
ATOM     22  C   UNL     1       7.719   9.514   2.705  0.00  0.00    +0.105 A 
ATOM     25  C   UNL     1       7.140  10.043   1.551  0.00  0.00    +0.030 A 
ATOM     26  C   UNL     1       8.763   8.595   2.603  0.00  0.00    +0.030 A 
ATOM     29  C   UNL     1       7.605   9.652   0.295  0.00  0.00    +0.022 A 
ATOM     30  C   UNL     1       9.228   8.204   1.347  0.00  0.00    +0.022 A 
ATOM     33  C   UNL     1       8.649   8.734   0.193  0.00  0.00    +0.041 A 
ENDBRANCH   3  22
ENDBRANCH   7   3
ENDBRANCH  17   7
ENDBRANCH  12  17
TORSDOF 6
ENDMDL
MODEL 3
REMARK VINA RESULT:      -7.3     26.576     29.598
REMARK  Name = 40777256
REMARK  7 active torsions:
REMARK  status: ('A' for Active; 'I' for Inactive)
REMARK    1  A    between atoms: S_3  and  N_7
REMARK    2  A    between atoms: S_3  and  C_22
REMARK    3  A    between atoms: N_7  and  C_17
REMARK    4  A    between atoms: C_11  and  C_18
REMARK    5  A    between atoms: C_12  and  C_17
REMARK    6  A    between atoms: C_20  and  C_23
REMARK    7  A    between atoms: C_21  and  C_24
REMARK                            x       y       z     vdW  Elec       q    Type
REMARK                         _______ _______ _______ _____ _____    ______ ____
ROOT
ATOM      6  N   UNL     1      -5.675 -10.665   9.614  0.00  0.00    -0.297 NA
ATOM     10  C   UNL     1      -3.842  -9.205  10.749  0.00  0.00    +0.002 C 
ATOM     11  C   UNL     1      -3.552 -10.714  10.974  0.00  0.00    +0.055 C 
ATOM     12  C   UNL     1      -6.309  -9.611  10.450  0.00  0.00    +0.072 C 
ATOM     13  C   UNL     1      -5.248  -8.870  11.290  0.00  0.00    +0.024 C 
ATOM     14  C   UNL     1      -3.878  -8.981   9.221  0.00  0.00    +0.019 C 
ATOM     15  C   UNL     1      -4.783 -11.507  10.449  0.00  0.00    +0.094 C 
ATOM     16  C   UNL     1      -4.848  -9.992   8.585  0.00  0.00    +0.085 C 
ENDROOT
BRANCH  11  18
ATOM      8  N   UNL     1      -2.348 -10.313  13.065  0.00  0.00    -0.237 NA
ATOM      9  N   UNL     1      -2.326 -11.919  14.863  0.00  0.00    -0.232 NA
ATOM     18  C   UNL     1      -3.125 -11.165  12.364  0.00  0.00    +0.050 A 
ATOM     19  C   UNL     1      -3.537 -12.393  12.838  0.00  0.00    +0.052 A 
ATOM     20  C   UNL     1      -3.103 -12.721  14.106  0.00  0.00    +0.076 A 
ATOM     21  C   UNL     1      -1.990 -10.747  14.289  0.00  0.00    +0.127 A 
ATOM     24  C   UNL     1      -1.129  -9.834  15.094  0.00  0.00    +0.088 C 
BRANCH  20  23
ATOM      1 BR   UNL     1      -1.173 -15.173  13.410  0.00  0.00    -0.050 Br
ATOM     23  C   UNL     1      -3.464 -13.978  14.716  0.00  0.00    +0.014 A 
ATOM     27  C   UNL     1      -2.722 -15.141  14.511  0.00  0.00    +0.027 A 
ATOM     28  C   UNL     1      -4.595 -14.007  15.535  0.00  0.00    +0.011 A 
ATOM     31  C   UNL     1      -3.110 -16.333  15.122  0.00  0.00    +0.016 A 
ATOM     32  C   UNL     1      -4.982 -15.200  16.147  0.00  0.00    +0.001 A 
ATOM     34  C   UNL     1      -4.239 -16.362  15.940  0.00  0.00    +0.001 A 
ENDBRANCH  20  23
ENDBRANCH  11  18
BRANCH  12  17
ATOM     17  C   UNL     1      -7.444 -10.160  11.318  0.00  0.00    +0.124 C 
BRANCH  17   7
ATOM      7  N   UNL     1      -7.026 -10.135  12.730  0.00  0.00    -0.188 NA
ATOM     35  H   UNL     1      -6.049 -10.387  12.917  0.00  0.00    +0.148 HD
BRANCH   7   3
ATOM      3  S   UNL     1      -8.163 -10.434  13.963  0.00  0.00    +0.058 S 
ATOM      4  O   UNL     1      -8.864 -11.671  13.679  0.00  0.00    -0.153 OA
ATOM      5  O   UNL     1      -8.906  -9.217  14.228  0.00  0.00    -0.153 OA
BRANCH   3  22
ATOM      2 CL   UNL     1      -4.437 -11.422  18.920  0.00  0.00    -0.084 Cl
ATOM     22  C   UNL     1      -7.114 -10.712  15.359  0.00  0.00    +0.105 A 
ATOM     25  C   UNL     1      -5.843 -10.139  15.402  0.00  0.00    +0.030 A 
ATOM     26  C   UNL     1      -7.557 -11.505  16.417  0.00  0.00    +0.030 A 
ATOM     29  C   UNL     1      -5.015 -10.358  16.503  0.00  0.00    +0.022 A 
ATOM     30  C   UNL     1      -6.729 -11.725  17.519  0.00  0.00    +0.022 A 
ATOM     33  C   UNL     1      -5.459 -11.151  17.561  0.00  0.00    +0.041 A 
ENDBRANCH   3  22
ENDBRANCH   7   3
ENDBRANCH  17   7
ENDBRANCH  12  17
TORSDOF 6
ENDMDL
MODEL 4
REMARK VINA RESULT:      -7.2     27.889     30.136
REMARK  Name = 40777256
REMARK  7 active torsions:
REMARK  status: ('A' for Active; 'I' for Inactive)
REMARK    1  A    between atoms: S_3  and  N_7
REMARK    2  A    between atoms: S_3  and  C_22
REMARK    3  A    between atoms: N_7  and  C_17
REMARK    4  A    between atoms: C_11  and  C_18
REMARK    5  A    between atoms: C_12  and  C_17
REMARK    6  A    between atoms: C_20  and  C_23
REMARK    7  A    between atoms: C_21  and  C_24
REMARK                            x       y       z     vdW  Elec       q    Type
REMARK                         _______ _______ _______ _____ _____    ______ ____
ROOT
ATOM      6  N   UNL     1      -5.039 -12.792  17.049  0.00  0.00    -0.297 NA
ATOM     10  C   UNL     1      -5.602 -10.280  17.440  0.00  0.00    +0.002 C 
ATOM     11  C   UNL     1      -6.850 -11.041  16.913  0.00  0.00    +0.055 C 
ATOM     12  C   UNL     1      -4.015 -11.934  16.397  0.00  0.00    +0.072 C 
ATOM     13  C   UNL     1      -4.440 -10.451  16.439  0.00  0.00    +0.024 C 
ATOM     14  C   UNL     1      -5.177 -10.975  18.752  0.00  0.00    +0.019 C 
ATOM     15  C   UNL     1      -6.386 -12.472  16.515  0.00  0.00    +0.094 C 
ATOM     16  C   UNL     1      -5.031 -12.486  18.499  0.00  0.00    +0.085 C 
ENDROOT
BRANCH  11  18
ATOM      8  N   UNL     1      -7.339 -10.644  14.550  0.00  0.00    -0.237 NA
ATOM      9  N   UNL     1      -9.153  -9.227  13.835  0.00  0.00    -0.232 NA
ATOM     18  C   UNL     1      -7.687 -10.382  15.826  0.00  0.00    +0.050 A 
ATOM     19  C   UNL     1      -8.740  -9.564  16.182  0.00  0.00    +0.052 A 
ATOM     20  C   UNL     1      -9.445  -9.008  15.134  0.00  0.00    +0.076 A 
ATOM     21  C   UNL     1      -8.104 -10.043  13.618  0.00  0.00    +0.127 A 
ATOM     24  C   UNL     1      -7.749 -10.306  12.194  0.00  0.00    +0.088 C 
BRANCH  20  23
ATOM      1 BR   UNL     1     -12.320 -10.329  14.668  0.00  0.00    -0.050 Br
ATOM     23  C   UNL     1     -10.568  -8.133  15.371  0.00  0.00    +0.014 A 
ATOM     27  C   UNL     1     -11.886  -8.559  15.213  0.00  0.00    +0.027 A 
ATOM     28  C   UNL     1     -10.303  -6.823  15.773  0.00  0.00    +0.011 A 
ATOM     31  C   UNL     1     -12.939  -7.677  15.454  0.00  0.00    +0.016 A 
ATOM     32  C   UNL     1     -11.356  -5.941  16.015  0.00  0.00    +0.001 A 
ATOM     34  C   UNL     1     -12.674  -6.368  15.855  0.00  0.00    +0.001 A 
ENDBRANCH  20  23
ENDBRANCH  11  18
BRANCH  12  17
ATOM     17  C   UNL     1      -3.690 -12.394  14.973  0.00  0.00    +0.124 C 
BRANCH  17   7
ATOM      7  N   UNL     1      -3.554 -11.214  14.104  0.00  0.00    -0.188 NA
ATOM     35  H   UNL     1      -4.428 -10.750  13.831  0.00  0.00    +0.148 HD
BRANCH   7   3
ATOM      3  S   UNL     1      -2.232 -11.086  13.036  0.00  0.00    +0.058 S 
ATOM      4  O   UNL     1      -1.548 -12.363  12.965  0.00  0.00    -0.153 OA
ATOM      5  O   UNL     1      -1.491  -9.877  13.342  0.00  0.00    -0.153 OA
BRANCH   3  22
ATOM      2 CL   UNL     1      -5.114 -10.127   7.541  0.00  0.00    -0.084 Cl
ATOM     22  C   UNL     1      -3.044 -10.816  11.489  0.00  0.00    +0.105 A 
ATOM     25  C   UNL     1      -3.738 -11.858  10.875  0.00  0.00    +0.030 A 
ATOM     26  C   UNL     1      -2.989  -9.561  10.883  0.00  0.00    +0.030 A 
ATOM     29  C   UNL     1      -4.378 -11.645   9.653  0.00  0.00    +0.022 A 
ATOM     30  C   UNL     1      -3.629  -9.348   9.662  0.00  0.00    +0.022 A 
ATOM     33  C   UNL     1      -4.324 -10.390   9.048  0.00  0.00    +0.041 A 
ENDBRANCH   3  22
ENDBRANCH   7   3
ENDBRANCH  17   7
ENDBRANCH  12  17
TORSDOF 6
ENDMDL
MODEL 5
REMARK VINA RESULT:      -7.2     27.685     29.995
REMARK  Name = 40777256
REMARK  7 active torsions:
REMARK  status: ('A' for Active; 'I' for Inactive)
REMARK    1  A    between atoms: S_3  and  N_7
REMARK    2  A    between atoms: S_3  and  C_22
REMARK    3  A    between atoms: N_7  and  C_17
REMARK    4  A    between atoms: C_11  and  C_18
REMARK    5  A    between atoms: C_12  and  C_17
REMARK    6  A    between atoms: C_20  and  C_23
REMARK    7  A    between atoms: C_21  and  C_24
REMARK                            x       y       z     vdW  Elec       q    Type
REMARK                         _______ _______ _______ _____ _____    ______ ____
ROOT
ATOM      6  N   UNL     1      -5.029 -12.831  16.941  0.00  0.00    -0.297 NA
ATOM     10  C   UNL     1      -5.522 -10.360  17.597  0.00  0.00    +0.002 C 
ATOM     11  C   UNL     1      -6.825 -11.072  17.141  0.00  0.00    +0.055 C 
ATOM     12  C   UNL     1      -4.069 -11.922  16.259  0.00  0.00    +0.072 C 
ATOM     13  C   UNL     1      -4.472 -10.448  16.469  0.00  0.00    +0.024 C 
ATOM     14  C   UNL     1      -4.970 -11.164  18.794  0.00  0.00    +0.019 C 
ATOM     15  C   UNL     1      -6.421 -12.465  16.578  0.00  0.00    +0.094 C 
ATOM     16  C   UNL     1      -4.867 -12.648  18.402  0.00  0.00    +0.085 C 
ENDROOT
BRANCH  11  18
ATOM      8  N   UNL     1      -8.451  -9.289  16.738  0.00  0.00    -0.237 NA
ATOM      9  N   UNL     1      -9.467  -8.942  14.579  0.00  0.00    -0.232 NA
ATOM     18  C   UNL     1      -7.765 -10.323  16.207  0.00  0.00    +0.050 A 
ATOM     19  C   UNL     1      -7.875 -10.721  14.890  0.00  0.00    +0.052 A 
ATOM     20  C   UNL     1      -8.750  -9.986  14.115  0.00  0.00    +0.076 A 
ATOM     21  C   UNL     1      -9.271  -8.652  15.881  0.00  0.00    +0.127 A 
ATOM     24  C   UNL     1     -10.049  -7.505  16.431  0.00  0.00    +0.088 C 
BRANCH  20  23
ATOM      1 BR   UNL     1      -6.423  -9.025  12.143  0.00  0.00    -0.050 Br
ATOM     23  C   UNL     1      -8.957 -10.302  12.722  0.00  0.00    +0.014 A 
ATOM     27  C   UNL     1      -8.034  -9.950  11.738  0.00  0.00    +0.027 A 
ATOM     28  C   UNL     1     -10.125 -10.981  12.372  0.00  0.00    +0.011 A 
ATOM     31  C   UNL     1      -8.277 -10.276  10.404  0.00  0.00    +0.016 A 
ATOM     32  C   UNL     1     -10.368 -11.308  11.037  0.00  0.00    +0.001 A 
ATOM     34  C   UNL     1      -9.444 -10.955  10.054  0.00  0.00    +0.001 A 
ENDBRANCH  20  23
ENDBRANCH  11  18
BRANCH  12  17
ATOM     17  C   UNL     1      -3.899 -12.262  14.776  0.00  0.00    +0.124 C 
BRANCH  17   7
ATOM      7  N   UNL     1      -3.587 -11.031  14.031  0.00  0.00    -0.188 NA
ATOM     35  H   UNL     1      -4.379 -10.405  13.841  0.00  0.00    +0.148 HD
BRANCH   7   3
ATOM      3  S   UNL     1      -2.283 -11.001  12.936  0.00  0.00    +0.058 S 
ATOM      4  O   UNL     1      -1.680 -12.318  12.872  0.00  0.00    -0.153 OA
ATOM      5  O   UNL     1      -1.464  -9.835  13.206  0.00  0.00    -0.153 OA
BRANCH   3  22
ATOM      2 CL   UNL     1      -5.215  -9.951   7.484  0.00  0.00    -0.084 Cl
ATOM     22  C   UNL     1      -3.109 -10.705  11.401  0.00  0.00    +0.105 A 
ATOM     25  C   UNL     1      -3.878 -11.711  10.818  0.00  0.00    +0.030 A 
ATOM     26  C   UNL     1      -2.990  -9.466  10.773  0.00  0.00    +0.030 A 
ATOM     29  C   UNL     1      -4.530 -11.479   9.606  0.00  0.00    +0.022 A 
ATOM     30  C   UNL     1      -3.641  -9.232   9.561  0.00  0.00    +0.022 A 
ATOM     33  C   UNL     1      -4.411 -10.239   8.979  0.00  0.00    +0.041 A 
ENDBRANCH   3  22
ENDBRANCH   7   3
ENDBRANCH  17   7
ENDBRANCH  12  17
TORSDOF 6
ENDMDL
MODEL 6
REMARK VINA RESULT:      -7.1     14.508     17.754
REMARK  Name = 40777256
REMARK  7 active torsions:
REMARK  status: ('A' for Active; 'I' for Inactive)
REMARK    1  A    between atoms: S_3  and  N_7
REMARK    2  A    between atoms: S_3  and  C_22
REMARK    3  A    between atoms: N_7  and  C_17
REMARK    4  A    between atoms: C_11  and  C_18
REMARK    5  A    between atoms: C_12  and  C_17
REMARK    6  A    between atoms: C_20  and  C_23
REMARK    7  A    between atoms: C_21  and  C_24
REMARK                            x       y       z     vdW  Elec       q    Type
REMARK                         _______ _______ _______ _____ _____    ______ ____
ROOT
ATOM      6  N   UNL     1       9.915   7.062   7.497  0.00  0.00    -0.297 NA
ATOM     10  C   UNL     1       9.848   5.146   5.735  0.00  0.00    +0.002 C 
ATOM     11  C   UNL     1      11.170   5.953   5.612  0.00  0.00    +0.055 C 
ATOM     12  C   UNL     1       8.625   7.096   6.758  0.00  0.00    +0.072 C 
ATOM     13  C   UNL     1       8.650   6.105   5.575  0.00  0.00    +0.024 C 
ATOM     14  C   UNL     1       9.796   4.592   7.175  0.00  0.00    +0.019 C 
ATOM     15  C   UNL     1      11.048   7.189   6.549  0.00  0.00    +0.094 C 
ATOM     16  C   UNL     1      10.017   5.745   8.170  0.00  0.00    +0.085 C 
ENDROOT
BRANCH  11  18
ATOM      8  N   UNL     1      12.215   7.549   4.082  0.00  0.00    -0.237 NA
ATOM      9  N   UNL     1      12.545   7.059   1.745  0.00  0.00    -0.232 NA
ATOM     18  C   UNL     1      11.656   6.329   4.220  0.00  0.00    +0.050 A 
ATOM     19  C   UNL     1      11.508   5.431   3.182  0.00  0.00    +0.052 A 
ATOM     20  C   UNL     1      11.976   5.854   1.955  0.00  0.00    +0.076 A 
ATOM     21  C   UNL     1      12.632   7.845   2.836  0.00  0.00    +0.127 A 
ATOM     24  C   UNL     1      13.254   9.186   2.642  0.00  0.00    +0.088 C 
BRANCH  20  23
ATOM      1 BR   UNL     1      14.377   3.776   1.579  0.00  0.00    -0.050 Br
ATOM     23  C   UNL     1      11.879   5.010   0.788  0.00  0.00    +0.014 A 
ATOM     27  C   UNL     1      12.847   4.052   0.485  0.00  0.00    +0.027 A 
ATOM     28  C   UNL     1      10.774   5.173  -0.048  0.00  0.00    +0.011 A 
ATOM     31  C   UNL     1      12.710   3.259  -0.654  0.00  0.00    +0.016 A 
ATOM     32  C   UNL     1      10.637   4.378  -1.187  0.00  0.00    +0.001 A 
ATOM     34  C   UNL     1      11.606   3.422  -1.489  0.00  0.00    +0.001 A 
ENDBRANCH  20  23
ENDBRANCH  11  18
BRANCH  12  17
ATOM     17  C   UNL     1       8.247   8.510   6.311  0.00  0.00    +0.124 C 
BRANCH  17   7
ATOM      7  N   UNL     1       7.719   8.457   4.938  0.00  0.00    -0.188 NA
ATOM     35  H   UNL     1       7.435   7.531   4.597  0.00  0.00    +0.148 HD
BRANCH   7   3
ATOM      3  S   UNL     1       8.237   9.593   3.778  0.00  0.00    +0.058 S 
ATOM      4  O   UNL     1       9.297   9.010   2.977  0.00  0.00    -0.153 OA
ATOM      5  O   UNL     1       8.432  10.876   4.425  0.00  0.00    -0.153 OA
BRANCH   3  22
ATOM      2 CL   UNL     1       3.142  10.127   0.148  0.00  0.00    -0.084 Cl
ATOM     22  C   UNL     1       6.803   9.743   2.756  0.00  0.00    +0.105 A 
ATOM     25  C   UNL     1       5.590  10.151   3.311  0.00  0.00    +0.030 A 
ATOM     26  C   UNL     1       6.884   9.454   1.394  0.00  0.00    +0.030 A 
ATOM     29  C   UNL     1       4.458  10.269   2.505  0.00  0.00    +0.022 A 
ATOM     30  C   UNL     1       5.752   9.572   0.587  0.00  0.00    +0.022 A 
ATOM     33  C   UNL     1       4.539   9.980   1.143  0.00  0.00    +0.041 A 
ENDBRANCH   3  22
ENDBRANCH   7   3
ENDBRANCH  17   7
ENDBRANCH  12  17
TORSDOF 6
ENDMDL
MODEL 7
REMARK VINA RESULT:      -6.9     25.608     27.750
REMARK  Name = 40777256
REMARK  7 active torsions:
REMARK  status: ('A' for Active; 'I' for Inactive)
REMARK    1  A    between atoms: S_3  and  N_7
REMARK    2  A    between atoms: S_3  and  C_22
REMARK    3  A    between atoms: N_7  and  C_17
REMARK    4  A    between atoms: C_11  and  C_18
REMARK    5  A    between atoms: C_12  and  C_17
REMARK    6  A    between atoms: C_20  and  C_23
REMARK    7  A    between atoms: C_21  and  C_24
REMARK                            x       y       z     vdW  Elec       q    Type
REMARK                         _______ _______ _______ _____ _____    ______ ____
ROOT
ATOM      6  N   UNL     1      -9.042  14.007  16.262  0.00  0.00    -0.297 NA
ATOM     10  C   UNL     1     -11.168  13.333  17.605  0.00  0.00    +0.002 C 
ATOM     11  C   UNL     1     -10.095  12.213  17.688  0.00  0.00    +0.055 C 
ATOM     12  C   UNL     1     -10.255  14.199  15.423  0.00  0.00    +0.072 C 
ATOM     13  C   UNL     1     -11.499  13.612  16.124  0.00  0.00    +0.024 C 
ATOM     14  C   UNL     1     -10.521  14.614  18.175  0.00  0.00    +0.019 C 
ATOM     15  C   UNL     1      -8.949  12.594  16.707  0.00  0.00    +0.094 C 
ATOM     16  C   UNL     1      -9.181  14.864  17.463  0.00  0.00    +0.085 C 
ENDROOT
BRANCH  11  18
ATOM      8  N   UNL     1     -10.318  10.203  16.314  0.00  0.00    -0.237 NA
ATOM      9  N   UNL     1     -11.337   8.184  17.148  0.00  0.00    -0.232 NA
ATOM     18  C   UNL     1     -10.546  10.770  17.516  0.00  0.00    +0.050 A 
ATOM     19  C   UNL     1     -11.157  10.118  18.568  0.00  0.00    +0.052 A 
ATOM     20  C   UNL     1     -11.534   8.813  18.324  0.00  0.00    +0.076 A 
ATOM     21  C   UNL     1     -10.732   8.926  16.200  0.00  0.00    +0.127 A 
ATOM     24  C   UNL     1     -10.499   8.265  14.884  0.00  0.00    +0.088 C 
BRANCH  20  23
ATOM      1 BR   UNL     1     -14.730   8.946  18.317  0.00  0.00    -0.050 Br
ATOM     23  C   UNL     1     -12.183   8.022  19.342  0.00  0.00    +0.014 A 
ATOM     27  C   UNL     1     -13.571   7.974  19.470  0.00  0.00    +0.027 A 
ATOM     28  C   UNL     1     -11.377   7.289  20.214  0.00  0.00    +0.011 A 
ATOM     31  C   UNL     1     -14.153   7.194  20.469  0.00  0.00    +0.016 A 
ATOM     32  C   UNL     1     -11.960   6.509  21.213  0.00  0.00    +0.001 A 
ATOM     34  C   UNL     1     -13.347   6.462  21.341  0.00  0.00    +0.001 A 
ENDBRANCH  20  23
ENDBRANCH  11  18
BRANCH  12  17
ATOM     17  C   UNL     1     -10.080  13.640  14.009  0.00  0.00    +0.124 C 
BRANCH  17   7
ATOM      7  N   UNL     1     -10.864  12.401  13.879  0.00  0.00    -0.188 NA
ATOM     35  H   UNL     1     -10.383  11.532  14.140  0.00  0.00    +0.148 HD
BRANCH   7   3
ATOM      3  S   UNL     1     -12.103  12.291  12.715  0.00  0.00    +0.058 S 
ATOM      4  O   UNL     1     -11.514  12.092  11.405  0.00  0.00    -0.153 OA
ATOM      5  O   UNL     1     -13.054  13.364  12.933  0.00  0.00    -0.153 OA
BRANCH   3  22
ATOM      2 CL   UNL     1     -14.956   6.953  14.386  0.00  0.00    -0.084 Cl
ATOM     22  C   UNL     1     -12.906  10.788  13.186  0.00  0.00    +0.105 A 
ATOM     25  C   UNL     1     -12.955   9.715  12.296  0.00  0.00    +0.030 A 
ATOM     26  C   UNL     1     -13.492  10.676  14.447  0.00  0.00    +0.030 A 
ATOM     29  C   UNL     1     -13.589   8.529  12.667  0.00  0.00    +0.022 A 
ATOM     30  C   UNL     1     -14.126   9.490  14.818  0.00  0.00    +0.022 A 
ATOM     33  C   UNL     1     -14.174   8.417  13.928  0.00  0.00    +0.041 A 
ENDBRANCH   3  22
ENDBRANCH   7   3
ENDBRANCH  17   7
ENDBRANCH  12  17
TORSDOF 6
ENDMDL
MODEL 8
REMARK VINA RESULT:      -6.9     13.194     16.242
REMARK  Name = 40777256
REMARK  7 active torsions:
REMARK  status: ('A' for Active; 'I' for Inactive)
REMARK    1  A    between atoms: S_3  and  N_7
REMARK    2  A    between atoms: S_3  and  C_22
REMARK    3  A    between atoms: N_7  and  C_17
REMARK    4  A    between atoms: C_11  and  C_18
REMARK    5  A    between atoms: C_12  and  C_17
REMARK    6  A    between atoms: C_20  and  C_23
REMARK    7  A    between atoms: C_21  and  C_24
REMARK                            x       y       z     vdW  Elec       q    Type
REMARK                         _______ _______ _______ _____ _____    ______ ____
ROOT
ATOM      6  N   UNL     1      15.828  10.300   4.828  0.00  0.00    -0.297 NA
ATOM     10  C   UNL     1      16.013   7.726   5.177  0.00  0.00    +0.002 C 
ATOM     11  C   UNL     1      15.430   8.044   3.772  0.00  0.00    +0.055 C 
ATOM     12  C   UNL     1      15.212   9.917   6.127  0.00  0.00    +0.072 C 
ATOM     13  C   UNL     1      15.127   8.382   6.256  0.00  0.00    +0.024 C 
ATOM     14  C   UNL     1      17.397   8.408   5.250  0.00  0.00    +0.019 C 
ATOM     15  C   UNL     1      15.163   9.576   3.717  0.00  0.00    +0.094 C 
ATOM     16  C   UNL     1      17.252   9.890   4.862  0.00  0.00    +0.085 C 
ENDROOT
BRANCH  11  18
ATOM      8  N   UNL     1      14.503   6.205   2.454  0.00  0.00    -0.237 NA
ATOM      9  N   UNL     1      12.139   5.739   2.384  0.00  0.00    -0.232 NA
ATOM     18  C   UNL     1      14.238   7.231   3.288  0.00  0.00    +0.050 A 
ATOM     19  C   UNL     1      12.968   7.570   3.708  0.00  0.00    +0.052 A 
ATOM     20  C   UNL     1      11.947   6.780   3.220  0.00  0.00    +0.076 A 
ATOM     21  C   UNL     1      13.424   5.510   2.047  0.00  0.00    +0.127 A 
ATOM     24  C   UNL     1      13.676   4.368   1.122  0.00  0.00    +0.088 C 
BRANCH  20  23
ATOM      1 BR   UNL     1      10.623   9.347   1.845  0.00  0.00    -0.050 Br
ATOM     23  C   UNL     1      10.573   7.030   3.583  0.00  0.00    +0.014 A 
ATOM     27  C   UNL     1       9.855   8.109   3.067  0.00  0.00    +0.027 A 
ATOM     28  C   UNL     1       9.962   6.151   4.478  0.00  0.00    +0.011 A 
ATOM     31  C   UNL     1       8.528   8.311   3.447  0.00  0.00    +0.016 A 
ATOM     32  C   UNL     1       8.634   6.351   4.857  0.00  0.00    +0.001 A 
ATOM     34  C   UNL     1       7.918   7.431   4.342  0.00  0.00    +0.001 A 
ENDBRANCH  20  23
ENDBRANCH  11  18
BRANCH  12  17
ATOM     17  C   UNL     1      13.853  10.586   6.347  0.00  0.00    +0.124 C 
BRANCH  17   7
ATOM      7  N   UNL     1      12.987   9.677   7.116  0.00  0.00    -0.188 NA
ATOM     35  H   UNL     1      13.375   8.748   7.320  0.00  0.00    +0.148 HD
BRANCH   7   3
ATOM      3  S   UNL     1      11.293   9.812   7.005  0.00  0.00    +0.058 S 
ATOM      4  O   UNL     1      10.918  10.010   5.618  0.00  0.00    -0.153 OA
ATOM      5  O   UNL     1      10.822  10.728   8.026  0.00  0.00    -0.153 OA
BRANCH   3  22
ATOM      2 CL   UNL     1       9.439   4.061   8.709  0.00  0.00    -0.084 Cl
ATOM     22  C   UNL     1      10.770   8.193   7.484  0.00  0.00    +0.105 A 
ATOM     25  C   UNL     1       9.490   7.997   8.000  0.00  0.00    +0.030 A 
ATOM     26  C   UNL     1      11.640   7.111   7.347  0.00  0.00    +0.030 A 
ATOM     29  C   UNL     1       9.078   6.719   8.380  0.00  0.00    +0.022 A 
ATOM     30  C   UNL     1      11.229   5.833   7.726  0.00  0.00    +0.022 A 
ATOM     33  C   UNL     1       9.947   5.638   8.242  0.00  0.00    +0.041 A 
ENDBRANCH   3  22
ENDBRANCH   7   3
ENDBRANCH  17   7
ENDBRANCH  12  17
TORSDOF 6
ENDMDL
MODEL 9
REMARK VINA RESULT:      -6.9     14.986     18.738
REMARK  Name = 40777256
REMARK  7 active torsions:
REMARK  status: ('A' for Active; 'I' for Inactive)
REMARK    1  A    between atoms: S_3  and  N_7
REMARK    2  A    between atoms: S_3  and  C_22
REMARK    3  A    between atoms: N_7  and  C_17
REMARK    4  A    between atoms: C_11  and  C_18
REMARK    5  A    between atoms: C_12  and  C_17
REMARK    6  A    between atoms: C_20  and  C_23
REMARK    7  A    between atoms: C_21  and  C_24
REMARK                            x       y       z     vdW  Elec       q    Type
REMARK                         _______ _______ _______ _____ _____    ______ ____
ROOT
ATOM      6  N   UNL     1       9.459   4.932   5.630  0.00  0.00    -0.297 NA
ATOM     10  C   UNL     1      10.550   7.127   6.510  0.00  0.00    +0.002 C 
ATOM     11  C   UNL     1       9.029   7.333   6.273  0.00  0.00    +0.055 C 
ATOM     12  C   UNL     1      10.670   5.254   4.829  0.00  0.00    +0.072 C 
ATOM     13  C   UNL     1      11.210   6.652   5.198  0.00  0.00    +0.024 C 
ATOM     14  C   UNL     1      10.691   5.976   7.530  0.00  0.00    +0.019 C 
ATOM     15  C   UNL     1       8.492   6.056   5.564  0.00  0.00    +0.094 C 
ATOM     16  C   UNL     1       9.879   4.764   7.041  0.00  0.00    +0.085 C 
ENDROOT
BRANCH  11  18
ATOM      8  N   UNL     1       9.030   9.772   6.098  0.00  0.00    -0.237 NA
ATOM      9  N   UNL     1       7.794  10.937   4.386  0.00  0.00    -0.232 NA
ATOM     18  C   UNL     1       8.575   8.611   5.582  0.00  0.00    +0.050 A 
ATOM     19  C   UNL     1       7.739   8.533   4.487  0.00  0.00    +0.052 A 
ATOM     20  C   UNL     1       7.378   9.740   3.924  0.00  0.00    +0.076 A 
ATOM     21  C   UNL     1       8.606  10.880   5.460  0.00  0.00    +0.127 A 
ATOM     24  C   UNL     1       9.086  12.185   6.001  0.00  0.00    +0.088 C 
BRANCH  20  23
ATOM      1 BR   UNL     1       8.779   9.093   1.123  0.00  0.00    -0.050 Br
ATOM     23  C   UNL     1       6.506   9.795   2.775  0.00  0.00    +0.014 A 
ATOM     27  C   UNL     1       6.966   9.538   1.484  0.00  0.00    +0.027 A 
ATOM     28  C   UNL     1       5.165  10.118   2.986  0.00  0.00    +0.011 A 
ATOM     31  C   UNL     1       6.086   9.603   0.404  0.00  0.00    +0.016 A 
ATOM     32  C   UNL     1       4.285  10.182   1.905  0.00  0.00    +0.001 A 
ATOM     34  C   UNL     1       4.746   9.925   0.615  0.00  0.00    +0.001 A 
ENDBRANCH  20  23
ENDBRANCH  11  18
BRANCH  12  17
ATOM     17  C   UNL     1      10.428   5.114   3.324  0.00  0.00    +0.124 C 
BRANCH  17   7
ATOM      7  N   UNL     1      11.157   3.937   2.826  0.00  0.00    -0.188 NA
ATOM     35  H   UNL     1      11.174   3.119   3.446  0.00  0.00    +0.148 HD
BRANCH   7   3
ATOM      3  S   UNL     1      12.465   4.133   1.752  0.00  0.00    +0.058 S 
ATOM      4  O   UNL     1      13.274   2.929   1.757  0.00  0.00    -0.153 OA
ATOM      5  O   UNL     1      13.079   5.426   1.984  0.00  0.00    -0.153 OA
BRANCH   3  22
ATOM      2 CL   UNL     1       9.532   4.470  -3.789  0.00  0.00    -0.084 Cl
ATOM     22  C   UNL     1      11.639   4.228   0.192  0.00  0.00    +0.105 A 
ATOM     25  C   UNL     1      12.053   3.420  -0.867  0.00  0.00    +0.030 A 
ATOM     26  C   UNL     1      10.574   5.111   0.019  0.00  0.00    +0.030 A 
ATOM     29  C   UNL     1      11.402   3.495  -2.098  0.00  0.00    +0.022 A 
ATOM     30  C   UNL     1       9.922   5.187  -1.212  0.00  0.00    +0.022 A 
ATOM     33  C   UNL     1      10.336   4.378  -2.270  0.00  0.00    +0.041 A 
ENDBRANCH   3  22
ENDBRANCH   7   3
ENDBRANCH  17   7
ENDBRANCH  12  17
TORSDOF 6
ENDMDL
MODEL 10
REMARK VINA RESULT:      -6.9     14.029     17.599
REMARK  Name = 40777256
REMARK  7 active torsions:
REMARK  status: ('A' for Active; 'I' for Inactive)
REMARK    1  A    between atoms: S_3  and  N_7
REMARK    2  A    between atoms: S_3  and  C_22
REMARK    3  A    between atoms: N_7  and  C_17
REMARK    4  A    between atoms: C_11  and  C_18
REMARK    5  A    between atoms: C_12  and  C_17
REMARK    6  A    between atoms: C_20  and  C_23
REMARK    7  A    between atoms: C_21  and  C_24
REMARK                            x       y       z     vdW  Elec       q    Type
REMARK                         _______ _______ _______ _____ _____    ______ ____
ROOT
ATOM      6  N   UNL     1      13.799   9.367   5.709  0.00  0.00    -0.297 NA
ATOM     10  C   UNL     1      15.677   7.687   5.053  0.00  0.00    +0.002 C 
ATOM     11  C   UNL     1      15.193   8.475   3.805  0.00  0.00    +0.055 C 
ATOM     12  C   UNL     1      13.486   8.018   6.250  0.00  0.00    +0.072 C 
ATOM     13  C   UNL     1      14.475   6.968   5.701  0.00  0.00    +0.024 C 
ATOM     14  C   UNL     1      16.183   8.732   6.072  0.00  0.00    +0.019 C 
ATOM     15  C   UNL     1      13.947   9.302   4.234  0.00  0.00    +0.094 C 
ATOM     16  C   UNL     1      15.095   9.798   6.286  0.00  0.00    +0.085 C 
ENDROOT
BRANCH  11  18
ATOM      8  N   UNL     1      16.038   7.481   1.737  0.00  0.00    -0.237 NA
ATOM      9  N   UNL     1      14.599   6.326   0.186  0.00  0.00    -0.232 NA
ATOM     18  C   UNL     1      14.958   7.703   2.515  0.00  0.00    +0.050 A 
ATOM     19  C   UNL     1      13.685   7.275   2.199  0.00  0.00    +0.052 A 
ATOM     20  C   UNL     1      13.563   6.584   1.011  0.00  0.00    +0.076 A 
ATOM     21  C   UNL     1      15.790   6.796   0.604  0.00  0.00    +0.127 A 
ATOM     24  C   UNL     1      16.959   6.532  -0.284  0.00  0.00    +0.088 C 
BRANCH  20  23
ATOM      1 BR   UNL     1      12.985   3.518   1.714  0.00  0.00    -0.050 Br
ATOM     23  C   UNL     1      12.285   6.084   0.567  0.00  0.00    +0.014 A 
ATOM     27  C   UNL     1      11.884   4.768   0.797  0.00  0.00    +0.027 A 
ATOM     28  C   UNL     1      11.439   6.962  -0.112  0.00  0.00    +0.011 A 
ATOM     31  C   UNL     1      10.638   4.329   0.348  0.00  0.00    +0.016 A 
ATOM     32  C   UNL     1      10.192   6.523  -0.560  0.00  0.00    +0.001 A 
ATOM     34  C   UNL     1       9.793   5.207  -0.330  0.00  0.00    +0.001 A 
ENDBRANCH  20  23
ENDBRANCH  11  18
BRANCH  12  17
ATOM     17  C   UNL     1      12.030   7.615   6.004  0.00  0.00    +0.124 C 
BRANCH  17   7
ATOM      7  N   UNL     1      11.993   6.246   5.464  0.00  0.00    -0.188 NA
ATOM     35  H   UNL     1      12.745   5.996   4.812  0.00  0.00    +0.148 HD
BRANCH   7   3
ATOM      3  S   UNL     1      10.505   5.435   5.291  0.00  0.00    +0.058 S 
ATOM      4  O   UNL     1       9.948   5.169   6.604  0.00  0.00    -0.153 OA
ATOM      5  O   UNL     1      10.660   4.358   4.332  0.00  0.00    -0.153 OA
BRANCH   3  22
ATOM      2 CL   UNL     1       6.964   9.834   2.548  0.00  0.00    -0.084 Cl
ATOM     22  C   UNL     1       9.507   6.673   4.518  0.00  0.00    +0.105 A 
ATOM     25  C   UNL     1       9.676   6.959   3.164  0.00  0.00    +0.030 A 
ATOM     26  C   UNL     1       8.553   7.365   5.264  0.00  0.00    +0.030 A 
ATOM     29  C   UNL     1       8.889   7.937   2.554  0.00  0.00    +0.022 A 
ATOM     30  C   UNL     1       7.766   8.343   4.655  0.00  0.00    +0.022 A 
ATOM     33  C   UNL     1       7.935   8.628   3.300  0.00  0.00    +0.041 A 
ENDBRANCH   3  22
ENDBRANCH   7   3
ENDBRANCH  17   7
ENDBRANCH  12  17
TORSDOF 6
ENDMDL
