MODEL 1
REMARK VINA RESULT:      -6.2      0.000      0.000
REMARK  Name = 75536576
REMARK  8 active torsions:
REMARK  status: ('A' for Active; 'I' for Inactive)
REMARK    1  A    between atoms: O_4  and  C_11
REMARK    2  A    between atoms: O_6  and  C_21
REMARK    3  A    between atoms: O_6  and  C_22
REMARK    4  A    between atoms: N_7  and  C_9
REMARK    5  A    between atoms: N_7  and  C_10
REMARK    6  A    between atoms: N_8  and  C_19
REMARK    7  A    between atoms: C_14  and  C_19
REMARK    8  A    between atoms: C_20  and  C_21
REMARK                            x       y       z     vdW  Elec       q    Type
REMARK                         _______ _______ _______ _____ _____    ______ ____
ROOT
ATOM      3  O   UNL     1      13.236   8.101  21.590  0.00  0.00    -0.371 OA
ATOM      9  C   UNL     1      11.307   9.045  22.604  0.00  0.00    +0.111 C 
ATOM     11  C   UNL     1      10.872   8.041  21.552  0.00  0.00    +0.164 C 
ATOM     14  C   UNL     1      12.132   7.198  21.413  0.00  0.00    +0.165 C 
ATOM     15  C   UNL     1      12.743   9.313  22.188  0.00  0.00    +0.181 C 
ENDROOT
BRANCH  11   4
ATOM      4  O   UNL     1       9.762   7.267  21.961  0.00  0.00    -0.388 OA
ATOM     24  H   UNL     1       8.952   7.777  21.785  0.00  0.00    +0.210 HD
ENDBRANCH  11   4
BRANCH   9   7
ATOM      7  N   UNL     1      10.491  10.248  22.634  0.00  0.00    -0.306 NA
ATOM     23  H   UNL     1       9.640  10.084  23.170  0.00  0.00    +0.123 HD
BRANCH   7  10
ATOM      1  F   UNL     1      10.011  14.231  24.860  0.00  0.00    -0.206 F 
ATOM      2  F   UNL     1      12.038  14.962  25.154  0.00  0.00    -0.206 F 
ATOM     10  C   UNL     1      11.237  11.365  23.211  0.00  0.00    +0.054 C 
ATOM     12  C   UNL     1      10.849  12.670  22.505  0.00  0.00    +0.024 C 
ATOM     13  C   UNL     1      10.968  11.447  24.717  0.00  0.00    +0.024 C 
ATOM     16  C   UNL     1      11.557  13.871  23.130  0.00  0.00    +0.077 C 
ATOM     17  C   UNL     1      11.676  12.647  25.343  0.00  0.00    +0.077 C 
ATOM     18  C   UNL     1      11.318  13.939  24.628  0.00  0.00    +0.249 C 
ENDBRANCH   7  10
ENDBRANCH   9   7
BRANCH  14  19
ATOM     19  C   UNL     1      12.246   6.506  20.066  0.00  0.00    +0.138 C 
BRANCH  19   8
ATOM      5  O   UNL     1      11.635   7.348  17.367  0.00  0.00    -0.273 OA
ATOM      8  N   UNL     1      13.098   7.239  19.174  0.00  0.00    -0.311 N 
ATOM     20  C   UNL     1      12.718   7.604  17.885  0.00  0.00    +0.239 C 
ATOM     25  H   UNL     1      14.024   7.492  19.504  0.00  0.00    +0.149 HD
BRANCH  20  21
ATOM     21  C   UNL     1      13.809   8.370  17.168  0.00  0.00    +0.255 C 
BRANCH  21   6
ATOM      6  O   UNL     1      13.325   9.615  16.711  0.00  0.00    -0.374 OA
ATOM     22  C   UNL     1      13.577  10.659  17.647  0.00  0.00    +0.194 C 
ENDBRANCH  21   6
ENDBRANCH  20  21
ENDBRANCH  19   8
ENDBRANCH  14  19
TORSDOF 7
ENDMDL
MODEL 2
REMARK VINA RESULT:      -6.0      5.298      6.379
REMARK  Name = 75536576
REMARK  8 active torsions:
REMARK  status: ('A' for Active; 'I' for Inactive)
REMARK    1  A    between atoms: O_4  and  C_11
REMARK    2  A    between atoms: O_6  and  C_21
REMARK    3  A    between atoms: O_6  and  C_22
REMARK    4  A    between atoms: N_7  and  C_9
REMARK    5  A    between atoms: N_7  and  C_10
REMARK    6  A    between atoms: N_8  and  C_19
REMARK    7  A    between atoms: C_14  and  C_19
REMARK    8  A    between atoms: C_20  and  C_21
REMARK                            x       y       z     vdW  Elec       q    Type
REMARK                         _______ _______ _______ _____ _____    ______ ____
ROOT
ATOM      3  O   UNL     1      14.223   7.271  18.403  0.00  0.00    -0.371 OA
ATOM      9  C   UNL     1      14.992   6.416  20.481  0.00  0.00    +0.111 C 
ATOM     11  C   UNL     1      13.609   7.013  20.673  0.00  0.00    +0.164 C 
ATOM     14  C   UNL     1      13.086   7.005  19.243  0.00  0.00    +0.165 C 
ATOM     15  C   UNL     1      15.419   7.061  19.174  0.00  0.00    +0.181 C 
ENDROOT
BRANCH  11   4
ATOM      4  O   UNL     1      12.797   6.242  21.536  0.00  0.00    -0.388 OA
ATOM     24  H   UNL     1      11.924   6.669  21.596  0.00  0.00    +0.210 HD
ENDBRANCH  11   4
BRANCH   9   7
ATOM      7  N   UNL     1      15.905   6.698  21.577  0.00  0.00    -0.306 NA
ATOM     23  H   UNL     1      16.171   5.834  22.046  0.00  0.00    +0.123 HD
BRANCH   7  10
ATOM      1  F   UNL     1      19.805   8.697  22.936  0.00  0.00    -0.206 F 
ATOM      2  F   UNL     1      20.758   9.380  21.105  0.00  0.00    -0.206 F 
ATOM     10  C   UNL     1      17.098   7.391  21.092  0.00  0.00    +0.054 C 
ATOM     12  C   UNL     1      17.147   8.811  21.670  0.00  0.00    +0.024 C 
ATOM     13  C   UNL     1      18.351   6.593  21.470  0.00  0.00    +0.024 C 
ATOM     16  C   UNL     1      18.418   9.541  21.240  0.00  0.00    +0.077 C 
ATOM     17  C   UNL     1      19.623   7.323  21.041  0.00  0.00    +0.077 C 
ATOM     18  C   UNL     1      19.662   8.741  21.586  0.00  0.00    +0.249 C 
ENDBRANCH   7  10
ENDBRANCH   9   7
BRANCH  14  19
ATOM     19  C   UNL     1      12.009   8.046  18.993  0.00  0.00    +0.138 C 
BRANCH  19   8
ATOM      5  O   UNL     1      10.473   8.076  16.542  0.00  0.00    -0.273 OA
ATOM      8  N   UNL     1      12.284   8.806  17.807  0.00  0.00    -0.311 N 
ATOM     20  C   UNL     1      11.485   8.758  16.668  0.00  0.00    +0.239 C 
ATOM     25  H   UNL     1      13.109   9.398  17.804  0.00  0.00    +0.149 HD
BRANCH  20  21
ATOM     21  C   UNL     1      12.008   9.660  15.570  0.00  0.00    +0.255 C 
BRANCH  21   6
ATOM      6  O   UNL     1      13.343   9.333  15.250  0.00  0.00    -0.374 OA
ATOM     22  C   UNL     1      14.201  10.469  15.322  0.00  0.00    +0.194 C 
ENDBRANCH  21   6
ENDBRANCH  20  21
ENDBRANCH  19   8
ENDBRANCH  14  19
TORSDOF 7
ENDMDL
MODEL 3
REMARK VINA RESULT:      -6.0      7.618      9.702
REMARK  Name = 75536576
REMARK  8 active torsions:
REMARK  status: ('A' for Active; 'I' for Inactive)
REMARK    1  A    between atoms: O_4  and  C_11
REMARK    2  A    between atoms: O_6  and  C_21
REMARK    3  A    between atoms: O_6  and  C_22
REMARK    4  A    between atoms: N_7  and  C_9
REMARK    5  A    between atoms: N_7  and  C_10
REMARK    6  A    between atoms: N_8  and  C_19
REMARK    7  A    between atoms: C_14  and  C_19
REMARK    8  A    between atoms: C_20  and  C_21
REMARK                            x       y       z     vdW  Elec       q    Type
REMARK                         _______ _______ _______ _____ _____    ______ ____
ROOT
ATOM      3  O   UNL     1      16.574   5.584  18.588  0.00  0.00    -0.371 OA
ATOM      9  C   UNL     1      18.315   5.947  20.162  0.00  0.00    +0.111 C 
ATOM     11  C   UNL     1      17.198   6.940  20.423  0.00  0.00    +0.164 C 
ATOM     14  C   UNL     1      16.026   6.249  19.739  0.00  0.00    +0.165 C 
ATOM     15  C   UNL     1      18.002   5.508  18.741  0.00  0.00    +0.181 C 
ENDROOT
BRANCH  11   4
ATOM      4  O   UNL     1      16.958   7.143  21.801  0.00  0.00    -0.388 OA
ATOM     24  H   UNL     1      17.639   6.663  22.304  0.00  0.00    +0.210 HD
ENDBRANCH  11   4
BRANCH   9   7
ATOM      7  N   UNL     1      19.646   6.517  20.299  0.00  0.00    -0.306 NA
ATOM     23  H   UNL     1      19.583   7.501  20.555  0.00  0.00    +0.123 HD
BRANCH   7  10
ATOM      1  F   UNL     1      23.856   4.994  21.300  0.00  0.00    -0.206 F 
ATOM      2  F   UNL     1      23.653   3.992  23.220  0.00  0.00    -0.206 F 
ATOM     10  C   UNL     1      20.420   5.789  21.303  0.00  0.00    +0.054 C 
ATOM     12  C   UNL     1      21.015   4.519  20.681  0.00  0.00    +0.024 C 
ATOM     13  C   UNL     1      21.518   6.696  21.870  0.00  0.00    +0.024 C 
ATOM     16  C   UNL     1      21.890   3.769  21.682  0.00  0.00    +0.077 C 
ATOM     17  C   UNL     1      22.395   5.947  22.872  0.00  0.00    +0.077 C 
ATOM     18  C   UNL     1      22.961   4.671  22.270  0.00  0.00    +0.249 C 
ENDBRANCH   7  10
ENDBRANCH   9   7
BRANCH  14  19
ATOM     19  C   UNL     1      14.934   7.210  19.304  0.00  0.00    +0.138 C 
BRANCH  19   8
ATOM      5  O   UNL     1      13.939   7.647  21.985  0.00  0.00    -0.273 OA
ATOM      8  N   UNL     1      13.657   6.819  19.828  0.00  0.00    -0.311 N 
ATOM     20  C   UNL     1      13.260   7.073  21.139  0.00  0.00    +0.239 C 
ATOM     25  H   UNL     1      13.020   6.325  19.210  0.00  0.00    +0.149 HD
BRANCH  20  21
ATOM     21  C   UNL     1      11.866   6.553  21.421  0.00  0.00    +0.255 C 
BRANCH  21   6
ATOM      6  O   UNL     1      10.912   7.233  20.632  0.00  0.00    -0.374 OA
ATOM     22  C   UNL     1      10.785   8.600  21.014  0.00  0.00    +0.194 C 
ENDBRANCH  21   6
ENDBRANCH  20  21
ENDBRANCH  19   8
ENDBRANCH  14  19
TORSDOF 7
ENDMDL
MODEL 4
REMARK VINA RESULT:      -5.9     27.618     29.187
REMARK  Name = 75536576
REMARK  8 active torsions:
REMARK  status: ('A' for Active; 'I' for Inactive)
REMARK    1  A    between atoms: O_4  and  C_11
REMARK    2  A    between atoms: O_6  and  C_21
REMARK    3  A    between atoms: O_6  and  C_22
REMARK    4  A    between atoms: N_7  and  C_9
REMARK    5  A    between atoms: N_7  and  C_10
REMARK    6  A    between atoms: N_8  and  C_19
REMARK    7  A    between atoms: C_14  and  C_19
REMARK    8  A    between atoms: C_20  and  C_21
REMARK                            x       y       z     vdW  Elec       q    Type
REMARK                         _______ _______ _______ _____ _____    ______ ____
ROOT
ATOM      3  O   UNL     1     -16.655   0.526  28.580  0.00  0.00    -0.371 OA
ATOM      9  C   UNL     1     -15.111   1.873  29.782  0.00  0.00    +0.111 C 
ATOM     11  C   UNL     1     -15.445   2.556  28.469  0.00  0.00    +0.164 C 
ATOM     14  C   UNL     1     -16.764   1.883  28.116  0.00  0.00    +0.165 C 
ATOM     15  C   UNL     1     -15.552   0.447  29.500  0.00  0.00    +0.181 C 
ENDROOT
BRANCH  11   4
ATOM      4  O   UNL     1     -15.587   3.957  28.602  0.00  0.00    -0.388 OA
ATOM     24  H   UNL     1     -16.144   4.278  27.872  0.00  0.00    +0.210 HD
ENDBRANCH  11   4
BRANCH   9   7
ATOM      7  N   UNL     1     -13.708   1.970  30.149  0.00  0.00    -0.306 NA
ATOM     23  H   UNL     1     -13.217   2.591  29.507  0.00  0.00    +0.123 HD
BRANCH   7  10
ATOM      1  F   UNL     1     -16.008   3.853  33.644  0.00  0.00    -0.206 F 
ATOM      2  F   UNL     1     -14.534   4.099  35.224  0.00  0.00    -0.206 F 
ATOM     10  C   UNL     1     -13.563   2.457  31.521  0.00  0.00    +0.054 C 
ATOM     12  C   UNL     1     -13.906   3.951  31.581  0.00  0.00    +0.024 C 
ATOM     13  C   UNL     1     -14.461   1.642  32.458  0.00  0.00    +0.024 C 
ATOM     16  C   UNL     1     -13.835   4.478  33.013  0.00  0.00    +0.077 C 
ATOM     17  C   UNL     1     -14.391   2.169  33.891  0.00  0.00    +0.077 C 
ATOM     18  C   UNL     1     -14.700   3.655  33.952  0.00  0.00    +0.249 C 
ENDBRANCH   7  10
ENDBRANCH   9   7
BRANCH  14  19
ATOM     19  C   UNL     1     -17.063   1.893  26.627  0.00  0.00    +0.138 C 
BRANCH  19   8
ATOM      5  O   UNL     1     -16.664   2.148  23.773  0.00  0.00    -0.273 OA
ATOM      8  N   UNL     1     -16.290   2.892  25.946  0.00  0.00    -0.311 N 
ATOM     20  C   UNL     1     -16.153   2.938  24.561  0.00  0.00    +0.239 C 
ATOM     25  H   UNL     1     -15.815   3.590  26.510  0.00  0.00    +0.149 HD
BRANCH  20  21
ATOM     21  C   UNL     1     -15.285   4.095  24.115  0.00  0.00    +0.255 C 
BRANCH  21   6
ATOM      6  O   UNL     1     -15.173   4.120  22.708  0.00  0.00    -0.374 OA
ATOM     22  C   UNL     1     -14.144   5.004  22.272  0.00  0.00    +0.194 C 
ENDBRANCH  21   6
ENDBRANCH  20  21
ENDBRANCH  19   8
ENDBRANCH  14  19
TORSDOF 7
ENDMDL
MODEL 5
REMARK VINA RESULT:      -5.7      4.290      6.968
REMARK  Name = 75536576
REMARK  8 active torsions:
REMARK  status: ('A' for Active; 'I' for Inactive)
REMARK    1  A    between atoms: O_4  and  C_11
REMARK    2  A    between atoms: O_6  and  C_21
REMARK    3  A    between atoms: O_6  and  C_22
REMARK    4  A    between atoms: N_7  and  C_9
REMARK    5  A    between atoms: N_7  and  C_10
REMARK    6  A    between atoms: N_8  and  C_19
REMARK    7  A    between atoms: C_14  and  C_19
REMARK    8  A    between atoms: C_20  and  C_21
REMARK                            x       y       z     vdW  Elec       q    Type
REMARK                         _______ _______ _______ _____ _____    ______ ____
ROOT
ATOM      3  O   UNL     1      11.799   9.309  20.383  0.00  0.00    -0.371 OA
ATOM      9  C   UNL     1      12.544   7.056  20.289  0.00  0.00    +0.111 C 
ATOM     11  C   UNL     1      11.640   7.229  21.496  0.00  0.00    +0.164 C 
ATOM     14  C   UNL     1      10.872   8.485  21.110  0.00  0.00    +0.165 C 
ATOM     15  C   UNL     1      12.917   8.497  19.984  0.00  0.00    +0.181 C 
ENDROOT
BRANCH  11   4
ATOM      4  O   UNL     1      10.779   6.125  21.697  0.00  0.00    -0.388 OA
ATOM     24  H   UNL     1      11.204   5.517  22.326  0.00  0.00    +0.210 HD
ENDBRANCH  11   4
BRANCH   9   7
ATOM      7  N   UNL     1      13.700   6.212  20.543  0.00  0.00    -0.306 NA
ATOM     23  H   UNL     1      13.700   5.414  19.910  0.00  0.00    +0.123 HD
BRANCH   7  10
ATOM      1  F   UNL     1      18.095   6.388  21.852  0.00  0.00    -0.206 F 
ATOM      2  F   UNL     1      18.917   8.127  20.838  0.00  0.00    -0.206 F 
ATOM     10  C   UNL     1      14.940   6.972  20.388  0.00  0.00    +0.054 C 
ATOM     12  C   UNL     1      15.381   7.531  21.747  0.00  0.00    +0.024 C 
ATOM     13  C   UNL     1      16.025   6.078  19.777  0.00  0.00    +0.024 C 
ATOM     16  C   UNL     1      16.712   8.273  21.636  0.00  0.00    +0.077 C 
ATOM     17  C   UNL     1      17.356   6.819  19.665  0.00  0.00    +0.077 C 
ATOM     18  C   UNL     1      17.782   7.401  21.002  0.00  0.00    +0.249 C 
ENDBRANCH   7  10
ENDBRANCH   9   7
BRANCH  14  19
ATOM     19  C   UNL     1      10.334   9.251  22.306  0.00  0.00    +0.138 C 
BRANCH  19   8
ATOM      5  O   UNL     1      11.097  12.040  22.404  0.00  0.00    -0.273 OA
ATOM      8  N   UNL     1      11.398   9.831  23.075  0.00  0.00    -0.311 N 
ATOM     20  C   UNL     1      11.695  11.192  23.060  0.00  0.00    +0.239 C 
ATOM     25  H   UNL     1      11.963   9.212  23.647  0.00  0.00    +0.149 HD
BRANCH  20  21
ATOM     21  C   UNL     1      12.862  11.528  23.964  0.00  0.00    +0.255 C 
BRANCH  21   6
ATOM      6  O   UNL     1      12.438  11.636  25.306  0.00  0.00    -0.374 OA
ATOM     22  C   UNL     1      12.101  12.977  25.650  0.00  0.00    +0.194 C 
ENDBRANCH  21   6
ENDBRANCH  20  21
ENDBRANCH  19   8
ENDBRANCH  14  19
TORSDOF 7
ENDMDL
MODEL 6
REMARK VINA RESULT:      -5.7      7.910      9.852
REMARK  Name = 75536576
REMARK  8 active torsions:
REMARK  status: ('A' for Active; 'I' for Inactive)
REMARK    1  A    between atoms: O_4  and  C_11
REMARK    2  A    between atoms: O_6  and  C_21
REMARK    3  A    between atoms: O_6  and  C_22
REMARK    4  A    between atoms: N_7  and  C_9
REMARK    5  A    between atoms: N_7  and  C_10
REMARK    6  A    between atoms: N_8  and  C_19
REMARK    7  A    between atoms: C_14  and  C_19
REMARK    8  A    between atoms: C_20  and  C_21
REMARK                            x       y       z     vdW  Elec       q    Type
REMARK                         _______ _______ _______ _____ _____    ______ ____
ROOT
ATOM      3  O   UNL     1      17.101   7.242  21.067  0.00  0.00    -0.371 OA
ATOM      9  C   UNL     1      18.805   6.019  19.953  0.00  0.00    +0.111 C 
ATOM     11  C   UNL     1      17.459   5.646  19.359  0.00  0.00    +0.164 C 
ATOM     14  C   UNL     1      16.613   6.841  19.775  0.00  0.00    +0.165 C 
ATOM     15  C   UNL     1      18.388   6.636  21.278  0.00  0.00    +0.181 C 
ENDROOT
BRANCH  11   4
ATOM      4  O   UNL     1      17.506   5.496  17.954  0.00  0.00    -0.388 OA
ATOM     24  H   UNL     1      18.057   4.722  17.747  0.00  0.00    +0.210 HD
ENDBRANCH  11   4
BRANCH   9   7
ATOM      7  N   UNL     1      19.706   4.889  20.113  0.00  0.00    -0.306 NA
ATOM     23  H   UNL     1      20.099   4.621  19.212  0.00  0.00    +0.123 HD
BRANCH   7  10
ATOM      1  F   UNL     1      24.226   4.503  20.801  0.00  0.00    -0.206 F 
ATOM      2  F   UNL     1      24.590   5.466  22.717  0.00  0.00    -0.206 F 
ATOM     10  C   UNL     1      20.780   5.211  21.051  0.00  0.00    +0.054 C 
ATOM     12  C   UNL     1      21.437   3.919  21.553  0.00  0.00    +0.024 C 
ATOM     13  C   UNL     1      21.804   6.128  20.373  0.00  0.00    +0.024 C 
ATOM     16  C   UNL     1      22.612   4.220  22.482  0.00  0.00    +0.077 C 
ATOM     17  C   UNL     1      22.979   6.429  21.301  0.00  0.00    +0.077 C 
ATOM     18  C   UNL     1      23.615   5.152  21.826  0.00  0.00    +0.249 C 
ENDBRANCH   7  10
ENDBRANCH   9   7
BRANCH  14  19
ATOM     19  C   UNL     1      15.130   6.525  19.861  0.00  0.00    +0.138 C 
BRANCH  19   8
ATOM      5  O   UNL     1      12.286   6.434  19.345  0.00  0.00    -0.273 OA
ATOM      8  N   UNL     1      14.349   7.491  19.142  0.00  0.00    -0.311 N 
ATOM     20  C   UNL     1      12.977   7.365  18.942  0.00  0.00    +0.239 C 
ATOM     25  H   UNL     1      14.830   8.297  18.756  0.00  0.00    +0.149 HD
BRANCH  20  21
ATOM     21  C   UNL     1      12.410   8.526  18.153  0.00  0.00    +0.255 C 
BRANCH  21   6
ATOM      6  O   UNL     1      11.020   8.367  17.963  0.00  0.00    -0.374 OA
ATOM     22  C   UNL     1      10.639   8.590  16.608  0.00  0.00    +0.194 C 
ENDBRANCH  21   6
ENDBRANCH  20  21
ENDBRANCH  19   8
ENDBRANCH  14  19
TORSDOF 7
ENDMDL
MODEL 7
REMARK VINA RESULT:      -5.7     26.759     28.448
REMARK  Name = 75536576
REMARK  8 active torsions:
REMARK  status: ('A' for Active; 'I' for Inactive)
REMARK    1  A    between atoms: O_4  and  C_11
REMARK    2  A    between atoms: O_6  and  C_21
REMARK    3  A    between atoms: O_6  and  C_22
REMARK    4  A    between atoms: N_7  and  C_9
REMARK    5  A    between atoms: N_7  and  C_10
REMARK    6  A    between atoms: N_8  and  C_19
REMARK    7  A    between atoms: C_14  and  C_19
REMARK    8  A    between atoms: C_20  and  C_21
REMARK                            x       y       z     vdW  Elec       q    Type
REMARK                         _______ _______ _______ _____ _____    ______ ____
ROOT
ATOM      3  O   UNL     1      -2.665 -11.046  17.011  0.00  0.00    -0.371 OA
ATOM      9  C   UNL     1      -3.889 -10.764  14.996  0.00  0.00    +0.111 C 
ATOM     11  C   UNL     1      -4.804 -11.358  16.052  0.00  0.00    +0.164 C 
ATOM     14  C   UNL     1      -4.066 -10.976  17.327  0.00  0.00    +0.165 C 
ATOM     15  C   UNL     1      -2.520 -11.066  15.581  0.00  0.00    +0.181 C 
ENDROOT
BRANCH  11   4
ATOM      4  O   UNL     1      -6.108 -10.812  16.014  0.00  0.00    -0.388 OA
ATOM     24  H   UNL     1      -6.658 -11.290  16.658  0.00  0.00    +0.210 HD
ENDBRANCH  11   4
BRANCH   9   7
ATOM      7  N   UNL     1      -4.079 -11.335  13.673  0.00  0.00    -0.306 NA
ATOM     23  H   UNL     1      -4.993 -11.781  13.609  0.00  0.00    +0.123 HD
BRANCH   7  10
ATOM      1  F   UNL     1      -3.902 -10.678   9.135  0.00  0.00    -0.206 F 
ATOM      2  F   UNL     1      -3.685  -8.529   8.883  0.00  0.00    -0.206 F 
ATOM     10  C   UNL     1      -3.952 -10.306  12.641  0.00  0.00    +0.054 C 
ATOM     12  C   UNL     1      -2.684 -10.551  11.815  0.00  0.00    +0.024 C 
ATOM     13  C   UNL     1      -5.202 -10.303  11.754  0.00  0.00    +0.024 C 
ATOM     16  C   UNL     1      -2.556  -9.535  10.681  0.00  0.00    +0.077 C 
ATOM     17  C   UNL     1      -5.075  -9.288  10.620  0.00  0.00    +0.077 C 
ATOM     18  C   UNL     1      -3.804  -9.507   9.817  0.00  0.00    +0.249 C 
ENDBRANCH   7  10
ENDBRANCH   9   7
BRANCH  14  19
ATOM     19  C   UNL     1      -4.375 -11.894  18.497  0.00  0.00    +0.138 C 
BRANCH  19   8
ATOM      5  O   UNL     1      -6.346 -10.588  20.162  0.00  0.00    -0.273 OA
ATOM      8  N   UNL     1      -5.777 -12.189  18.572  0.00  0.00    -0.311 N 
ATOM     20  C   UNL     1      -6.656 -11.504  19.407  0.00  0.00    +0.239 C 
ATOM     25  H   UNL     1      -6.136 -12.941  17.992  0.00  0.00    +0.149 HD
BRANCH  20  21
ATOM     21  C   UNL     1      -8.074 -12.020  19.283  0.00  0.00    +0.255 C 
BRANCH  21   6
ATOM      6  O   UNL     1      -8.933 -11.333  20.168  0.00  0.00    -0.374 OA
ATOM     22  C   UNL     1      -9.949 -10.616  19.473  0.00  0.00    +0.194 C 
ENDBRANCH  21   6
ENDBRANCH  20  21
ENDBRANCH  19   8
ENDBRANCH  14  19
TORSDOF 7
ENDMDL
MODEL 8
REMARK VINA RESULT:      -5.7      4.766      6.695
REMARK  Name = 75536576
REMARK  8 active torsions:
REMARK  status: ('A' for Active; 'I' for Inactive)
REMARK    1  A    between atoms: O_4  and  C_11
REMARK    2  A    between atoms: O_6  and  C_21
REMARK    3  A    between atoms: O_6  and  C_22
REMARK    4  A    between atoms: N_7  and  C_9
REMARK    5  A    between atoms: N_7  and  C_10
REMARK    6  A    between atoms: N_8  and  C_19
REMARK    7  A    between atoms: C_14  and  C_19
REMARK    8  A    between atoms: C_20  and  C_21
REMARK                            x       y       z     vdW  Elec       q    Type
REMARK                         _______ _______ _______ _____ _____    ______ ____
ROOT
ATOM      3  O   UNL     1      14.238   7.320  18.258  0.00  0.00    -0.371 OA
ATOM      9  C   UNL     1      14.942   6.359  20.312  0.00  0.00    +0.111 C 
ATOM     11  C   UNL     1      13.573   6.986  20.503  0.00  0.00    +0.164 C 
ATOM     14  C   UNL     1      13.078   7.053  19.065  0.00  0.00    +0.165 C 
ATOM     15  C   UNL     1      15.412   7.045  19.040  0.00  0.00    +0.181 C 
ENDROOT
BRANCH  11   4
ATOM      4  O   UNL     1      12.723   6.203  21.318  0.00  0.00    -0.388 OA
ATOM     24  H   UNL     1      13.255   5.825  22.039  0.00  0.00    +0.210 HD
ENDBRANCH  11   4
BRANCH   9   7
ATOM      7  N   UNL     1      15.842   6.569  21.435  0.00  0.00    -0.306 NA
ATOM     23  H   UNL     1      16.118   5.674  21.837  0.00  0.00    +0.123 HD
BRANCH   7  10
ATOM      1  F   UNL     1      19.556   8.753  23.009  0.00  0.00    -0.206 F 
ATOM      2  F   UNL     1      20.582   9.476  21.233  0.00  0.00    -0.206 F 
ATOM     10  C   UNL     1      17.027   7.315  21.016  0.00  0.00    +0.054 C 
ATOM     12  C   UNL     1      16.975   8.738  21.588  0.00  0.00    +0.024 C 
ATOM     13  C   UNL     1      18.292   6.579  21.472  0.00  0.00    +0.024 C 
ATOM     16  C   UNL     1      18.233   9.526  21.230  0.00  0.00    +0.077 C 
ATOM     17  C   UNL     1      19.551   7.367  21.114  0.00  0.00    +0.077 C 
ATOM     18  C   UNL     1      19.491   8.787  21.652  0.00  0.00    +0.249 C 
ENDBRANCH   7  10
ENDBRANCH   9   7
BRANCH  14  19
ATOM     19  C   UNL     1      12.035   8.133  18.839  0.00  0.00    +0.138 C 
BRANCH  19   8
ATOM      5  O   UNL     1      13.087  10.807  19.173  0.00  0.00    -0.273 OA
ATOM      8  N   UNL     1      11.902   8.978  19.991  0.00  0.00    -0.311 N 
ATOM     20  C   UNL     1      12.444  10.259  20.064  0.00  0.00    +0.239 C 
ATOM     25  H   UNL     1      11.395   8.613  20.791  0.00  0.00    +0.149 HD
BRANCH  20  21
ATOM     21  C   UNL     1      12.151  10.925  21.391  0.00  0.00    +0.255 C 
BRANCH  21   6
ATOM      6  O   UNL     1      11.950   9.957  22.400  0.00  0.00    -0.374 OA
ATOM     22  C   UNL     1      10.918  10.339  23.305  0.00  0.00    +0.194 C 
ENDBRANCH  21   6
ENDBRANCH  20  21
ENDBRANCH  19   8
ENDBRANCH  14  19
TORSDOF 7
ENDMDL
MODEL 9
REMARK VINA RESULT:      -5.6     26.368     28.221
REMARK  Name = 75536576
REMARK  8 active torsions:
REMARK  status: ('A' for Active; 'I' for Inactive)
REMARK    1  A    between atoms: O_4  and  C_11
REMARK    2  A    between atoms: O_6  and  C_21
REMARK    3  A    between atoms: O_6  and  C_22
REMARK    4  A    between atoms: N_7  and  C_9
REMARK    5  A    between atoms: N_7  and  C_10
REMARK    6  A    between atoms: N_8  and  C_19
REMARK    7  A    between atoms: C_14  and  C_19
REMARK    8  A    between atoms: C_20  and  C_21
REMARK                            x       y       z     vdW  Elec       q    Type
REMARK                         _______ _______ _______ _____ _____    ______ ____
ROOT
ATOM      3  O   UNL     1     -17.270   3.589  21.944  0.00  0.00    -0.371 OA
ATOM      9  C   UNL     1     -15.682   5.254  22.532  0.00  0.00    +0.111 C 
ATOM     11  C   UNL     1     -16.166   4.564  23.795  0.00  0.00    +0.164 C 
ATOM     14  C   UNL     1     -16.708   3.260  23.226  0.00  0.00    +0.165 C 
ATOM     15  C   UNL     1     -16.776   4.880  21.547  0.00  0.00    +0.181 C 
ENDROOT
BRANCH  11   4
ATOM      4  O   UNL     1     -15.127   4.341  24.728  0.00  0.00    -0.388 OA
ATOM     24  H   UNL     1     -14.285   4.604  24.317  0.00  0.00    +0.210 HD
ENDBRANCH  11   4
BRANCH   9   7
ATOM      7  N   UNL     1     -15.519   6.691  22.680  0.00  0.00    -0.306 NA
ATOM     23  H   UNL     1     -15.752   6.977  23.630  0.00  0.00    +0.123 HD
BRANCH   7  10
ATOM      1  F   UNL     1     -12.596   7.357  19.206  0.00  0.00    -0.206 F 
ATOM      2  F   UNL     1     -10.740   7.994  20.143  0.00  0.00    -0.206 F 
ATOM     10  C   UNL     1     -14.149   7.092  22.361  0.00  0.00    +0.054 C 
ATOM     12  C   UNL     1     -13.421   5.942  21.656  0.00  0.00    +0.024 C 
ATOM     13  C   UNL     1     -14.167   8.355  21.492  0.00  0.00    +0.024 C 
ATOM     16  C   UNL     1     -12.008   6.350  21.244  0.00  0.00    +0.077 C 
ATOM     17  C   UNL     1     -12.754   8.764  21.079  0.00  0.00    +0.077 C 
ATOM     18  C   UNL     1     -12.017   7.617  20.407  0.00  0.00    +0.249 C 
ENDBRANCH   7  10
ENDBRANCH   9   7
BRANCH  14  19
ATOM     19  C   UNL     1     -17.770   2.619  24.103  0.00  0.00    +0.138 C 
BRANCH  19   8
ATOM      5  O   UNL     1     -16.648   0.373  25.540  0.00  0.00    -0.273 OA
ATOM      8  N   UNL     1     -17.362   2.588  25.478  0.00  0.00    -0.311 N 
ATOM     20  C   UNL     1     -16.829   1.456  26.089  0.00  0.00    +0.239 C 
ATOM     25  H   UNL     1     -17.479   3.434  26.027  0.00  0.00    +0.149 HD
BRANCH  20  21
ATOM     21  C   UNL     1     -16.484   1.705  27.542  0.00  0.00    +0.255 C 
BRANCH  21   6
ATOM      6  O   UNL     1     -16.041   0.515  28.160  0.00  0.00    -0.374 OA
ATOM     22  C   UNL     1     -15.324   0.776  29.363  0.00  0.00    +0.194 C 
ENDBRANCH  21   6
ENDBRANCH  20  21
ENDBRANCH  19   8
ENDBRANCH  14  19
TORSDOF 7
ENDMDL
MODEL 10
REMARK VINA RESULT:      -5.6     26.718     27.678
REMARK  Name = 75536576
REMARK  8 active torsions:
REMARK  status: ('A' for Active; 'I' for Inactive)
REMARK    1  A    between atoms: O_4  and  C_11
REMARK    2  A    between atoms: O_6  and  C_21
REMARK    3  A    between atoms: O_6  and  C_22
REMARK    4  A    between atoms: N_7  and  C_9
REMARK    5  A    between atoms: N_7  and  C_10
REMARK    6  A    between atoms: N_8  and  C_19
REMARK    7  A    between atoms: C_14  and  C_19
REMARK    8  A    between atoms: C_20  and  C_21
REMARK                            x       y       z     vdW  Elec       q    Type
REMARK                         _______ _______ _______ _____ _____    ______ ____
ROOT
ATOM      3  O   UNL     1      -3.896 -10.313  13.870  0.00  0.00    -0.371 OA
ATOM      9  C   UNL     1      -3.398 -10.887  16.120  0.00  0.00    +0.111 C 
ATOM     11  C   UNL     1      -2.317 -11.448  15.215  0.00  0.00    +0.164 C 
ATOM     14  C   UNL     1      -2.487 -10.576  13.979  0.00  0.00    +0.165 C 
ATOM     15  C   UNL     1      -4.519 -10.632  15.126  0.00  0.00    +0.181 C 
ENDROOT
BRANCH  11   4
ATOM      4  O   UNL     1      -1.022 -11.327  15.772  0.00  0.00    -0.388 OA
ATOM     24  H   UNL     1      -0.380 -11.677  15.130  0.00  0.00    +0.210 HD
ENDBRANCH  11   4
BRANCH   9   7
ATOM      7  N   UNL     1      -3.786 -11.788  17.193  0.00  0.00    -0.306 NA
ATOM     23  H   UNL     1      -3.206 -11.628  18.015  0.00  0.00    +0.123 HD
BRANCH   7  10
ATOM      1  F   UNL     1      -6.861 -12.388  20.545  0.00  0.00    -0.206 F 
ATOM      2  F   UNL     1      -8.741 -11.665  19.724  0.00  0.00    -0.206 F 
ATOM     10  C   UNL     1      -5.196 -11.609  17.535  0.00  0.00    +0.054 C 
ATOM     12  C   UNL     1      -5.833 -12.970  17.846  0.00  0.00    +0.024 C 
ATOM     13  C   UNL     1      -5.325 -10.651  18.725  0.00  0.00    +0.024 C 
ATOM     16  C   UNL     1      -7.290 -12.815  18.277  0.00  0.00    +0.077 C 
ATOM     17  C   UNL     1      -6.782 -10.496  19.157  0.00  0.00    +0.077 C 
ATOM     18  C   UNL     1      -7.426 -11.843  19.436  0.00  0.00    +0.249 C 
ENDBRANCH   7  10
ENDBRANCH   9   7
BRANCH  14  19
ATOM     19  C   UNL     1      -1.988 -11.236  12.706  0.00  0.00    +0.138 C 
BRANCH  19   8
ATOM      5  O   UNL     1      -1.874  -9.160  10.695  0.00  0.00    -0.273 OA
ATOM      8  N   UNL     1      -2.903 -11.031  11.620  0.00  0.00    -0.311 N 
ATOM     20  C   UNL     1      -2.769 -10.000  10.694  0.00  0.00    +0.239 C 
ATOM     25  H   UNL     1      -3.689 -11.669  11.535  0.00  0.00    +0.149 HD
BRANCH  20  21
ATOM     21  C   UNL     1      -3.872 -10.022   9.656  0.00  0.00    +0.255 C 
BRANCH  21   6
ATOM      6  O   UNL     1      -5.126  -9.775  10.257  0.00  0.00    -0.374 OA
ATOM     22  C   UNL     1      -5.305  -8.396  10.566  0.00  0.00    +0.194 C 
ENDBRANCH  21   6
ENDBRANCH  20  21
ENDBRANCH  19   8
ENDBRANCH  14  19
TORSDOF 7
ENDMDL
