REMARK  Name = 45361078
REMARK  8 active torsions:
REMARK  status: ('A' for Active; 'I' for Inactive)
REMARK    1  A    between atoms: O_4  and  C_30
REMARK    2  A    between atoms: O_4  and  C_31
REMARK    3  A    between atoms: N_5  and  C_18
REMARK    4  A    between atoms: N_6  and  C_17
REMARK    5  A    between atoms: C_13  and  C_16
REMARK    6  A    between atoms: C_16  and  C_19
REMARK    7  A    between atoms: C_17  and  C_20
REMARK    8  A    between atoms: C_19  and  C_21
REMARK                            x       y       z     vdW  Elec       q    Type
REMARK                         _______ _______ _______ _____ _____    ______ ____
ROOT
ATOM      1  O   UNL     1       0.460  -0.386   1.415  0.00  0.00    -0.274 OA
ATOM      5  N   UNL     1      -1.330   2.125  -0.925  0.00  0.00    -0.296 NA
ATOM      6  N   UNL     1       2.096   1.141  -0.096  0.00  0.00    -0.286 NA
ATOM      7  N   UNL     1      -1.055   1.280   1.820  0.00  0.00    -0.312 N 
ATOM      9  C   UNL     1       0.126   2.364  -0.816  0.00  0.00    +0.084 C 
ATOM     10  C   UNL     1       0.880   1.796   0.422  0.00  0.00    +0.161 C 
ATOM     11  C   UNL     1       0.944   1.781  -1.984  0.00  0.00    +0.036 C 
ATOM     12  C   UNL     1       2.347   1.694  -1.422  0.00  0.00    +0.087 C 
ATOM     13  C   UNL     1      -2.140   2.757   0.153  0.00  0.00    +0.074 C 
ATOM     14  C   UNL     1       0.096   0.776   1.244  0.00  0.00    +0.232 C 
ATOM     15  C   UNL     1      -1.554   2.618   1.572  0.00  0.00    +0.123 C 
ATOM     18  C   UNL     1      -1.831   2.537  -2.247  0.00  0.00    +0.105 C 
ATOM     32  H   UNL     1      -1.581   0.674   2.443  0.00  0.00    +0.149 HD
ENDROOT
BRANCH  13  16
ATOM     16  C   UNL     1      -3.563   2.160   0.179  0.00  0.00    +0.029 C 
BRANCH  16  19
ATOM     19  C   UNL     1      -3.542   0.644   0.162  0.00  0.00    +0.097 C 
BRANCH  19  21
ATOM      2  O   UNL     1      -5.902   0.847   0.259  0.00  0.00    -0.276 OA
ATOM      3  O   UNL     1      -5.383  -4.002  -0.561  0.00  0.00    -0.377 OA
ATOM      8  N   UNL     1      -5.048  -1.311   0.204  0.00  0.00    -0.297 N 
ATOM     21  C   UNL     1      -4.939   0.078   0.215  0.00  0.00    +0.216 C 
ATOM     24  C   UNL     1      -6.367  -1.942   0.248  0.00  0.00    +0.136 C 
ATOM     25  C   UNL     1      -3.926  -2.253   0.280  0.00  0.00    +0.136 C 
ATOM     28  C   UNL     1      -6.448  -3.071  -0.770  0.00  0.00    +0.179 C 
ATOM     29  C   UNL     1      -4.110  -3.374  -0.736  0.00  0.00    +0.179 C 
ENDBRANCH  19  21
ENDBRANCH  16  19
ENDBRANCH  13  16
BRANCH   6  17
ATOM     17  C   UNL     1       3.248   1.283   0.785  0.00  0.00    +0.120 C 
BRANCH  17  20
ATOM     20  C   UNL     1       4.286   0.224   0.525  0.00  0.00    -0.033 A 
ATOM     22  C   UNL     1       4.086  -1.077   0.988  0.00  0.00    +0.008 A 
ATOM     23  C   UNL     1       5.447   0.543  -0.178  0.00  0.00    +0.008 A 
ATOM     26  C   UNL     1       5.048  -2.058   0.747  0.00  0.00    +0.046 A 
ATOM     27  C   UNL     1       6.409  -0.438  -0.419  0.00  0.00    +0.046 A 
ATOM     30  C   UNL     1       6.209  -1.739   0.044  0.00  0.00    +0.120 A 
BRANCH  30   4
ATOM      4  O   UNL     1       7.147  -2.696  -0.192  0.00  0.00    -0.495 OA
ATOM     31  C   UNL     1       8.310  -2.301  -0.917  0.00  0.00    +0.277 C 
ENDBRANCH  30   4
ENDBRANCH  17  20
ENDBRANCH   6  17
TORSDOF 6
