REMARK  Name = 51137154
REMARK  4 active torsions:
REMARK  status: ('A' for Active; 'I' for Inactive)
REMARK    1  A    between atoms: N_3  and  C_10
REMARK    2  A    between atoms: C_6  and  C_11
REMARK    3  A    between atoms: C_10  and  C_12
REMARK    4  A    between atoms: C_15  and  C_18
REMARK                            x       y       z     vdW  Elec       q    Type
REMARK                         _______ _______ _______ _____ _____    ______ ____
ROOT
ATOM      3  N   UNL     1      -0.558  -0.064  -0.058  0.00  0.00    -0.297 NA
ATOM      6  C   UNL     1       1.694  -0.246   0.573  0.00  0.00    +0.092 C 
ATOM      7  C   UNL     1       1.019   0.871   1.389  0.00  0.00    +0.029 C 
ATOM      8  C   UNL     1       0.730  -0.512  -0.591  0.00  0.00    +0.097 C 
ATOM      9  C   UNL     1      -0.264   1.192   0.633  0.00  0.00    +0.085 C 
ENDROOT
BRANCH   6  11
ATOM      2  O   UNL     1       4.083  -0.775   0.542  0.00  0.00    -0.425 OA
ATOM      4  N   UNL     1       3.536   1.038  -0.648  0.00  0.00    -0.112 NA
ATOM      5  N   UNL     1       4.902   0.856  -0.752  0.00  0.00    -0.113 NA
ATOM     11  C   UNL     1       3.100   0.064   0.116  0.00  0.00    +0.222 A 
ATOM     15  C   UNL     1       5.177  -0.213  -0.042  0.00  0.00    +0.214 A 
ATOM     18  C   UNL     1       6.468  -0.870   0.199  0.00  0.00    +0.111 C 
ENDBRANCH   6  11
BRANCH   3  10
ATOM     10  C   UNL     1      -1.563   0.098  -1.097  0.00  0.00    +0.121 C 
BRANCH  10  12
ATOM      1 CL   UNL     1      -2.825  -2.579  -0.214  0.00  0.00    -0.083 Cl
ATOM     12  C   UNL     1      -2.958   0.125  -0.529  0.00  0.00    -0.015 A 
ATOM     13  C   UNL     1      -3.599  -1.040  -0.107  0.00  0.00    +0.045 A 
ATOM     14  C   UNL     1      -3.608   1.355  -0.430  0.00  0.00    +0.006 A 
ATOM     16  C   UNL     1      -4.891  -0.975   0.414  0.00  0.00    +0.020 A 
ATOM     17  C   UNL     1      -4.901   1.420   0.091  0.00  0.00    +0.000 A 
ATOM     19  C   UNL     1      -5.542   0.255   0.513  0.00  0.00    +0.001 A 
ENDBRANCH  10  12
ENDBRANCH   3  10
TORSDOF 3
