MODEL 1
REMARK VINA RESULT:      -6.9      0.000      0.000
REMARK  Name = 75368505
REMARK  4 active torsions:
REMARK  status: ('A' for Active; 'I' for Inactive)
REMARK    1  A    between atoms: O_4  and  C_24
REMARK    2  A    between atoms: O_4  and  C_27
REMARK    3  A    between atoms: N_5  and  C_11
REMARK    4  A    between atoms: N_8  and  C_21
REMARK                            x       y       z     vdW  Elec       q    Type
REMARK                         _______ _______ _______ _____ _____    ______ ____
ROOT
ATOM      2  O   UNL     1      23.267   7.230  22.195  0.00  0.00    -0.252 OA
ATOM      3  O   UNL     1      16.825   9.413  20.968  0.00  0.00    -0.252 OA
ATOM      5  N   UNL     1      22.286   5.358  21.146  0.00  0.00    -0.280 N 
ATOM      6  N   UNL     1      21.070   7.236  21.362  0.00  0.00    -0.278 N 
ATOM      7  N   UNL     1      18.330   7.695  21.324  0.00  0.00    -0.282 N 
ATOM      8  N   UNL     1      16.465   7.377  19.916  0.00  0.00    -0.269 N 
ATOM      9  C   UNL     1      20.230   6.341  20.582  0.00  0.00    +0.112 C 
ATOM     10  C   UNL     1      20.973   5.008  20.636  0.00  0.00    +0.133 C 
ATOM     12  C   UNL     1      18.820   6.311  21.160  0.00  0.00    +0.133 C 
ATOM     13  C   UNL     1      20.606   8.576  21.677  0.00  0.00    +0.128 C 
ATOM     14  C   UNL     1      22.328   6.679  21.635  0.00  0.00    +0.305 C 
ATOM     15  C   UNL     1      19.171   8.524  22.203  0.00  0.00    +0.128 C 
ATOM     20  C   UNL     1      17.164   8.246  20.752  0.00  0.00    +0.307 C 
ATOM     28  H   UNL     1      16.989   6.655  19.433  0.00  0.00    +0.156 HD
ENDROOT
BRANCH   5  11
ATOM      1  O   UNL     1      24.772   2.155  20.124  0.00  0.00    -0.380 OA
ATOM     11  C   UNL     1      23.348   4.388  21.251  0.00  0.00    +0.082 C 
ATOM     16  C   UNL     1      24.347   4.547  20.105  0.00  0.00    +0.050 C 
ATOM     17  C   UNL     1      22.794   2.963  21.278  0.00  0.00    +0.050 C 
ATOM     18  C   UNL     1      25.393   3.440  20.146  0.00  0.00    +0.161 C 
ATOM     19  C   UNL     1      23.927   1.946  21.256  0.00  0.00    +0.161 C 
ENDBRANCH   5  11
BRANCH   8  21
ATOM     21  C   UNL     1      15.069   7.356  19.672  0.00  0.00    +0.038 A 
ATOM     22  C   UNL     1      14.193   6.935  20.673  0.00  0.00    +0.069 A 
ATOM     23  C   UNL     1      14.572   7.755  18.432  0.00  0.00    +0.023 A 
ATOM     24  C   UNL     1      12.819   6.914  20.432  0.00  0.00    +0.122 A 
ATOM     25  C   UNL     1      13.198   7.734  18.191  0.00  0.00    +0.005 A 
ATOM     26  C   UNL     1      12.322   7.313  19.192  0.00  0.00    +0.046 A 
BRANCH  24   4
ATOM      4  O   UNL     1      11.965   6.501  21.409  0.00  0.00    -0.495 OA
ATOM     27  C   UNL     1      10.744   7.226  21.550  0.00  0.00    +0.277 C 
ENDBRANCH  24   4
ENDBRANCH   8  21
TORSDOF 3
ENDMDL
MODEL 2
REMARK VINA RESULT:      -6.8     33.159     35.979
REMARK  Name = 75368505
REMARK  4 active torsions:
REMARK  status: ('A' for Active; 'I' for Inactive)
REMARK    1  A    between atoms: O_4  and  C_24
REMARK    2  A    between atoms: O_4  and  C_27
REMARK    3  A    between atoms: N_5  and  C_11
REMARK    4  A    between atoms: N_8  and  C_21
REMARK                            x       y       z     vdW  Elec       q    Type
REMARK                         _______ _______ _______ _____ _____    ______ ____
ROOT
ATOM      2  O   UNL     1     -17.560   3.244  21.890  0.00  0.00    -0.252 OA
ATOM      3  O   UNL     1     -17.505   0.522  28.242  0.00  0.00    -0.252 OA
ATOM      5  N   UNL     1     -15.727   4.337  22.895  0.00  0.00    -0.280 N 
ATOM      6  N   UNL     1     -16.820   2.759  24.066  0.00  0.00    -0.278 N 
ATOM      7  N   UNL     1     -16.992   2.247  26.792  0.00  0.00    -0.282 N 
ATOM      8  N   UNL     1     -15.594   1.778  28.632  0.00  0.00    -0.269 N 
ATOM      9  C   UNL     1     -15.698   3.134  24.912  0.00  0.00    +0.112 C 
ATOM     10  C   UNL     1     -15.103   4.350  24.206  0.00  0.00    +0.133 C 
ATOM     12  C   UNL     1     -16.179   3.393  26.335  0.00  0.00    +0.133 C 
ATOM     13  C   UNL     1     -17.744   1.726  24.502  0.00  0.00    +0.128 C 
ATOM     14  C   UNL     1     -16.797   3.421  22.830  0.00  0.00    +0.305 C 
ATOM     15  C   UNL     1     -18.168   1.978  25.949  0.00  0.00    +0.128 C 
ATOM     20  C   UNL     1     -16.751   1.448  27.930  0.00  0.00    +0.307 C 
ATOM     28  H   UNL     1     -14.824   2.192  28.116  0.00  0.00    +0.156 HD
ENDROOT
BRANCH   5  11
ATOM      1  O   UNL     1     -14.351   7.866  21.125  0.00  0.00    -0.380 OA
ATOM     11  C   UNL     1     -15.355   5.271  21.862  0.00  0.00    +0.082 C 
ATOM     16  C   UNL     1     -13.875   5.637  21.966  0.00  0.00    +0.050 C 
ATOM     17  C   UNL     1     -16.219   6.532  21.920  0.00  0.00    +0.050 C 
ATOM     18  C   UNL     1     -13.517   6.720  20.956  0.00  0.00    +0.161 C 
ATOM     19  C   UNL     1     -15.731   7.563  20.912  0.00  0.00    +0.161 C 
ENDBRANCH   5  11
BRANCH   8  21
ATOM     21  C   UNL     1     -15.361   1.631  30.022  0.00  0.00    +0.038 A 
ATOM     22  C   UNL     1     -15.481   2.732  30.869  0.00  0.00    +0.069 A 
ATOM     23  C   UNL     1     -15.012   0.384  30.543  0.00  0.00    +0.023 A 
ATOM     24  C   UNL     1     -15.250   2.587  32.238  0.00  0.00    +0.122 A 
ATOM     25  C   UNL     1     -14.781   0.239  31.911  0.00  0.00    +0.005 A 
ATOM     26  C   UNL     1     -14.901   1.341  32.758  0.00  0.00    +0.046 A 
BRANCH  24   4
ATOM      4  O   UNL     1     -15.366   3.663  33.064  0.00  0.00    -0.495 OA
ATOM     27  C   UNL     1     -14.175   4.119  33.704  0.00  0.00    +0.277 C 
ENDBRANCH  24   4
ENDBRANCH   8  21
TORSDOF 3
ENDMDL
MODEL 3
REMARK VINA RESULT:      -6.6     29.123     31.907
REMARK  Name = 75368505
REMARK  4 active torsions:
REMARK  status: ('A' for Active; 'I' for Inactive)
REMARK    1  A    between atoms: O_4  and  C_24
REMARK    2  A    between atoms: O_4  and  C_27
REMARK    3  A    between atoms: N_5  and  C_11
REMARK    4  A    between atoms: N_8  and  C_21
REMARK                            x       y       z     vdW  Elec       q    Type
REMARK                         _______ _______ _______ _____ _____    ______ ____
ROOT
ATOM      2  O   UNL     1      -6.710 -11.496  20.334  0.00  0.00    -0.252 OA
ATOM      3  O   UNL     1      -3.096 -10.638  14.506  0.00  0.00    -0.252 OA
ATOM      5  N   UNL     1      -8.395 -11.006  18.758  0.00  0.00    -0.280 N 
ATOM      6  N   UNL     1      -6.270 -11.180  18.048  0.00  0.00    -0.278 N 
ATOM      7  N   UNL     1      -4.979 -10.224  15.781  0.00  0.00    -0.282 N 
ATOM      8  N   UNL     1      -5.131 -10.346  13.431  0.00  0.00    -0.269 N 
ATOM      9  C   UNL     1      -7.050 -10.998  16.834  0.00  0.00    +0.112 C 
ATOM     10  C   UNL     1      -8.447 -10.663  17.349  0.00  0.00    +0.133 C 
ATOM     12  C   UNL     1      -6.414  -9.923  15.961  0.00  0.00    +0.133 C 
ATOM     13  C   UNL     1      -4.830 -11.356  17.966  0.00  0.00    +0.128 C 
ATOM     14  C   UNL     1      -7.079 -11.261  19.191  0.00  0.00    +0.305 C 
ATOM     15  C   UNL     1      -4.224 -10.299  17.042  0.00  0.00    +0.128 C 
ATOM     20  C   UNL     1      -4.308 -10.411  14.554  0.00  0.00    +0.307 C 
ATOM     28  H   UNL     1      -6.104 -10.612  13.536  0.00  0.00    +0.156 HD
ENDROOT
BRANCH   5  11
ATOM      1  O   UNL     1     -12.392 -11.335  19.942  0.00  0.00    -0.380 OA
ATOM     11  C   UNL     1      -9.561 -10.940  19.604  0.00  0.00    +0.082 C 
ATOM     16  C   UNL     1     -10.178 -12.325  19.792  0.00  0.00    +0.050 C 
ATOM     17  C   UNL     1     -10.599  -9.968  19.039  0.00  0.00    +0.050 C 
ATOM     18  C   UNL     1     -11.481 -12.232  20.577  0.00  0.00    +0.161 C 
ATOM     19  C   UNL     1     -11.876 -10.006  19.867  0.00  0.00    +0.161 C 
ENDBRANCH   5  11
BRANCH   8  21
ATOM     21  C   UNL     1      -4.775  -9.914  12.129  0.00  0.00    +0.038 A 
ATOM     22  C   UNL     1      -5.676  -9.165  11.373  0.00  0.00    +0.069 A 
ATOM     23  C   UNL     1      -3.524 -10.237  11.604  0.00  0.00    +0.023 A 
ATOM     24  C   UNL     1      -5.327  -8.741  10.091  0.00  0.00    +0.122 A 
ATOM     25  C   UNL     1      -3.174  -9.812  10.322  0.00  0.00    +0.005 A 
ATOM     26  C   UNL     1      -4.075  -9.064   9.566  0.00  0.00    +0.046 A 
BRANCH  24   4
ATOM      4  O   UNL     1      -6.208  -8.011   9.352  0.00  0.00    -0.495 OA
ATOM     27  C   UNL     1      -7.578  -8.405   9.403  0.00  0.00    +0.277 C 
ENDBRANCH  24   4
ENDBRANCH   8  21
TORSDOF 3
ENDMDL
MODEL 4
REMARK VINA RESULT:      -6.3     31.047     35.041
REMARK  Name = 75368505
REMARK  4 active torsions:
REMARK  status: ('A' for Active; 'I' for Inactive)
REMARK    1  A    between atoms: O_4  and  C_24
REMARK    2  A    between atoms: O_4  and  C_27
REMARK    3  A    between atoms: N_5  and  C_11
REMARK    4  A    between atoms: N_8  and  C_21
REMARK                            x       y       z     vdW  Elec       q    Type
REMARK                         _______ _______ _______ _____ _____    ______ ____
ROOT
ATOM      2  O   UNL     1     -16.322   6.039  19.715  0.00  0.00    -0.252 OA
ATOM      3  O   UNL     1     -18.107   2.788  25.547  0.00  0.00    -0.252 OA
ATOM      5  N   UNL     1     -14.396   6.298  21.052  0.00  0.00    -0.280 N 
ATOM      6  N   UNL     1     -16.112   5.087  21.853  0.00  0.00    -0.278 N 
ATOM      7  N   UNL     1     -16.840   4.370  24.437  0.00  0.00    -0.282 N 
ATOM      8  N   UNL     1     -15.964   3.239  26.311  0.00  0.00    -0.269 N 
ATOM      9  C   UNL     1     -15.065   4.947  22.852  0.00  0.00    +0.112 C 
ATOM     10  C   UNL     1     -14.001   5.945  22.403  0.00  0.00    +0.133 C 
ATOM     12  C   UNL     1     -15.633   5.199  24.244  0.00  0.00    +0.133 C 
ATOM     13  C   UNL     1     -17.382   4.404  22.032  0.00  0.00    +0.128 C 
ATOM     14  C   UNL     1     -15.689   5.831  20.742  0.00  0.00    +0.305 C 
ATOM     15  C   UNL     1     -17.903   4.628  23.452  0.00  0.00    +0.128 C 
ATOM     20  C   UNL     1     -17.050   3.417  25.456  0.00  0.00    +0.307 C 
ATOM     28  H   UNL     1     -15.034   3.409  25.943  0.00  0.00    +0.156 HD
ENDROOT
BRANCH   5  11
ATOM      1  O   UNL     1     -11.674   9.288  19.990  0.00  0.00    -0.380 OA
ATOM     11  C   UNL     1     -13.586   7.149  20.217  0.00  0.00    +0.082 C 
ATOM     16  C   UNL     1     -12.100   6.956  20.520  0.00  0.00    +0.050 C 
ATOM     17  C   UNL     1     -13.975   8.619  20.383  0.00  0.00    +0.050 C 
ATOM     18  C   UNL     1     -11.257   7.949  19.730  0.00  0.00    +0.161 C 
ATOM     19  C   UNL     1     -13.028   9.517  19.599  0.00  0.00    +0.161 C 
ENDBRANCH   5  11
BRANCH   8  21
ATOM     21  C   UNL     1     -15.999   2.866  27.678  0.00  0.00    +0.038 A 
ATOM     22  C   UNL     1     -15.947   1.519  28.034  0.00  0.00    +0.069 A 
ATOM     23  C   UNL     1     -16.084   3.847  28.666  0.00  0.00    +0.023 A 
ATOM     24  C   UNL     1     -15.982   1.152  29.380  0.00  0.00    +0.122 A 
ATOM     25  C   UNL     1     -16.120   3.480  30.012  0.00  0.00    +0.005 A 
ATOM     26  C   UNL     1     -16.068   2.133  30.368  0.00  0.00    +0.046 A 
BRANCH  24   4
ATOM      4  O   UNL     1     -15.933  -0.163  29.727  0.00  0.00    -0.495 OA
ATOM     27  C   UNL     1     -15.319  -0.482  30.975  0.00  0.00    +0.277 C 
ENDBRANCH  24   4
ENDBRANCH   8  21
TORSDOF 3
ENDMDL
MODEL 5
REMARK VINA RESULT:      -6.3     29.260     31.497
REMARK  Name = 75368505
REMARK  4 active torsions:
REMARK  status: ('A' for Active; 'I' for Inactive)
REMARK    1  A    between atoms: O_4  and  C_24
REMARK    2  A    between atoms: O_4  and  C_27
REMARK    3  A    between atoms: N_5  and  C_11
REMARK    4  A    between atoms: N_8  and  C_21
REMARK                            x       y       z     vdW  Elec       q    Type
REMARK                         _______ _______ _______ _____ _____    ______ ____
ROOT
ATOM      2  O   UNL     1      -4.508  -9.236   8.491  0.00  0.00    -0.252 OA
ATOM      3  O   UNL     1      -2.737 -10.866  14.970  0.00  0.00    -0.252 OA
ATOM      5  N   UNL     1      -6.531  -8.932   9.664  0.00  0.00    -0.280 N 
ATOM      6  N   UNL     1      -4.688  -9.495  10.819  0.00  0.00    -0.278 N 
ATOM      7  N   UNL     1      -4.339 -10.662  13.317  0.00  0.00    -0.282 N 
ATOM      8  N   UNL     1      -4.901 -10.292  15.577  0.00  0.00    -0.269 N 
ATOM      9  C   UNL     1      -5.705  -9.271  11.835  0.00  0.00    +0.112 C 
ATOM     10  C   UNL     1      -6.991  -9.109  11.029  0.00  0.00    +0.133 C 
ATOM     12  C   UNL     1      -5.714 -10.426  12.829  0.00  0.00    +0.133 C 
ATOM     13  C   UNL     1      -3.337  -9.858  11.213  0.00  0.00    +0.128 C 
ATOM     14  C   UNL     1      -5.158  -9.219   9.527  0.00  0.00    +0.305 C 
ATOM     15  C   UNL     1      -3.376 -10.980  12.251  0.00  0.00    +0.128 C 
ATOM     20  C   UNL     1      -3.908 -10.631  14.660  0.00  0.00    +0.307 C 
ATOM     28  H   UNL     1      -5.658  -9.694  15.261  0.00  0.00    +0.156 HD
ENDROOT
BRANCH   5  11
ATOM      1  O   UNL     1      -9.929  -7.496   7.695  0.00  0.00    -0.380 OA
ATOM     11  C   UNL     1      -7.440  -8.635   8.584  0.00  0.00    +0.082 C 
ATOM     16  C   UNL     1      -7.648  -7.127   8.445  0.00  0.00    +0.050 C 
ATOM     17  C   UNL     1      -8.783  -9.340   8.783  0.00  0.00    +0.050 C 
ATOM     18  C   UNL     1      -8.707  -6.825   7.392  0.00  0.00    +0.161 C 
ATOM     19  C   UNL     1      -9.776  -8.915   7.710  0.00  0.00    +0.161 C 
ENDBRANCH   5  11
BRANCH   8  21
ATOM     21  C   UNL     1      -5.005 -10.711  16.926  0.00  0.00    +0.038 A 
ATOM     22  C   UNL     1      -6.190 -10.505  17.631  0.00  0.00    +0.069 A 
ATOM     23  C   UNL     1      -3.921 -11.331  17.549  0.00  0.00    +0.023 A 
ATOM     24  C   UNL     1      -6.292 -10.917  18.960  0.00  0.00    +0.122 A 
ATOM     25  C   UNL     1      -4.023 -11.743  18.878  0.00  0.00    +0.005 A 
ATOM     26  C   UNL     1      -5.208 -11.537  19.583  0.00  0.00    +0.046 A 
BRANCH  24   4
ATOM      4  O   UNL     1      -7.449 -10.713  19.649  0.00  0.00    -0.495 OA
ATOM     27  C   UNL     1      -8.667 -10.814  18.912  0.00  0.00    +0.277 C 
ENDBRANCH  24   4
ENDBRANCH   8  21
TORSDOF 3
ENDMDL
MODEL 6
REMARK VINA RESULT:      -6.3     28.133     32.669
REMARK  Name = 75368505
REMARK  4 active torsions:
REMARK  status: ('A' for Active; 'I' for Inactive)
REMARK    1  A    between atoms: O_4  and  C_24
REMARK    2  A    between atoms: O_4  and  C_27
REMARK    3  A    between atoms: N_5  and  C_11
REMARK    4  A    between atoms: N_8  and  C_21
REMARK                            x       y       z     vdW  Elec       q    Type
REMARK                         _______ _______ _______ _____ _____    ______ ____
ROOT
ATOM      2  O   UNL     1     -11.480  -9.521  18.994  0.00  0.00    -0.252 OA
ATOM      3  O   UNL     1      -5.149 -12.186  18.231  0.00  0.00    -0.252 OA
ATOM      5  N   UNL     1     -10.785  -8.600  16.936  0.00  0.00    -0.280 N 
ATOM      6  N   UNL     1      -9.429 -10.057  17.981  0.00  0.00    -0.278 N 
ATOM      7  N   UNL     1      -6.698 -10.530  17.785  0.00  0.00    -0.282 N 
ATOM      8  N   UNL     1      -5.078 -11.115  16.174  0.00  0.00    -0.269 N 
ATOM      9  C   UNL     1      -8.770  -9.784  16.713  0.00  0.00    +0.112 C 
ATOM     10  C   UNL     1      -9.584  -8.636  16.122  0.00  0.00    +0.133 C 
ATOM     12  C   UNL     1      -7.297  -9.470  16.947  0.00  0.00    +0.133 C 
ATOM     13  C   UNL     1      -8.837 -10.994  18.920  0.00  0.00    +0.128 C 
ATOM     14  C   UNL     1     -10.669  -9.410  18.084  0.00  0.00    +0.305 C 
ATOM     15  C   UNL     1      -7.348 -10.691  19.095  0.00  0.00    +0.128 C 
ATOM     20  C   UNL     1      -5.592 -11.339  17.450  0.00  0.00    +0.307 C 
ATOM     28  H   UNL     1      -5.713 -10.781  15.456  0.00  0.00    +0.156 HD
ENDROOT
BRANCH   5  11
ATOM      1  O   UNL     1     -13.819  -6.729  14.751  0.00  0.00    -0.380 OA
ATOM     11  C   UNL     1     -11.882  -7.714  16.639  0.00  0.00    +0.082 C 
ATOM     16  C   UNL     1     -13.135  -8.504  16.262  0.00  0.00    +0.050 C 
ATOM     17  C   UNL     1     -11.516  -6.735  15.522  0.00  0.00    +0.050 C 
ATOM     18  C   UNL     1     -14.252  -7.565  15.824  0.00  0.00    +0.161 C 
ATOM     19  C   UNL     1     -12.723  -5.895  15.127  0.00  0.00    +0.161 C 
ENDBRANCH   5  11
BRANCH   8  21
ATOM     21  C   UNL     1      -3.736 -11.273  15.748  0.00  0.00    +0.038 A 
ATOM     22  C   UNL     1      -3.422 -12.217  14.770  0.00  0.00    +0.069 A 
ATOM     23  C   UNL     1      -2.730 -10.485  16.306  0.00  0.00    +0.023 A 
ATOM     24  C   UNL     1      -2.100 -12.373  14.352  0.00  0.00    +0.122 A 
ATOM     25  C   UNL     1      -1.408 -10.642  15.888  0.00  0.00    +0.005 A 
ATOM     26  C   UNL     1      -1.094 -11.585  14.910  0.00  0.00    +0.046 A 
BRANCH  24   4
ATOM      4  O   UNL     1      -1.794 -13.296  13.398  0.00  0.00    -0.495 OA
ATOM     27  C   UNL     1      -1.827 -14.668  13.790  0.00  0.00    +0.277 C 
ENDBRANCH  24   4
ENDBRANCH   8  21
TORSDOF 3
ENDMDL
MODEL 7
REMARK VINA RESULT:      -6.3     27.847     31.352
REMARK  Name = 75368505
REMARK  4 active torsions:
REMARK  status: ('A' for Active; 'I' for Inactive)
REMARK    1  A    between atoms: O_4  and  C_24
REMARK    2  A    between atoms: O_4  and  C_27
REMARK    3  A    between atoms: N_5  and  C_11
REMARK    4  A    between atoms: N_8  and  C_21
REMARK                            x       y       z     vdW  Elec       q    Type
REMARK                         _______ _______ _______ _____ _____    ______ ____
ROOT
ATOM      2  O   UNL     1      -4.694 -12.032  18.901  0.00  0.00    -0.252 OA
ATOM      3  O   UNL     1     -10.846  -8.900  18.572  0.00  0.00    -0.252 OA
ATOM      5  N   UNL     1      -4.630 -11.005  16.778  0.00  0.00    -0.280 N 
ATOM      6  N   UNL     1      -6.421 -10.659  18.092  0.00  0.00    -0.278 N 
ATOM      7  N   UNL     1      -9.018  -9.848  17.525  0.00  0.00    -0.282 N 
ATOM      8  N   UNL     1     -10.169  -8.053  16.522  0.00  0.00    -0.269 N 
ATOM      9  C   UNL     1      -6.641  -9.804  16.936  0.00  0.00    +0.112 C 
ATOM     10  C   UNL     1      -5.537 -10.216  15.965  0.00  0.00    +0.133 C 
ATOM     12  C   UNL     1      -8.059  -9.992  16.410  0.00  0.00    +0.133 C 
ATOM     13  C   UNL     1      -7.384 -10.673  19.179  0.00  0.00    +0.128 C 
ATOM     14  C   UNL     1      -5.185 -11.319  18.035  0.00  0.00    +0.305 C 
ATOM     15  C   UNL     1      -8.802 -10.806  18.621  0.00  0.00    +0.128 C 
ATOM     20  C   UNL     1     -10.083  -8.927  17.603  0.00  0.00    +0.307 C 
ATOM     28  H   UNL     1      -9.315  -7.817  16.028  0.00  0.00    +0.156 HD
ENDROOT
BRANCH   5  11
ATOM      1  O   UNL     1      -1.446 -11.587  14.132  0.00  0.00    -0.380 OA
ATOM     11  C   UNL     1      -3.379 -11.504  16.262  0.00  0.00    +0.082 C 
ATOM     16  C   UNL     1      -2.403 -10.358  15.995  0.00  0.00    +0.050 C 
ATOM     17  C   UNL     1      -3.595 -12.324  14.989  0.00  0.00    +0.050 C 
ATOM     18  C   UNL     1      -1.135 -10.876  15.329  0.00  0.00    +0.161 C 
ATOM     19  C   UNL     1      -2.260 -12.733  14.381  0.00  0.00    +0.161 C 
ENDBRANCH   5  11
BRANCH   8  21
ATOM     21  C   UNL     1     -11.340  -7.456  15.990  0.00  0.00    +0.038 A 
ATOM     22  C   UNL     1     -11.238  -6.344  15.155  0.00  0.00    +0.069 A 
ATOM     23  C   UNL     1     -12.594  -7.982  16.303  0.00  0.00    +0.023 A 
ATOM     24  C   UNL     1     -12.391  -5.757  14.633  0.00  0.00    +0.122 A 
ATOM     25  C   UNL     1     -13.747  -7.394  15.781  0.00  0.00    +0.005 A 
ATOM     26  C   UNL     1     -13.645  -6.282  14.945  0.00  0.00    +0.046 A 
BRANCH  24   4
ATOM      4  O   UNL     1     -12.291  -4.670  13.819  0.00  0.00    -0.495 OA
ATOM     27  C   UNL     1     -13.490  -4.220  13.188  0.00  0.00    +0.277 C 
ENDBRANCH  24   4
ENDBRANCH   8  21
TORSDOF 3
ENDMDL
MODEL 8
REMARK VINA RESULT:      -6.1     29.178     31.181
REMARK  Name = 75368505
REMARK  4 active torsions:
REMARK  status: ('A' for Active; 'I' for Inactive)
REMARK    1  A    between atoms: O_4  and  C_24
REMARK    2  A    between atoms: O_4  and  C_27
REMARK    3  A    between atoms: N_5  and  C_11
REMARK    4  A    between atoms: N_8  and  C_21
REMARK                            x       y       z     vdW  Elec       q    Type
REMARK                         _______ _______ _______ _____ _____    ______ ____
ROOT
ATOM      2  O   UNL     1      -1.985 -11.589  14.295  0.00  0.00    -0.252 OA
ATOM      3  O   UNL     1      -4.421  -9.365   8.222  0.00  0.00    -0.252 OA
ATOM      5  N   UNL     1      -4.239 -11.108  14.796  0.00  0.00    -0.280 N 
ATOM      6  N   UNL     1      -3.530 -10.874  12.676  0.00  0.00    -0.278 N 
ATOM      7  N   UNL     1      -4.525  -9.416  10.530  0.00  0.00    -0.282 N 
ATOM      8  N   UNL     1      -6.494  -9.202   9.251  0.00  0.00    -0.269 N 
ATOM      9  C   UNL     1      -4.962 -10.622  12.616  0.00  0.00    +0.112 C 
ATOM     10  C   UNL     1      -5.381 -10.567  14.083  0.00  0.00    +0.133 C 
ATOM     12  C   UNL     1      -5.235  -9.349  11.824  0.00  0.00    +0.133 C 
ATOM     13  C   UNL     1      -2.734 -10.832  11.461  0.00  0.00    +0.128 C 
ATOM     14  C   UNL     1      -3.110 -11.239  13.963  0.00  0.00    +0.305 C 
ATOM     15  C   UNL     1      -3.067  -9.574  10.659  0.00  0.00    +0.128 C 
ATOM     20  C   UNL     1      -5.106  -9.320   9.247  0.00  0.00    +0.307 C 
ATOM     28  H   UNL     1      -7.007  -9.614  10.023  0.00  0.00    +0.156 HD
ENDROOT
BRANCH   5  11
ATOM      1  O   UNL     1      -5.773 -11.930  18.598  0.00  0.00    -0.380 OA
ATOM     11  C   UNL     1      -4.265 -11.334  16.220  0.00  0.00    +0.082 C 
ATOM     16  C   UNL     1      -4.768 -12.741  16.540  0.00  0.00    +0.050 C 
ATOM     17  C   UNL     1      -5.127 -10.287  16.930  0.00  0.00    +0.050 C 
ATOM     18  C   UNL     1      -4.918 -12.929  18.045  0.00  0.00    +0.161 C 
ATOM     19  C   UNL     1      -5.254 -10.613  18.412  0.00  0.00    +0.161 C 
ENDBRANCH   5  11
BRANCH   8  21
ATOM     21  C   UNL     1      -7.302  -8.532   8.297  0.00  0.00    +0.038 A 
ATOM     22  C   UNL     1      -7.643  -9.169   7.104  0.00  0.00    +0.069 A 
ATOM     23  C   UNL     1      -7.755  -7.238   8.553  0.00  0.00    +0.023 A 
ATOM     24  C   UNL     1      -8.438  -8.509   6.166  0.00  0.00    +0.122 A 
ATOM     25  C   UNL     1      -8.549  -6.579   7.614  0.00  0.00    +0.005 A 
ATOM     26  C   UNL     1      -8.891  -7.215   6.421  0.00  0.00    +0.046 A 
BRANCH  24   4
ATOM      4  O   UNL     1      -8.769  -9.130   5.000  0.00  0.00    -0.495 OA
ATOM     27  C   UNL     1      -9.330  -8.318   3.970  0.00  0.00    +0.277 C 
ENDBRANCH  24   4
ENDBRANCH   8  21
TORSDOF 3
ENDMDL
MODEL 9
REMARK VINA RESULT:      -6.0     28.368     31.942
REMARK  Name = 75368505
REMARK  4 active torsions:
REMARK  status: ('A' for Active; 'I' for Inactive)
REMARK    1  A    between atoms: O_4  and  C_24
REMARK    2  A    between atoms: O_4  and  C_27
REMARK    3  A    between atoms: N_5  and  C_11
REMARK    4  A    between atoms: N_8  and  C_21
REMARK                            x       y       z     vdW  Elec       q    Type
REMARK                         _______ _______ _______ _____ _____    ______ ____
ROOT
ATOM      2  O   UNL     1      -6.684  -9.679   5.437  0.00  0.00    -0.252 OA
ATOM      3  O   UNL     1      -5.726  -8.767  12.221  0.00  0.00    -0.252 OA
ATOM      5  N   UNL     1      -5.102 -11.349   5.956  0.00  0.00    -0.280 N 
ATOM      6  N   UNL     1      -5.922 -10.083   7.622  0.00  0.00    -0.278 N 
ATOM      7  N   UNL     1      -4.966  -9.504  10.166  0.00  0.00    -0.282 N 
ATOM      8  N   UNL     1      -4.317 -10.608  12.146  0.00  0.00    -0.269 N 
ATOM      9  C   UNL     1      -5.086 -11.070   8.287  0.00  0.00    +0.112 C 
ATOM     10  C   UNL     1      -4.370 -11.772   7.137  0.00  0.00    +0.133 C 
ATOM     12  C   UNL     1      -4.165 -10.384   9.290  0.00  0.00    +0.133 C 
ATOM     13  C   UNL     1      -6.645  -9.097   8.407  0.00  0.00    +0.128 C 
ATOM     14  C   UNL     1      -5.994 -10.295   6.238  0.00  0.00    +0.305 C 
ATOM     15  C   UNL     1      -5.713  -8.464   9.441  0.00  0.00    +0.128 C 
ATOM     20  C   UNL     1      -5.044  -9.566  11.574  0.00  0.00    +0.307 C 
ATOM     28  H   UNL     1      -4.175 -11.450  11.596  0.00  0.00    +0.156 HD
ENDROOT
BRANCH   5  11
ATOM      1  O   UNL     1      -3.918 -14.074   3.014  0.00  0.00    -0.380 OA
ATOM     11  C   UNL     1      -4.811 -11.879   4.647  0.00  0.00    +0.082 C 
ATOM     16  C   UNL     1      -5.699 -13.083   4.336  0.00  0.00    +0.050 C 
ATOM     17  C   UNL     1      -3.335 -12.260   4.521  0.00  0.00    +0.050 C 
ATOM     18  C   UNL     1      -5.300 -13.718   3.010  0.00  0.00    +0.161 C 
ATOM     19  C   UNL     1      -3.069 -12.939   3.184  0.00  0.00    +0.161 C 
ENDBRANCH   5  11
BRANCH   8  21
ATOM     21  C   UNL     1      -3.709 -10.631  13.426  0.00  0.00    +0.038 A 
ATOM     22  C   UNL     1      -4.486 -10.848  14.563  0.00  0.00    +0.069 A 
ATOM     23  C   UNL     1      -2.333 -10.436  13.548  0.00  0.00    +0.023 A 
ATOM     24  C   UNL     1      -3.888 -10.869  15.823  0.00  0.00    +0.122 A 
ATOM     25  C   UNL     1      -1.735 -10.457  14.808  0.00  0.00    +0.005 A 
ATOM     26  C   UNL     1      -2.512 -10.674  15.945  0.00  0.00    +0.046 A 
BRANCH  24   4
ATOM      4  O   UNL     1      -4.648 -11.079  16.933  0.00  0.00    -0.495 OA
ATOM     27  C   UNL     1      -5.427 -12.275  16.968  0.00  0.00    +0.277 C 
ENDBRANCH  24   4
ENDBRANCH   8  21
TORSDOF 3
ENDMDL
MODEL 10
REMARK VINA RESULT:      -6.0     28.665     31.313
REMARK  Name = 75368505
REMARK  4 active torsions:
REMARK  status: ('A' for Active; 'I' for Inactive)
REMARK    1  A    between atoms: O_4  and  C_24
REMARK    2  A    between atoms: O_4  and  C_27
REMARK    3  A    between atoms: N_5  and  C_11
REMARK    4  A    between atoms: N_8  and  C_21
REMARK                            x       y       z     vdW  Elec       q    Type
REMARK                         _______ _______ _______ _____ _____    ______ ____
ROOT
ATOM      2  O   UNL     1      -1.900 -10.551  13.682  0.00  0.00    -0.252 OA
ATOM      3  O   UNL     1      -5.932 -11.166  19.261  0.00  0.00    -0.252 OA
ATOM      5  N   UNL     1      -4.067 -10.422  12.760  0.00  0.00    -0.280 N 
ATOM      6  N   UNL     1      -3.850 -10.572  14.992  0.00  0.00    -0.278 N 
ATOM      7  N   UNL     1      -5.607 -11.389  16.984  0.00  0.00    -0.282 N 
ATOM      8  N   UNL     1      -7.739 -10.857  17.839  0.00  0.00    -0.269 N 
ATOM      9  C   UNL     1      -5.276 -10.391  14.772  0.00  0.00    +0.112 C 
ATOM     10  C   UNL     1      -5.427 -10.513  13.258  0.00  0.00    +0.133 C 
ATOM     12  C   UNL     1      -6.064 -11.416  15.579  0.00  0.00    +0.133 C 
ATOM     13  C   UNL     1      -3.333 -10.684  16.345  0.00  0.00    +0.128 C 
ATOM     14  C   UNL     1      -3.118 -10.515  13.797  0.00  0.00    +0.305 C 
ATOM     15  C   UNL     1      -4.173 -11.676  17.148  0.00  0.00    +0.128 C 
ATOM     20  C   UNL     1      -6.405 -11.145  18.121  0.00  0.00    +0.307 C 
ATOM     28  H   UNL     1      -7.955 -10.418  16.950  0.00  0.00    +0.156 HD
ENDROOT
BRANCH   5  11
ATOM      1  O   UNL     1      -4.712 -10.271   8.632  0.00  0.00    -0.380 OA
ATOM     11  C   UNL     1      -3.771 -10.386  11.349  0.00  0.00    +0.082 C 
ATOM     16  C   UNL     1      -4.291  -9.096  10.716  0.00  0.00    +0.050 C 
ATOM     17  C   UNL     1      -4.357 -11.603  10.630  0.00  0.00    +0.050 C 
ATOM     18  C   UNL     1      -4.092  -9.120   9.205  0.00  0.00    +0.161 C 
ATOM     19  C   UNL     1      -4.153 -11.488   9.126  0.00  0.00    +0.161 C 
ENDBRANCH   5  11
BRANCH   8  21
ATOM     21  C   UNL     1      -8.868 -11.134  18.649  0.00  0.00    +0.038 A 
ATOM     22  C   UNL     1      -9.912 -10.213  18.729  0.00  0.00    +0.069 A 
ATOM     23  C   UNL     1      -8.935 -12.329  19.367  0.00  0.00    +0.023 A 
ATOM     24  C   UNL     1     -11.023 -10.486  19.527  0.00  0.00    +0.122 A 
ATOM     25  C   UNL     1     -10.046 -12.601  20.165  0.00  0.00    +0.005 A 
ATOM     26  C   UNL     1     -11.090 -11.680  20.245  0.00  0.00    +0.046 A 
BRANCH  24   4
ATOM      4  O   UNL     1     -12.041  -9.585  19.606  0.00  0.00    -0.495 OA
ATOM     27  C   UNL     1     -13.111  -9.893  20.498  0.00  0.00    +0.277 C 
ENDBRANCH  24   4
ENDBRANCH   8  21
TORSDOF 3
ENDMDL
