MODEL 1
REMARK VINA RESULT:      -7.1      0.000      0.000
REMARK  Name = 75367641
REMARK  4 active torsions:
REMARK  status: ('A' for Active; 'I' for Inactive)
REMARK    1  A    between atoms: O_7  and  C_12
REMARK    2  A    between atoms: O_7  and  C_18
REMARK    3  A    between atoms: N_10  and  C_19
REMARK    4  A    between atoms: C_22  and  C_28
REMARK                            x       y       z     vdW  Elec       q    Type
REMARK                         _______ _______ _______ _____ _____    ______ ____
ROOT
ATOM      6  O   UNL     1       7.564  11.143   3.468  0.00  0.00    -0.375 OA
ATOM      8  O   UNL     1       9.814   8.150   0.900  0.00  0.00    -0.252 OA
ATOM      9  N   UNL     1       8.303   8.444   2.627  0.00  0.00    -0.280 N 
ATOM     10  N   UNL     1      10.205   7.079   2.926  0.00  0.00    -0.267 N 
ATOM     12  C   UNL     1       8.436   9.378   4.947  0.00  0.00    +0.218 C 
ATOM     13  C   UNL     1       7.875   8.292   4.025  0.00  0.00    +0.156 C 
ATOM     14  C   UNL     1       7.467   9.336   1.819  0.00  0.00    +0.137 C 
ATOM     15  C   UNL     1       8.644  10.753   4.311  0.00  0.00    +0.206 C 
ATOM     16  C   UNL     1       7.774  10.801   2.097  0.00  0.00    +0.179 C 
ATOM     17  C   UNL     1       9.477   7.895   2.059  0.00  0.00    +0.307 C 
ATOM     30  H   UNL     1      10.117   7.251   3.922  0.00  0.00    +0.156 HD
ENDROOT
BRANCH  10  19
ATOM      1  F   UNL     1      12.813   7.414   2.000  0.00  0.00    -0.203 F 
ATOM      5  F   UNL     1      13.392   2.733   1.615  0.00  0.00    -0.205 F 
ATOM     19  C   UNL     1      11.020   5.971   2.590  0.00  0.00    +0.070 A 
ATOM     23  C   UNL     1      12.322   6.173   2.130  0.00  0.00    +0.147 A 
ATOM     24  C   UNL     1      10.521   4.674   2.722  0.00  0.00    +0.029 A 
ATOM     26  C   UNL     1      13.123   5.080   1.800  0.00  0.00    +0.078 A 
ATOM     27  C   UNL     1      11.322   3.582   2.391  0.00  0.00    +0.040 A 
ATOM     29  C   UNL     1      12.623   3.784   1.931  0.00  0.00    +0.126 A 
ENDBRANCH  10  19
BRANCH  12   7
ATOM      7  O   UNL     1       9.678   8.932   5.489  0.00  0.00    -0.469 OA
BRANCH   7  18
ATOM     11  N   UNL     1      10.293   6.810   6.198  0.00  0.00    -0.221 NA
ATOM     18  C   UNL     1       9.613   7.953   6.444  0.00  0.00    +0.215 A 
ATOM     20  C   UNL     1       8.870   8.182   7.591  0.00  0.00    +0.068 A 
ATOM     21  C   UNL     1       8.820   7.173   8.545  0.00  0.00    +0.019 A 
ATOM     22  C   UNL     1       9.505   5.983   8.328  0.00  0.00    +0.073 A 
ATOM     25  C   UNL     1      10.220   5.853   7.149  0.00  0.00    +0.127 A 
BRANCH  22  28
ATOM      2  F   UNL     1       8.325   4.857  10.079  0.00  0.00    -0.166 F 
ATOM      3  F   UNL     1       9.564   3.635   8.783  0.00  0.00    -0.166 F 
ATOM      4  F   UNL     1      10.492   4.961  10.235  0.00  0.00    -0.166 F 
ATOM     28  C   UNL     1       9.470   4.885   9.331  0.00  0.00    +0.419 C 
ENDBRANCH  22  28
ENDBRANCH   7  18
ENDBRANCH  12   7
TORSDOF 4
ENDMDL
MODEL 2
REMARK VINA RESULT:      -6.5      2.427      3.477
REMARK  Name = 75367641
REMARK  4 active torsions:
REMARK  status: ('A' for Active; 'I' for Inactive)
REMARK    1  A    between atoms: O_7  and  C_12
REMARK    2  A    between atoms: O_7  and  C_18
REMARK    3  A    between atoms: N_10  and  C_19
REMARK    4  A    between atoms: C_22  and  C_28
REMARK                            x       y       z     vdW  Elec       q    Type
REMARK                         _______ _______ _______ _____ _____    ______ ____
ROOT
ATOM      6  O   UNL     1      12.647  10.337   6.875  0.00  0.00    -0.375 OA
ATOM      8  O   UNL     1      14.553   7.059   4.377  0.00  0.00    -0.252 OA
ATOM      9  N   UNL     1      13.212   8.945   4.368  0.00  0.00    -0.280 N 
ATOM     10  N   UNL     1      12.456   6.939   3.382  0.00  0.00    -0.267 N 
ATOM     12  C   UNL     1      10.953   9.505   5.294  0.00  0.00    +0.218 C 
ATOM     13  C   UNL     1      11.938   9.637   4.129  0.00  0.00    +0.156 C 
ATOM     14  C   UNL     1      14.215   9.729   5.094  0.00  0.00    +0.137 C 
ATOM     15  C   UNL     1      11.575   9.418   6.688  0.00  0.00    +0.206 C 
ATOM     16  C   UNL     1      13.926   9.768   6.589  0.00  0.00    +0.179 C 
ATOM     17  C   UNL     1      13.489   7.594   4.054  0.00  0.00    +0.307 C 
ATOM     30  H   UNL     1      11.509   7.276   3.527  0.00  0.00    +0.156 HD
ENDROOT
BRANCH  10  19
ATOM      1  F   UNL     1      11.058   4.550   3.715  0.00  0.00    -0.203 F 
ATOM      5  F   UNL     1      12.891   2.794  -0.278  0.00  0.00    -0.205 F 
ATOM     19  C   UNL     1      12.566   5.879   2.449  0.00  0.00    +0.070 A 
ATOM     23  C   UNL     1      11.852   4.696   2.645  0.00  0.00    +0.147 A 
ATOM     24  C   UNL     1      13.389   6.020   1.330  0.00  0.00    +0.029 A 
ATOM     26  C   UNL     1      11.962   3.655   1.724  0.00  0.00    +0.078 A 
ATOM     27  C   UNL     1      13.499   4.978   0.410  0.00  0.00    +0.040 A 
ATOM     29  C   UNL     1      12.785   3.795   0.606  0.00  0.00    +0.126 A 
ENDBRANCH  10  19
BRANCH  12   7
ATOM      7  O   UNL     1      10.136   8.354   5.083  0.00  0.00    -0.469 OA
BRANCH   7  18
ATOM     11  N   UNL     1      10.758   6.457   6.264  0.00  0.00    -0.221 NA
ATOM     18  C   UNL     1       9.945   7.533   6.162  0.00  0.00    +0.215 A 
ATOM     20  C   UNL     1       8.950   7.844   7.075  0.00  0.00    +0.068 A 
ATOM     21  C   UNL     1       8.777   6.995   8.161  0.00  0.00    +0.019 A 
ATOM     22  C   UNL     1       9.592   5.877   8.301  0.00  0.00    +0.073 A 
ATOM     25  C   UNL     1      10.559   5.655   7.334  0.00  0.00    +0.127 A 
BRANCH  22  28
ATOM      2  F   UNL     1      10.419   5.061  10.393  0.00  0.00    -0.166 F 
ATOM      3  F   UNL     1       8.265   5.129  10.146  0.00  0.00    -0.166 F 
ATOM      4  F   UNL     1       9.432   3.636   9.080  0.00  0.00    -0.166 F 
ATOM     28  C   UNL     1       9.431   4.950   9.453  0.00  0.00    +0.419 C 
ENDBRANCH  22  28
ENDBRANCH   7  18
ENDBRANCH  12   7
TORSDOF 4
ENDMDL
MODEL 3
REMARK VINA RESULT:      -6.4     24.414     27.247
REMARK  Name = 75367641
REMARK  4 active torsions:
REMARK  status: ('A' for Active; 'I' for Inactive)
REMARK    1  A    between atoms: O_7  and  C_12
REMARK    2  A    between atoms: O_7  and  C_18
REMARK    3  A    between atoms: N_10  and  C_19
REMARK    4  A    between atoms: C_22  and  C_28
REMARK                            x       y       z     vdW  Elec       q    Type
REMARK                         _______ _______ _______ _____ _____    ______ ____
ROOT
ATOM      6  O   UNL     1      -8.745 -11.774  19.414  0.00  0.00    -0.375 OA
ATOM      8  O   UNL     1      -5.146 -12.919  16.892  0.00  0.00    -0.252 OA
ATOM      9  N   UNL     1      -6.150 -11.269  18.166  0.00  0.00    -0.280 N 
ATOM     10  N   UNL     1      -5.435 -10.807  15.965  0.00  0.00    -0.267 N 
ATOM     12  C   UNL     1      -8.220  -9.878  17.934  0.00  0.00    +0.218 C 
ATOM     13  C   UNL     1      -6.745  -9.936  18.338  0.00  0.00    +0.156 C 
ATOM     14  C   UNL     1      -6.332 -12.178  19.301  0.00  0.00    +0.137 C 
ATOM     15  C   UNL     1      -9.027 -11.156  18.162  0.00  0.00    +0.206 C 
ATOM     16  C   UNL     1      -7.731 -12.777  19.326  0.00  0.00    +0.179 C 
ATOM     17  C   UNL     1      -5.534 -11.752  16.988  0.00  0.00    +0.307 C 
ATOM     30  H   UNL     1      -6.116 -10.055  15.948  0.00  0.00    +0.156 HD
ENDROOT
BRANCH  10  19
ATOM      1  F   UNL     1      -2.727 -10.628  16.603  0.00  0.00    -0.203 F 
ATOM      5  F   UNL     1      -1.546 -10.475  12.024  0.00  0.00    -0.205 F 
ATOM     19  C   UNL     1      -4.440 -10.722  14.960  0.00  0.00    +0.070 A 
ATOM     23  C   UNL     1      -3.093 -10.634  15.313  0.00  0.00    +0.147 A 
ATOM     24  C   UNL     1      -4.809 -10.728  13.614  0.00  0.00    +0.029 A 
ATOM     26  C   UNL     1      -2.116 -10.551  14.322  0.00  0.00    +0.078 A 
ATOM     27  C   UNL     1      -3.832 -10.644  12.623  0.00  0.00    +0.040 A 
ATOM     29  C   UNL     1      -2.485 -10.556  12.976  0.00  0.00    +0.126 A 
ENDBRANCH  10  19
BRANCH  12   7
ATOM      7  O   UNL     1      -8.310  -9.519  16.555  0.00  0.00    -0.469 OA
BRANCH   7  18
ATOM     11  N   UNL     1      -9.919  -8.979  14.974  0.00  0.00    -0.221 NA
ATOM     18  C   UNL     1      -9.381  -8.747  16.193  0.00  0.00    +0.215 A 
ATOM     20  C   UNL     1      -9.848  -7.787  17.077  0.00  0.00    +0.068 A 
ATOM     21  C   UNL     1     -10.936  -7.017  16.685  0.00  0.00    +0.019 A 
ATOM     22  C   UNL     1     -11.517  -7.226  15.439  0.00  0.00    +0.073 A 
ATOM     25  C   UNL     1     -10.976  -8.211  14.628  0.00  0.00    +0.127 A 
BRANCH  22  28
ATOM      2  F   UNL     1     -12.355  -5.149  14.596  0.00  0.00    -0.166 F 
ATOM      3  F   UNL     1     -13.351  -6.956  13.927  0.00  0.00    -0.166 F 
ATOM      4  F   UNL     1     -13.624  -6.260  15.969  0.00  0.00    -0.166 F 
ATOM     28  C   UNL     1     -12.683  -6.417  14.992  0.00  0.00    +0.419 C 
ENDBRANCH  22  28
ENDBRANCH   7  18
ENDBRANCH  12   7
TORSDOF 4
ENDMDL
MODEL 4
REMARK VINA RESULT:      -6.3     23.008     25.806
REMARK  Name = 75367641
REMARK  4 active torsions:
REMARK  status: ('A' for Active; 'I' for Inactive)
REMARK    1  A    between atoms: O_7  and  C_12
REMARK    2  A    between atoms: O_7  and  C_18
REMARK    3  A    between atoms: N_10  and  C_19
REMARK    4  A    between atoms: C_22  and  C_28
REMARK                            x       y       z     vdW  Elec       q    Type
REMARK                         _______ _______ _______ _____ _____    ______ ____
ROOT
ATOM      6  O   UNL     1      -7.625  -9.824  17.789  0.00  0.00    -0.375 OA
ATOM      8  O   UNL     1      -4.536 -13.147  17.605  0.00  0.00    -0.252 OA
ATOM      9  N   UNL     1      -5.055 -10.974  17.005  0.00  0.00    -0.280 N 
ATOM     10  N   UNL     1      -4.369 -12.532  15.370  0.00  0.00    -0.267 N 
ATOM     12  C   UNL     1      -6.749  -9.921  15.490  0.00  0.00    +0.218 C 
ATOM     13  C   UNL     1      -5.310  -9.922  16.010  0.00  0.00    +0.156 C 
ATOM     14  C   UNL     1      -5.384 -10.612  18.386  0.00  0.00    +0.137 C 
ATOM     15  C   UNL     1      -7.820 -10.366  16.486  0.00  0.00    +0.206 C 
ATOM     16  C   UNL     1      -6.883 -10.692  18.648  0.00  0.00    +0.179 C 
ATOM     17  C   UNL     1      -4.633 -12.294  16.720  0.00  0.00    +0.307 C 
ATOM     30  H   UNL     1      -4.854 -11.961  14.685  0.00  0.00    +0.156 HD
ENDROOT
BRANCH  10  19
ATOM      1  F   UNL     1      -1.978 -11.666  14.226  0.00  0.00    -0.203 F 
ATOM      5  F   UNL     1      -0.724 -16.115  13.216  0.00  0.00    -0.205 F 
ATOM     19  C   UNL     1      -3.437 -13.445  14.819  0.00  0.00    +0.070 A 
ATOM     23  C   UNL     1      -2.249 -12.979  14.254  0.00  0.00    +0.147 A 
ATOM     24  C   UNL     1      -3.707 -14.814  14.843  0.00  0.00    +0.029 A 
ATOM     26  C   UNL     1      -1.333 -13.880  13.713  0.00  0.00    +0.078 A 
ATOM     27  C   UNL     1      -2.791 -15.715  14.300  0.00  0.00    +0.040 A 
ATOM     29  C   UNL     1      -1.604 -15.249  13.736  0.00  0.00    +0.126 A 
ENDBRANCH  10  19
BRANCH  12   7
ATOM      7  O   UNL     1      -6.826 -10.752  14.333  0.00  0.00    -0.469 OA
BRANCH   7  18
ATOM     11  N   UNL     1      -5.072 -11.127  12.861  0.00  0.00    -0.221 NA
ATOM     18  C   UNL     1      -6.110 -10.347  13.239  0.00  0.00    +0.215 A 
ATOM     20  C   UNL     1      -6.482  -9.181  12.588  0.00  0.00    +0.068 A 
ATOM     21  C   UNL     1      -5.739  -8.791  11.479  0.00  0.00    +0.019 A 
ATOM     22  C   UNL     1      -4.664  -9.566  11.061  0.00  0.00    +0.073 A 
ATOM     25  C   UNL     1      -4.375 -10.715  11.780  0.00  0.00    +0.127 A 
BRANCH  22  28
ATOM      2  F   UNL     1      -2.573  -8.797  10.188  0.00  0.00    -0.166 F 
ATOM      3  F   UNL     1      -3.709 -10.171   8.953  0.00  0.00    -0.166 F 
ATOM      4  F   UNL     1      -4.385  -8.119   9.195  0.00  0.00    -0.166 F 
ATOM     28  C   UNL     1      -3.851  -9.175   9.878  0.00  0.00    +0.419 C 
ENDBRANCH  22  28
ENDBRANCH   7  18
ENDBRANCH  12   7
TORSDOF 4
ENDMDL
MODEL 5
REMARK VINA RESULT:      -6.3     23.524     26.243
REMARK  Name = 75367641
REMARK  4 active torsions:
REMARK  status: ('A' for Active; 'I' for Inactive)
REMARK    1  A    between atoms: O_7  and  C_12
REMARK    2  A    between atoms: O_7  and  C_18
REMARK    3  A    between atoms: N_10  and  C_19
REMARK    4  A    between atoms: C_22  and  C_28
REMARK                            x       y       z     vdW  Elec       q    Type
REMARK                         _______ _______ _______ _____ _____    ______ ____
ROOT
ATOM      6  O   UNL     1      -5.921 -12.215  18.540  0.00  0.00    -0.375 OA
ATOM      8  O   UNL     1      -3.561 -11.951  14.670  0.00  0.00    -0.252 OA
ATOM      9  N   UNL     1      -4.616 -10.773  16.358  0.00  0.00    -0.280 N 
ATOM     10  N   UNL     1      -5.150 -10.355  14.098  0.00  0.00    -0.267 N 
ATOM     12  C   UNL     1      -6.991 -10.519  17.112  0.00  0.00    +0.218 C 
ATOM     13  C   UNL     1      -5.641  -9.844  16.856  0.00  0.00    +0.156 C 
ATOM     14  C   UNL     1      -3.878 -11.493  17.399  0.00  0.00    +0.137 C 
ATOM     15  C   UNL     1      -6.934 -11.977  17.567  0.00  0.00    +0.206 C 
ATOM     16  C   UNL     1      -4.688 -12.652  17.966  0.00  0.00    +0.179 C 
ATOM     17  C   UNL     1      -4.376 -11.086  15.000  0.00  0.00    +0.307 C 
ATOM     30  H   UNL     1      -6.046 -10.004  14.420  0.00  0.00    +0.156 HD
ENDROOT
BRANCH  10  19
ATOM      1  F   UNL     1      -6.898  -8.870  12.513  0.00  0.00    -0.203 F 
ATOM      5  F   UNL     1      -3.809  -8.858   8.928  0.00  0.00    -0.205 F 
ATOM     19  C   UNL     1      -4.810  -9.972  12.777  0.00  0.00    +0.070 A 
ATOM     23  C   UNL     1      -5.707  -9.228  12.010  0.00  0.00    +0.147 A 
ATOM     24  C   UNL     1      -3.573 -10.338  12.244  0.00  0.00    +0.029 A 
ATOM     26  C   UNL     1      -5.369  -8.852  10.711  0.00  0.00    +0.078 A 
ATOM     27  C   UNL     1      -3.236  -9.963  10.944  0.00  0.00    +0.040 A 
ATOM     29  C   UNL     1      -4.134  -9.219  10.177  0.00  0.00    +0.126 A 
ENDBRANCH  10  19
BRANCH  12   7
ATOM      7  O   UNL     1      -7.783 -10.439  15.927  0.00  0.00    -0.469 OA
BRANCH   7  18
ATOM     11  N   UNL     1      -8.908  -8.728  17.015  0.00  0.00    -0.221 NA
ATOM     18  C   UNL     1      -8.726  -9.448  15.885  0.00  0.00    +0.215 A 
ATOM     20  C   UNL     1      -9.429  -9.239  14.710  0.00  0.00    +0.068 A 
ATOM     21  C   UNL     1     -10.381  -8.227  14.693  0.00  0.00    +0.019 A 
ATOM     22  C   UNL     1     -10.598  -7.464  15.835  0.00  0.00    +0.073 A 
ATOM     25  C   UNL     1      -9.842  -7.752  16.960  0.00  0.00    +0.127 A 
BRANCH  22  28
ATOM      2  F   UNL     1     -11.459  -5.494  16.885  0.00  0.00    -0.166 F 
ATOM      3  F   UNL     1     -11.597  -5.597  14.723  0.00  0.00    -0.166 F 
ATOM      4  F   UNL     1     -12.889  -6.840  15.952  0.00  0.00    -0.166 F 
ATOM     28  C   UNL     1     -11.610  -6.374  15.848  0.00  0.00    +0.419 C 
ENDBRANCH  22  28
ENDBRANCH   7  18
ENDBRANCH  12   7
TORSDOF 4
ENDMDL
MODEL 6
REMARK VINA RESULT:      -6.3     30.487     33.890
REMARK  Name = 75367641
REMARK  4 active torsions:
REMARK  status: ('A' for Active; 'I' for Inactive)
REMARK    1  A    between atoms: O_7  and  C_12
REMARK    2  A    between atoms: O_7  and  C_18
REMARK    3  A    between atoms: N_10  and  C_19
REMARK    4  A    between atoms: C_22  and  C_28
REMARK                            x       y       z     vdW  Elec       q    Type
REMARK                         _______ _______ _______ _____ _____    ______ ____
ROOT
ATOM      6  O   UNL     1     -18.223   1.751  23.500  0.00  0.00    -0.375 OA
ATOM      8  O   UNL     1     -16.895   0.668  27.706  0.00  0.00    -0.252 OA
ATOM      9  N   UNL     1     -17.867   2.274  26.354  0.00  0.00    -0.280 N 
ATOM     10  N   UNL     1     -16.021   2.822  27.718  0.00  0.00    -0.267 N 
ATOM     12  C   UNL     1     -17.067   3.702  24.458  0.00  0.00    +0.218 C 
ATOM     13  C   UNL     1     -17.906   3.607  25.734  0.00  0.00    +0.156 C 
ATOM     14  C   UNL     1     -18.848   1.320  25.829  0.00  0.00    +0.137 C 
ATOM     15  C   UNL     1     -16.975   2.426  23.621  0.00  0.00    +0.206 C 
ATOM     16  C   UNL     1     -18.409   0.738  24.492  0.00  0.00    +0.179 C 
ATOM     17  C   UNL     1     -16.918   1.835  27.306  0.00  0.00    +0.307 C 
ATOM     30  H   UNL     1     -15.828   3.583  27.075  0.00  0.00    +0.156 HD
ENDROOT
BRANCH  10  19
ATOM      1  F   UNL     1     -16.235   5.137  29.258  0.00  0.00    -0.203 F 
ATOM      5  F   UNL     1     -13.509   3.267  32.643  0.00  0.00    -0.205 F 
ATOM     19  C   UNL     1     -15.380   2.938  28.976  0.00  0.00    +0.070 A 
ATOM     23  C   UNL     1     -15.507   4.110  29.722  0.00  0.00    +0.147 A 
ATOM     24  C   UNL     1     -14.621   1.876  29.470  0.00  0.00    +0.029 A 
ATOM     26  C   UNL     1     -14.876   4.222  30.960  0.00  0.00    +0.078 A 
ATOM     27  C   UNL     1     -13.989   1.988  30.708  0.00  0.00    +0.040 A 
ATOM     29  C   UNL     1     -14.116   3.160  31.454  0.00  0.00    +0.126 A 
ENDBRANCH  10  19
BRANCH  12   7
ATOM      7  O   UNL     1     -15.747   4.122  24.800  0.00  0.00    -0.469 OA
BRANCH   7  18
ATOM     11  N   UNL     1     -15.682   5.911  23.325  0.00  0.00    -0.221 NA
ATOM     18  C   UNL     1     -15.062   4.829  23.848  0.00  0.00    +0.215 A 
ATOM     20  C   UNL     1     -13.795   4.406  23.479  0.00  0.00    +0.068 A 
ATOM     21  C   UNL     1     -13.122   5.141  22.511  0.00  0.00    +0.019 A 
ATOM     22  C   UNL     1     -13.725   6.260  21.949  0.00  0.00    +0.073 A 
ATOM     25  C   UNL     1     -14.995   6.600  22.387  0.00  0.00    +0.127 A 
BRANCH  22  28
ATOM      2  F   UNL     1     -12.745   8.345  21.305  0.00  0.00    -0.166 F 
ATOM      3  F   UNL     1     -11.828   6.543  20.520  0.00  0.00    -0.166 F 
ATOM      4  F   UNL     1     -13.759   7.195  19.763  0.00  0.00    -0.166 F 
ATOM     28  C   UNL     1     -13.029   7.066  20.911  0.00  0.00    +0.419 C 
ENDBRANCH  22  28
ENDBRANCH   7  18
ENDBRANCH  12   7
TORSDOF 4
ENDMDL
MODEL 7
REMARK VINA RESULT:      -6.2     22.509     24.491
REMARK  Name = 75367641
REMARK  4 active torsions:
REMARK  status: ('A' for Active; 'I' for Inactive)
REMARK    1  A    between atoms: O_7  and  C_12
REMARK    2  A    between atoms: O_7  and  C_18
REMARK    3  A    between atoms: N_10  and  C_19
REMARK    4  A    between atoms: C_22  and  C_28
REMARK                            x       y       z     vdW  Elec       q    Type
REMARK                         _______ _______ _______ _____ _____    ______ ____
ROOT
ATOM      6  O   UNL     1      -8.594  -9.823   4.883  0.00  0.00    -0.375 OA
ATOM      8  O   UNL     1     -11.777  -7.067   6.584  0.00  0.00    -0.252 OA
ATOM      9  N   UNL     1      -9.553  -7.293   5.988  0.00  0.00    -0.280 N 
ATOM     10  N   UNL     1     -10.139  -6.547   8.149  0.00  0.00    -0.267 N 
ATOM     12  C   UNL     1      -7.633  -8.663   6.831  0.00  0.00    +0.218 C 
ATOM     13  C   UNL     1      -8.116  -7.312   6.298  0.00  0.00    +0.156 C 
ATOM     14  C   UNL     1      -9.902  -7.766   4.646  0.00  0.00    +0.137 C 
ATOM     15  C   UNL     1      -8.358  -9.894   6.286  0.00  0.00    +0.206 C 
ATOM     16  C   UNL     1      -9.879  -9.287   4.561  0.00  0.00    +0.179 C 
ATOM     17  C   UNL     1     -10.588  -6.964   6.895  0.00  0.00    +0.307 C 
ATOM     30  H   UNL     1      -9.233  -6.880   8.463  0.00  0.00    +0.156 HD
ENDROOT
BRANCH  10  19
ATOM      1  F   UNL     1     -11.786  -7.436  10.215  0.00  0.00    -0.203 F 
ATOM      5  F   UNL     1     -12.607  -2.993  11.620  0.00  0.00    -0.205 F 
ATOM     19  C   UNL     1     -10.771  -5.641   9.037  0.00  0.00    +0.070 A 
ATOM     23  C   UNL     1     -11.589  -6.119  10.061  0.00  0.00    +0.147 A 
ATOM     24  C   UNL     1     -10.572  -4.268   8.886  0.00  0.00    +0.029 A 
ATOM     26  C   UNL     1     -12.209  -5.225  10.933  0.00  0.00    +0.078 A 
ATOM     27  C   UNL     1     -11.193  -3.374   9.759  0.00  0.00    +0.040 A 
ATOM     29  C   UNL     1     -12.011  -3.852  10.782  0.00  0.00    +0.126 A 
ENDBRANCH  10  19
BRANCH  12   7
ATOM      7  O   UNL     1      -7.734  -8.664   8.254  0.00  0.00    -0.469 OA
BRANCH   7  18
ATOM     11  N   UNL     1      -5.546  -9.435   8.227  0.00  0.00    -0.221 NA
ATOM     18  C   UNL     1      -6.600  -8.991   8.949  0.00  0.00    +0.215 A 
ATOM     20  C   UNL     1      -6.593  -8.853  10.327  0.00  0.00    +0.068 A 
ATOM     21  C   UNL     1      -5.431  -9.191  11.009  0.00  0.00    +0.019 A 
ATOM     22  C   UNL     1      -4.325  -9.652  10.302  0.00  0.00    +0.073 A 
ATOM     25  C   UNL     1      -4.434  -9.754   8.924  0.00  0.00    +0.127 A 
BRANCH  22  28
ATOM      2  F   UNL     1      -2.681 -11.318  10.796  0.00  0.00    -0.166 F 
ATOM      3  F   UNL     1      -1.987  -9.270  10.631  0.00  0.00    -0.166 F 
ATOM      4  F   UNL     1      -3.156  -9.882  12.359  0.00  0.00    -0.166 F 
ATOM     28  C   UNL     1      -3.067 -10.022  11.003  0.00  0.00    +0.419 C 
ENDBRANCH  22  28
ENDBRANCH   7  18
ENDBRANCH  12   7
TORSDOF 4
ENDMDL
MODEL 8
REMARK VINA RESULT:      -6.2     22.594     24.069
REMARK  Name = 75367641
REMARK  4 active torsions:
REMARK  status: ('A' for Active; 'I' for Inactive)
REMARK    1  A    between atoms: O_7  and  C_12
REMARK    2  A    between atoms: O_7  and  C_18
REMARK    3  A    between atoms: N_10  and  C_19
REMARK    4  A    between atoms: C_22  and  C_28
REMARK                            x       y       z     vdW  Elec       q    Type
REMARK                         _______ _______ _______ _____ _____    ______ ____
ROOT
ATOM      6  O   UNL     1      -7.824 -10.036   2.212  0.00  0.00    -0.375 OA
ATOM      8  O   UNL     1     -10.572  -6.986   4.153  0.00  0.00    -0.252 OA
ATOM      9  N   UNL     1      -8.398  -7.747   3.936  0.00  0.00    -0.280 N 
ATOM     10  N   UNL     1      -9.362  -7.486   6.074  0.00  0.00    -0.267 N 
ATOM     12  C   UNL     1      -7.191  -9.844   4.584  0.00  0.00    +0.218 C 
ATOM     13  C   UNL     1      -7.156  -8.318   4.478  0.00  0.00    +0.156 C 
ATOM     14  C   UNL     1      -8.463  -7.687   2.474  0.00  0.00    +0.137 C 
ATOM     15  C   UNL     1      -8.015 -10.569   3.519  0.00  0.00    +0.206 C 
ATOM     16  C   UNL     1      -8.793  -9.044   1.867  0.00  0.00    +0.179 C 
ATOM     17  C   UNL     1      -9.530  -7.367   4.694  0.00  0.00    +0.307 C 
ATOM     30  H   UNL     1      -8.692  -8.169   6.412  0.00  0.00    +0.156 HD
ENDROOT
BRANCH  10  19
ATOM      1  F   UNL     1      -7.860  -5.870   7.778  0.00  0.00    -0.203 F 
ATOM      5  F   UNL     1     -11.761  -4.449  10.048  0.00  0.00    -0.205 F 
ATOM     19  C   UNL     1      -9.973  -6.710   7.090  0.00  0.00    +0.070 A 
ATOM     23  C   UNL     1      -9.192  -5.911   7.926  0.00  0.00    +0.147 A 
ATOM     24  C   UNL     1     -11.358  -6.743   7.253  0.00  0.00    +0.029 A 
ATOM     26  C   UNL     1      -9.795  -5.147   8.925  0.00  0.00    +0.078 A 
ATOM     27  C   UNL     1     -11.961  -5.981   8.253  0.00  0.00    +0.040 A 
ATOM     29  C   UNL     1     -11.180  -5.182   9.088  0.00  0.00    +0.126 A 
ENDBRANCH  10  19
BRANCH  12   7
ATOM      7  O   UNL     1      -7.684 -10.210   5.872  0.00  0.00    -0.469 OA
BRANCH   7  18
ATOM     11  N   UNL     1      -7.447  -9.136   7.915  0.00  0.00    -0.221 NA
ATOM     18  C   UNL     1      -6.892  -9.895   6.943  0.00  0.00    +0.215 A 
ATOM     20  C   UNL     1      -5.587 -10.362   6.974  0.00  0.00    +0.068 A 
ATOM     21  C   UNL     1      -4.804 -10.028   8.072  0.00  0.00    +0.019 A 
ATOM     22  C   UNL     1      -5.339  -9.249   9.092  0.00  0.00    +0.073 A 
ATOM     25  C   UNL     1      -6.655  -8.833   8.966  0.00  0.00    +0.127 A 
BRANCH  22  28
ATOM      2  F   UNL     1      -3.182  -8.805  10.028  0.00  0.00    -0.166 F 
ATOM      3  F   UNL     1      -4.849  -7.657  10.808  0.00  0.00    -0.166 F 
ATOM      4  F   UNL     1      -4.654  -9.764  11.310  0.00  0.00    -0.166 F 
ATOM     28  C   UNL     1      -4.525  -8.876  10.280  0.00  0.00    +0.419 C 
ENDBRANCH  22  28
ENDBRANCH   7  18
ENDBRANCH  12   7
TORSDOF 4
ENDMDL
MODEL 9
REMARK VINA RESULT:      -6.2     25.203     28.364
REMARK  Name = 75367641
REMARK  4 active torsions:
REMARK  status: ('A' for Active; 'I' for Inactive)
REMARK    1  A    between atoms: O_7  and  C_12
REMARK    2  A    between atoms: O_7  and  C_18
REMARK    3  A    between atoms: N_10  and  C_19
REMARK    4  A    between atoms: C_22  and  C_28
REMARK                            x       y       z     vdW  Elec       q    Type
REMARK                         _______ _______ _______ _____ _____    ______ ____
ROOT
ATOM      6  O   UNL     1      -8.550 -13.244  20.107  0.00  0.00    -0.375 OA
ATOM      8  O   UNL     1     -11.594 -10.163  18.741  0.00  0.00    -0.252 OA
ATOM      9  N   UNL     1     -10.083 -11.789  18.088  0.00  0.00    -0.280 N 
ATOM     10  N   UNL     1      -9.969  -9.617  17.171  0.00  0.00    -0.267 N 
ATOM     12  C   UNL     1      -7.591 -12.025  18.195  0.00  0.00    +0.218 C 
ATOM     13  C   UNL     1      -8.872 -12.236  17.384  0.00  0.00    +0.156 C 
ATOM     14  C   UNL     1     -10.678 -12.782  18.986  0.00  0.00    +0.137 C 
ATOM     15  C   UNL     1      -7.733 -12.146  19.712  0.00  0.00    +0.206 C 
ATOM     16  C   UNL     1      -9.918 -12.880  20.302  0.00  0.00    +0.179 C 
ATOM     17  C   UNL     1     -10.629 -10.484  18.043  0.00  0.00    +0.307 C 
ATOM     30  H   UNL     1      -8.990  -9.799  16.974  0.00  0.00    +0.156 HD
ENDROOT
BRANCH  10  19
ATOM      1  F   UNL     1     -10.960  -9.922  14.583  0.00  0.00    -0.203 F 
ATOM      5  F   UNL     1     -12.126  -5.341  14.374  0.00  0.00    -0.205 F 
ATOM     19  C   UNL     1     -10.520  -8.526  16.455  0.00  0.00    +0.070 A 
ATOM     23  C   UNL     1     -11.007  -8.713  15.161  0.00  0.00    +0.147 A 
ATOM     24  C   UNL     1     -10.576  -7.263  17.046  0.00  0.00    +0.029 A 
ATOM     26  C   UNL     1     -11.550  -7.637  14.458  0.00  0.00    +0.078 A 
ATOM     27  C   UNL     1     -11.117  -6.188  16.342  0.00  0.00    +0.040 A 
ATOM     29  C   UNL     1     -11.605  -6.374  15.049  0.00  0.00    +0.126 A 
ENDBRANCH  10  19
BRANCH  12   7
ATOM      7  O   UNL     1      -7.052 -10.740  17.886  0.00  0.00    -0.469 OA
BRANCH   7  18
ATOM     11  N   UNL     1      -5.882 -10.345  15.922  0.00  0.00    -0.221 NA
ATOM     18  C   UNL     1      -5.856 -10.722  17.221  0.00  0.00    +0.215 A 
ATOM     20  C   UNL     1      -4.704 -11.083  17.900  0.00  0.00    +0.068 A 
ATOM     21  C   UNL     1      -3.502 -11.055  17.203  0.00  0.00    +0.019 A 
ATOM     22  C   UNL     1      -3.488 -10.674  15.866  0.00  0.00    +0.073 A 
ATOM     25  C   UNL     1      -4.695 -10.330  15.277  0.00  0.00    +0.127 A 
BRANCH  22  28
ATOM      2  F   UNL     1      -2.396 -10.457  13.748  0.00  0.00    -0.166 F 
ATOM      3  F   UNL     1      -1.373  -9.628  15.472  0.00  0.00    -0.166 F 
ATOM      4  F   UNL     1      -1.489 -11.784  15.213  0.00  0.00    -0.166 F 
ATOM     28  C   UNL     1      -2.218 -10.634  15.093  0.00  0.00    +0.419 C 
ENDBRANCH  22  28
ENDBRANCH   7  18
ENDBRANCH  12   7
TORSDOF 4
ENDMDL
MODEL 10
REMARK VINA RESULT:      -6.2     39.864     42.267
REMARK  Name = 75367641
REMARK  4 active torsions:
REMARK  status: ('A' for Active; 'I' for Inactive)
REMARK    1  A    between atoms: O_7  and  C_12
REMARK    2  A    between atoms: O_7  and  C_18
REMARK    3  A    between atoms: N_10  and  C_19
REMARK    4  A    between atoms: C_22  and  C_28
REMARK                            x       y       z     vdW  Elec       q    Type
REMARK                         _______ _______ _______ _____ _____    ______ ____
ROOT
ATOM      6  O   UNL     1      -8.809 -10.641  40.791  0.00  0.00    -0.375 OA
ATOM      8  O   UNL     1      -4.510  -9.266  41.286  0.00  0.00    -0.252 OA
ATOM      9  N   UNL     1      -6.729  -8.843  41.784  0.00  0.00    -0.280 N 
ATOM     10  N   UNL     1      -5.386  -7.167  40.807  0.00  0.00    -0.267 N 
ATOM     12  C   UNL     1      -8.746  -8.205  40.443  0.00  0.00    +0.218 C 
ATOM     13  C   UNL     1      -7.942  -8.014  41.732  0.00  0.00    +0.156 C 
ATOM     14  C   UNL     1      -6.930 -10.200  42.299  0.00  0.00    +0.137 C 
ATOM     15  C   UNL     1      -8.696  -9.602  39.824  0.00  0.00    +0.206 C 
ATOM     16  C   UNL     1      -7.542 -11.118  41.249  0.00  0.00    +0.179 C 
ATOM     17  C   UNL     1      -5.455  -8.473  41.292  0.00  0.00    +0.307 C 
ATOM     30  H   UNL     1      -6.242  -6.745  40.459  0.00  0.00    +0.156 HD
ENDROOT
BRANCH  10  19
ATOM      1  F   UNL     1      -4.691  -5.650  43.040  0.00  0.00    -0.203 F 
ATOM      5  F   UNL     1      -0.979  -3.799  40.763  0.00  0.00    -0.205 F 
ATOM     19  C   UNL     1      -4.261  -6.306  40.798  0.00  0.00    +0.070 A 
ATOM     23  C   UNL     1      -3.940  -5.560  41.933  0.00  0.00    +0.147 A 
ATOM     24  C   UNL     1      -3.472  -6.205  39.651  0.00  0.00    +0.029 A 
ATOM     26  C   UNL     1      -2.832  -4.714  41.921  0.00  0.00    +0.078 A 
ATOM     27  C   UNL     1      -2.365  -5.358  39.640  0.00  0.00    +0.040 A 
ATOM     29  C   UNL     1      -2.044  -4.612  40.774  0.00  0.00    +0.126 A 
ENDBRANCH  10  19
BRANCH  12   7
ATOM      7  O   UNL     1      -8.300  -7.257  39.473  0.00  0.00    -0.469 OA
BRANCH   7  18
ATOM     11  N   UNL     1     -10.187  -5.908  39.466  0.00  0.00    -0.221 NA
ATOM     18  C   UNL     1      -8.840  -6.002  39.550  0.00  0.00    +0.215 A 
ATOM     20  C   UNL     1      -7.995  -4.915  39.707  0.00  0.00    +0.068 A 
ATOM     21  C   UNL     1      -8.568  -3.651  39.782  0.00  0.00    +0.019 A 
ATOM     22  C   UNL     1      -9.949  -3.514  39.699  0.00  0.00    +0.073 A 
ATOM     25  C   UNL     1     -10.707  -4.663  39.543  0.00  0.00    +0.127 A 
BRANCH  22  28
ATOM      2  F   UNL     1     -11.820  -2.186  40.380  0.00  0.00    -0.166 F 
ATOM      3  F   UNL     1      -9.864  -1.254  40.479  0.00  0.00    -0.166 F 
ATOM      4  F   UNL     1     -10.796  -1.613  38.548  0.00  0.00    -0.166 F 
ATOM     28  C   UNL     1     -10.592  -2.174  39.777  0.00  0.00    +0.419 C 
ENDBRANCH  22  28
ENDBRANCH   7  18
ENDBRANCH  12   7
TORSDOF 4
ENDMDL
