MODEL 1
REMARK VINA RESULT:      -6.7      0.000      0.000
REMARK  Name = 45783433
REMARK  11 active torsions:
REMARK  status: ('A' for Active; 'I' for Inactive)
REMARK    1  A    between atoms: S_1  and  C_23
REMARK    2  A    between atoms: S_1  and  C_27
REMARK    3  A    between atoms: O_5  and  C_25
REMARK    4  A    between atoms: O_5  and  C_30
REMARK    5  A    between atoms: O_6  and  C_31
REMARK    6  A    between atoms: O_6  and  C_32
REMARK    7  A    between atoms: N_7  and  C_15
REMARK    8  A    between atoms: C_11  and  C_16
REMARK    9  A    between atoms: C_15  and  C_17
REMARK   10  A    between atoms: C_20  and  C_24
REMARK   11  A    between atoms: C_30  and  C_31
REMARK                            x       y       z     vdW  Elec       q    Type
REMARK                         _______ _______ _______ _____ _____    ______ ____
ROOT
ATOM      7  N   UNL     1      12.569   8.661  18.693  0.00  0.00    -0.287 NA
ATOM     11  C   UNL     1      13.369   7.471  18.344  0.00  0.00    +0.146 C 
ATOM     12  C   UNL     1      13.878   7.746  16.917  0.00  0.00    +0.030 C 
ATOM     13  C   UNL     1      13.263   9.082  16.526  0.00  0.00    +0.017 C 
ATOM     14  C   UNL     1      12.054   9.196  17.433  0.00  0.00    +0.085 C 
ENDROOT
BRANCH  11  16
ATOM      2  O   UNL     1      14.143   6.663  20.517  0.00  0.00    -0.336 OA
ATOM      8  N   UNL     1      15.774   7.454  19.202  0.00  0.00    -0.190 NA
ATOM      9  N   UNL     1      15.332   6.527  21.246  0.00  0.00    -0.056 NA
ATOM     16  C   UNL     1      14.493   7.216  19.327  0.00  0.00    +0.245 A 
ATOM     20  C   UNL     1      16.248   7.015  20.404  0.00  0.00    +0.207 A 
BRANCH  20  24
ATOM     10  N   UNL     1      19.490   8.227  21.784  0.00  0.00    -0.221 NA
ATOM     24  C   UNL     1      17.643   7.076  20.733  0.00  0.00    +0.084 A 
ATOM     25  C   UNL     1      18.183   8.129  21.452  0.00  0.00    +0.226 A 
ATOM     26  C   UNL     1      18.498   6.057  20.328  0.00  0.00    +0.018 A 
ATOM     28  C   UNL     1      19.850   6.122  20.650  0.00  0.00    +0.021 A 
ATOM     29  C   UNL     1      20.292   7.218  21.374  0.00  0.00    +0.114 A 
BRANCH  25   5
ATOM      5  O   UNL     1      17.380   9.158  21.874  0.00  0.00    -0.474 OA
BRANCH   5  30
ATOM     30  C   UNL     1      17.915  10.471  21.767  0.00  0.00    +0.258 C 
BRANCH  30  31
ATOM     31  C   UNL     1      17.452  11.088  20.461  0.00  0.00    +0.200 C 
BRANCH  31   6
ATOM      6  O   UNL     1      16.034  11.202  20.479  0.00  0.00    -0.380 OA
ATOM     32  C   UNL     1      15.482  11.043  19.179  0.00  0.00    +0.194 C 
ENDBRANCH  31   6
ENDBRANCH  30  31
ENDBRANCH   5  30
ENDBRANCH  25   5
ENDBRANCH  20  24
ENDBRANCH  11  16
BRANCH   7  15
ATOM     15  C   UNL     1      11.502   8.376  19.644  0.00  0.00    +0.120 C 
BRANCH  15  17
ATOM     17  C   UNL     1      11.534   9.316  20.821  0.00  0.00    -0.033 A 
ATOM     18  C   UNL     1      10.758   9.047  21.949  0.00  0.00    +0.007 A 
ATOM     19  C   UNL     1      12.340  10.454  20.783  0.00  0.00    +0.007 A 
ATOM     21  C   UNL     1      10.788   9.916  23.038  0.00  0.00    +0.027 A 
ATOM     22  C   UNL     1      12.369  11.323  21.873  0.00  0.00    +0.027 A 
ATOM     23  C   UNL     1      11.594  11.054  23.001  0.00  0.00    +0.088 A 
BRANCH  23   1
ATOM      1  S   UNL     1      11.633  12.141  24.367  0.00  0.00    -0.006 S 
ATOM      3  O   UNL     1      10.513  11.835  25.246  0.00  0.00    -0.170 OA
ATOM      4  O   UNL     1      12.989  12.144  24.899  0.00  0.00    -0.170 OA
ATOM     27  C   UNL     1      11.318  13.745  23.665  0.00  0.00    +0.200 C 
ENDBRANCH  23   1
ENDBRANCH  15  17
ENDBRANCH   7  15
TORSDOF 9
ENDMDL
MODEL 2
REMARK VINA RESULT:      -6.6      3.156      6.040
REMARK  Name = 45783433
REMARK  11 active torsions:
REMARK  status: ('A' for Active; 'I' for Inactive)
REMARK    1  A    between atoms: S_1  and  C_23
REMARK    2  A    between atoms: S_1  and  C_27
REMARK    3  A    between atoms: O_5  and  C_25
REMARK    4  A    between atoms: O_5  and  C_30
REMARK    5  A    between atoms: O_6  and  C_31
REMARK    6  A    between atoms: O_6  and  C_32
REMARK    7  A    between atoms: N_7  and  C_15
REMARK    8  A    between atoms: C_11  and  C_16
REMARK    9  A    between atoms: C_15  and  C_17
REMARK   10  A    between atoms: C_20  and  C_24
REMARK   11  A    between atoms: C_30  and  C_31
REMARK                            x       y       z     vdW  Elec       q    Type
REMARK                         _______ _______ _______ _____ _____    ______ ____
ROOT
ATOM      7  N   UNL     1      13.069  11.969  21.080  0.00  0.00    -0.287 NA
ATOM     11  C   UNL     1      13.492  11.208  22.273  0.00  0.00    +0.146 C 
ATOM     12  C   UNL     1      12.233  11.134  23.157  0.00  0.00    +0.030 C 
ATOM     13  C   UNL     1      11.174  11.931  22.409  0.00  0.00    +0.017 C 
ATOM     14  C   UNL     1      11.985  12.849  21.516  0.00  0.00    +0.085 C 
ENDROOT
BRANCH  11  16
ATOM      2  O   UNL     1      13.368   8.771  22.420  0.00  0.00    -0.336 OA
ATOM      8  N   UNL     1      15.094   9.527  21.210  0.00  0.00    -0.190 NA
ATOM      9  N   UNL     1      14.058   7.637  21.974  0.00  0.00    -0.056 NA
ATOM     16  C   UNL     1      14.044   9.841  21.926  0.00  0.00    +0.245 A 
ATOM     20  C   UNL     1      15.062   8.164  21.268  0.00  0.00    +0.207 A 
BRANCH  20  24
ATOM     10  N   UNL     1      16.626   5.779  18.871  0.00  0.00    -0.221 NA
ATOM     24  C   UNL     1      16.047   7.358  20.607  0.00  0.00    +0.084 A 
ATOM     25  C   UNL     1      15.731   6.553  19.524  0.00  0.00    +0.226 A 
ATOM     26  C   UNL     1      17.365   7.369  21.047  0.00  0.00    +0.018 A 
ATOM     28  C   UNL     1      18.316   6.586  20.401  0.00  0.00    +0.021 A 
ATOM     29  C   UNL     1      17.899   5.816  19.327  0.00  0.00    +0.114 A 
BRANCH  25   5
ATOM      5  O   UNL     1      14.444   6.508  19.052  0.00  0.00    -0.474 OA
BRANCH   5  30
ATOM     30  C   UNL     1      14.120   7.404  17.997  0.00  0.00    +0.258 C 
BRANCH  30  31
ATOM     31  C   UNL     1      12.610   7.490  17.869  0.00  0.00    +0.200 C 
BRANCH  31   6
ATOM      6  O   UNL     1      12.027   7.365  19.160  0.00  0.00    -0.380 OA
ATOM     32  C   UNL     1      11.304   8.533  19.521  0.00  0.00    +0.194 C 
ENDBRANCH  31   6
ENDBRANCH  30  31
ENDBRANCH   5  30
ENDBRANCH  25   5
ENDBRANCH  20  24
ENDBRANCH  11  16
BRANCH   7  15
ATOM     15  C   UNL     1      14.158  12.708  20.456  0.00  0.00    +0.120 C 
BRANCH  15  17
ATOM     17  C   UNL     1      14.381  12.279  19.029  0.00  0.00    -0.033 A 
ATOM     18  C   UNL     1      15.445  12.811  18.299  0.00  0.00    +0.007 A 
ATOM     19  C   UNL     1      13.524  11.350  18.438  0.00  0.00    +0.007 A 
ATOM     21  C   UNL     1      15.651  12.414  16.979  0.00  0.00    +0.027 A 
ATOM     22  C   UNL     1      13.732  10.954  17.117  0.00  0.00    +0.027 A 
ATOM     23  C   UNL     1      14.795  11.485  16.388  0.00  0.00    +0.088 A 
BRANCH  23   1
ATOM      1  S   UNL     1      15.056  10.986  14.735  0.00  0.00    -0.006 S 
ATOM      3  O   UNL     1      15.064   9.531  14.677  0.00  0.00    -0.170 OA
ATOM      4  O   UNL     1      14.138  11.737  13.889  0.00  0.00    -0.170 OA
ATOM     27  C   UNL     1      16.709  11.529  14.365  0.00  0.00    +0.200 C 
ENDBRANCH  23   1
ENDBRANCH  15  17
ENDBRANCH   7  15
TORSDOF 9
ENDMDL
MODEL 3
REMARK VINA RESULT:      -6.3      3.340      8.316
REMARK  Name = 45783433
REMARK  11 active torsions:
REMARK  status: ('A' for Active; 'I' for Inactive)
REMARK    1  A    between atoms: S_1  and  C_23
REMARK    2  A    between atoms: S_1  and  C_27
REMARK    3  A    between atoms: O_5  and  C_25
REMARK    4  A    between atoms: O_5  and  C_30
REMARK    5  A    between atoms: O_6  and  C_31
REMARK    6  A    between atoms: O_6  and  C_32
REMARK    7  A    between atoms: N_7  and  C_15
REMARK    8  A    between atoms: C_11  and  C_16
REMARK    9  A    between atoms: C_15  and  C_17
REMARK   10  A    between atoms: C_20  and  C_24
REMARK   11  A    between atoms: C_30  and  C_31
REMARK                            x       y       z     vdW  Elec       q    Type
REMARK                         _______ _______ _______ _____ _____    ______ ____
ROOT
ATOM      7  N   UNL     1      17.743  10.196  20.664  0.00  0.00    -0.287 NA
ATOM     11  C   UNL     1      16.436  10.843  20.429  0.00  0.00    +0.146 C 
ATOM     12  C   UNL     1      16.779  12.183  19.751  0.00  0.00    +0.030 C 
ATOM     13  C   UNL     1      18.300  12.227  19.705  0.00  0.00    +0.017 C 
ATOM     14  C   UNL     1      18.718  11.277  20.808  0.00  0.00    +0.085 C 
ENDROOT
BRANCH  11  16
ATOM      2  O   UNL     1      15.787   8.659  19.542  0.00  0.00    -0.336 OA
ATOM      8  N   UNL     1      14.451  10.339  18.903  0.00  0.00    -0.190 NA
ATOM      9  N   UNL     1      14.804   8.087  18.724  0.00  0.00    -0.056 NA
ATOM     16  C   UNL     1      15.505   9.988  19.595  0.00  0.00    +0.245 A 
ATOM     20  C   UNL     1      14.055   9.140  18.387  0.00  0.00    +0.207 A 
BRANCH  20  24
ATOM     10  N   UNL     1      10.659   8.213  17.166  0.00  0.00    -0.221 NA
ATOM     24  C   UNL     1      12.904   9.028  17.538  0.00  0.00    +0.084 A 
ATOM     25  C   UNL     1      11.766   8.343  17.931  0.00  0.00    +0.226 A 
ATOM     26  C   UNL     1      12.908   9.616  16.279  0.00  0.00    +0.018 A 
ATOM     28  C   UNL     1      11.788   9.504  15.462  0.00  0.00    +0.021 A 
ATOM     29  C   UNL     1      10.699   8.799  15.948  0.00  0.00    +0.114 A 
BRANCH  25   5
ATOM      5  O   UNL     1      11.713   7.746  19.164  0.00  0.00    -0.474 OA
BRANCH   5  30
ATOM     30  C   UNL     1      10.981   8.428  20.174  0.00  0.00    +0.258 C 
BRANCH  30  31
ATOM     31  C   UNL     1      10.739   7.481  21.334  0.00  0.00    +0.200 C 
BRANCH  31   6
ATOM      6  O   UNL     1      11.028   8.156  22.552  0.00  0.00    -0.380 OA
ATOM     32  C   UNL     1      10.742   9.545  22.459  0.00  0.00    +0.194 C 
ENDBRANCH  31   6
ENDBRANCH  30  31
ENDBRANCH   5  30
ENDBRANCH  25   5
ENDBRANCH  20  24
ENDBRANCH  11  16
BRANCH   7  15
ATOM     15  C   UNL     1      17.741   9.302  21.814  0.00  0.00    +0.120 C 
BRANCH  15  17
ATOM     17  C   UNL     1      18.704   8.157  21.635  0.00  0.00    -0.033 A 
ATOM     18  C   UNL     1      19.941   8.181  22.280  0.00  0.00    +0.007 A 
ATOM     19  C   UNL     1      18.358   7.075  20.827  0.00  0.00    +0.007 A 
ATOM     21  C   UNL     1      20.832   7.121  22.115  0.00  0.00    +0.027 A 
ATOM     22  C   UNL     1      19.251   6.016  20.662  0.00  0.00    +0.027 A 
ATOM     23  C   UNL     1      20.487   6.038  21.306  0.00  0.00    +0.088 A 
BRANCH  23   1
ATOM      1  S   UNL     1      21.603   4.711  21.103  0.00  0.00    -0.006 S 
ATOM      3  O   UNL     1      20.854   3.518  20.730  0.00  0.00    -0.170 OA
ATOM      4  O   UNL     1      22.697   5.169  20.259  0.00  0.00    -0.170 OA
ATOM     27  C   UNL     1      22.253   4.426  22.734  0.00  0.00    +0.200 C 
ENDBRANCH  23   1
ENDBRANCH  15  17
ENDBRANCH   7  15
TORSDOF 9
ENDMDL
MODEL 4
REMARK VINA RESULT:      -5.9      3.821      7.544
REMARK  Name = 45783433
REMARK  11 active torsions:
REMARK  status: ('A' for Active; 'I' for Inactive)
REMARK    1  A    between atoms: S_1  and  C_23
REMARK    2  A    between atoms: S_1  and  C_27
REMARK    3  A    between atoms: O_5  and  C_25
REMARK    4  A    between atoms: O_5  and  C_30
REMARK    5  A    between atoms: O_6  and  C_31
REMARK    6  A    between atoms: O_6  and  C_32
REMARK    7  A    between atoms: N_7  and  C_15
REMARK    8  A    between atoms: C_11  and  C_16
REMARK    9  A    between atoms: C_15  and  C_17
REMARK   10  A    between atoms: C_20  and  C_24
REMARK   11  A    between atoms: C_30  and  C_31
REMARK                            x       y       z     vdW  Elec       q    Type
REMARK                         _______ _______ _______ _____ _____    ______ ____
ROOT
ATOM      7  N   UNL     1      14.125   7.977  19.969  0.00  0.00    -0.287 NA
ATOM     11  C   UNL     1      13.701   8.034  21.382  0.00  0.00    +0.146 C 
ATOM     12  C   UNL     1      14.849   7.366  22.162  0.00  0.00    +0.030 C 
ATOM     13  C   UNL     1      15.841   6.913  21.101  0.00  0.00    +0.017 C 
ATOM     14  C   UNL     1      14.997   6.809  19.847  0.00  0.00    +0.085 C 
ENDROOT
BRANCH  11  16
ATOM      2  O   UNL     1      14.462  10.317  21.807  0.00  0.00    -0.336 OA
ATOM      8  N   UNL     1      12.306   9.967  22.298  0.00  0.00    -0.190 NA
ATOM      9  N   UNL     1      13.967  11.539  22.281  0.00  0.00    -0.056 NA
ATOM     16  C   UNL     1      13.420   9.447  21.850  0.00  0.00    +0.245 A 
ATOM     20  C   UNL     1      12.691  11.252  22.550  0.00  0.00    +0.207 A 
BRANCH  20  24
ATOM     10  N   UNL     1      10.798  13.373  24.959  0.00  0.00    -0.221 NA
ATOM     24  C   UNL     1      11.773  12.225  23.068  0.00  0.00    +0.084 A 
ATOM     25  C   UNL     1      11.647  12.466  24.426  0.00  0.00    +0.226 A 
ATOM     26  C   UNL     1      10.976  12.962  22.200  0.00  0.00    +0.018 A 
ATOM     28  C   UNL     1      10.090  13.905  22.709  0.00  0.00    +0.021 A 
ATOM     29  C   UNL     1      10.039  14.072  24.083  0.00  0.00    +0.114 A 
BRANCH  25   5
ATOM      5  O   UNL     1      12.412  11.765  25.323  0.00  0.00    -0.474 OA
BRANCH   5  30
ATOM     30  C   UNL     1      13.506  12.459  25.910  0.00  0.00    +0.258 C 
BRANCH  30  31
ATOM     31  C   UNL     1      14.725  11.556  25.904  0.00  0.00    +0.200 C 
BRANCH  31   6
ATOM      6  O   UNL     1      14.847  10.933  27.176  0.00  0.00    -0.380 OA
ATOM     32  C   UNL     1      16.097  11.229  27.784  0.00  0.00    +0.194 C 
ENDBRANCH  31   6
ENDBRANCH  30  31
ENDBRANCH   5  30
ENDBRANCH  25   5
ENDBRANCH  20  24
ENDBRANCH  11  16
BRANCH   7  15
ATOM     15  C   UNL     1      13.007   7.928  19.036  0.00  0.00    +0.120 C 
BRANCH  15  17
ATOM     17  C   UNL     1      13.217   8.845  17.860  0.00  0.00    -0.033 A 
ATOM     18  C   UNL     1      14.282   9.747  17.862  0.00  0.00    +0.007 A 
ATOM     19  C   UNL     1      12.348   8.792  16.770  0.00  0.00    +0.007 A 
ATOM     21  C   UNL     1      14.476  10.596  16.773  0.00  0.00    +0.027 A 
ATOM     22  C   UNL     1      12.544   9.642  15.682  0.00  0.00    +0.027 A 
ATOM     23  C   UNL     1      13.608  10.543  15.683  0.00  0.00    +0.088 A 
BRANCH  23   1
ATOM      1  S   UNL     1      13.854  11.605  14.318  0.00  0.00    -0.006 S 
ATOM      3  O   UNL     1      15.078  11.214  13.632  0.00  0.00    -0.170 OA
ATOM      4  O   UNL     1      12.603  11.681  13.577  0.00  0.00    -0.170 OA
ATOM     27  C   UNL     1      14.155  13.199  15.048  0.00  0.00    +0.200 C 
ENDBRANCH  23   1
ENDBRANCH  15  17
ENDBRANCH   7  15
TORSDOF 9
ENDMDL
MODEL 5
REMARK VINA RESULT:      -5.8      2.645      4.062
REMARK  Name = 45783433
REMARK  11 active torsions:
REMARK  status: ('A' for Active; 'I' for Inactive)
REMARK    1  A    between atoms: S_1  and  C_23
REMARK    2  A    between atoms: S_1  and  C_27
REMARK    3  A    between atoms: O_5  and  C_25
REMARK    4  A    between atoms: O_5  and  C_30
REMARK    5  A    between atoms: O_6  and  C_31
REMARK    6  A    between atoms: O_6  and  C_32
REMARK    7  A    between atoms: N_7  and  C_15
REMARK    8  A    between atoms: C_11  and  C_16
REMARK    9  A    between atoms: C_15  and  C_17
REMARK   10  A    between atoms: C_20  and  C_24
REMARK   11  A    between atoms: C_30  and  C_31
REMARK                            x       y       z     vdW  Elec       q    Type
REMARK                         _______ _______ _______ _____ _____    ______ ____
ROOT
ATOM      7  N   UNL     1      14.891   7.849  20.490  0.00  0.00    -0.287 NA
ATOM     11  C   UNL     1      15.790   6.730  20.145  0.00  0.00    +0.146 C 
ATOM     12  C   UNL     1      15.710   6.622  18.611  0.00  0.00    +0.030 C 
ATOM     13  C   UNL     1      14.697   7.678  18.190  0.00  0.00    +0.017 C 
ATOM     14  C   UNL     1      13.872   7.898  19.442  0.00  0.00    +0.085 C 
ENDROOT
BRANCH  11  16
ATOM      2  O   UNL     1      17.533   8.212  21.006  0.00  0.00    -0.336 OA
ATOM      8  N   UNL     1      18.177   6.079  20.778  0.00  0.00    -0.190 NA
ATOM      9  N   UNL     1      18.869   8.162  21.423  0.00  0.00    -0.056 NA
ATOM     16  C   UNL     1      17.205   6.945  20.642  0.00  0.00    +0.245 A 
ATOM     20  C   UNL     1      19.178   6.872  21.259  0.00  0.00    +0.207 A 
BRANCH  20  24
ATOM     10  N   UNL     1      22.147   5.749  23.210  0.00  0.00    -0.221 NA
ATOM     24  C   UNL     1      20.475   6.344  21.569  0.00  0.00    +0.084 A 
ATOM     25  C   UNL     1      20.934   6.241  22.872  0.00  0.00    +0.226 A 
ATOM     26  C   UNL     1      21.315   5.915  20.547  0.00  0.00    +0.018 A 
ATOM     28  C   UNL     1      22.571   5.404  20.855  0.00  0.00    +0.021 A 
ATOM     29  C   UNL     1      22.936   5.342  22.190  0.00  0.00    +0.114 A 
BRANCH  25   5
ATOM      5  O   UNL     1      20.143   6.650  23.915  0.00  0.00    -0.474 OA
BRANCH   5  30
ATOM     30  C   UNL     1      20.592   7.780  24.652  0.00  0.00    +0.258 C 
BRANCH  30  31
ATOM     31  C   UNL     1      20.199   7.609  26.107  0.00  0.00    +0.200 C 
BRANCH  31   6
ATOM      6  O   UNL     1      19.960   6.231  26.364  0.00  0.00    -0.380 OA
ATOM     32  C   UNL     1      20.654   5.788  27.522  0.00  0.00    +0.194 C 
ENDBRANCH  31   6
ENDBRANCH  30  31
ENDBRANCH   5  30
ENDBRANCH  25   5
ENDBRANCH  20  24
ENDBRANCH  11  16
BRANCH   7  15
ATOM     15  C   UNL     1      14.306   7.725  21.819  0.00  0.00    +0.120 C 
BRANCH  15  17
ATOM     17  C   UNL     1      13.501   8.942  22.192  0.00  0.00    -0.033 A 
ATOM     18  C   UNL     1      14.145  10.155  22.440  0.00  0.00    +0.007 A 
ATOM     19  C   UNL     1      12.112   8.857  22.289  0.00  0.00    +0.007 A 
ATOM     21  C   UNL     1      13.399  11.282  22.784  0.00  0.00    +0.027 A 
ATOM     22  C   UNL     1      11.367   9.984  22.634  0.00  0.00    +0.027 A 
ATOM     23  C   UNL     1      12.010  11.196  22.881  0.00  0.00    +0.088 A 
BRANCH  23   1
ATOM      1  S   UNL     1      11.077  12.608  23.310  0.00  0.00    -0.006 S 
ATOM      3  O   UNL     1      10.558  13.219  22.094  0.00  0.00    -0.170 OA
ATOM      4  O   UNL     1      10.160  12.233  24.378  0.00  0.00    -0.170 OA
ATOM     27  C   UNL     1      12.272  13.738  23.988  0.00  0.00    +0.200 C 
ENDBRANCH  23   1
ENDBRANCH  15  17
ENDBRANCH   7  15
TORSDOF 9
ENDMDL
MODEL 6
REMARK VINA RESULT:      -5.8     27.122     29.691
REMARK  Name = 45783433
REMARK  11 active torsions:
REMARK  status: ('A' for Active; 'I' for Inactive)
REMARK    1  A    between atoms: S_1  and  C_23
REMARK    2  A    between atoms: S_1  and  C_27
REMARK    3  A    between atoms: O_5  and  C_25
REMARK    4  A    between atoms: O_5  and  C_30
REMARK    5  A    between atoms: O_6  and  C_31
REMARK    6  A    between atoms: O_6  and  C_32
REMARK    7  A    between atoms: N_7  and  C_15
REMARK    8  A    between atoms: C_11  and  C_16
REMARK    9  A    between atoms: C_15  and  C_17
REMARK   10  A    between atoms: C_20  and  C_24
REMARK   11  A    between atoms: C_30  and  C_31
REMARK                            x       y       z     vdW  Elec       q    Type
REMARK                         _______ _______ _______ _____ _____    ______ ____
ROOT
ATOM      7  N   UNL     1      -7.492 -10.792  17.256  0.00  0.00    -0.287 NA
ATOM     11  C   UNL     1      -6.144 -11.157  16.778  0.00  0.00    +0.146 C 
ATOM     12  C   UNL     1      -5.923 -12.593  17.290  0.00  0.00    +0.030 C 
ATOM     13  C   UNL     1      -7.170 -12.925  18.095  0.00  0.00    +0.017 C 
ATOM     14  C   UNL     1      -7.720 -11.566  18.477  0.00  0.00    +0.085 C 
ENDROOT
BRANCH  11  16
ATOM      2  O   UNL     1      -6.832 -11.835  14.532  0.00  0.00    -0.336 OA
ATOM      8  N   UNL     1      -5.208 -10.293  14.565  0.00  0.00    -0.190 NA
ATOM      9  N   UNL     1      -6.527 -11.561  13.193  0.00  0.00    -0.056 NA
ATOM     16  C   UNL     1      -6.010 -11.046  15.273  0.00  0.00    +0.245 A 
ATOM     20  C   UNL     1      -5.561 -10.644  13.294  0.00  0.00    +0.207 A 
BRANCH  20  24
ATOM     10  N   UNL     1      -3.097 -10.003  10.574  0.00  0.00    -0.221 NA
ATOM     24  C   UNL     1      -4.931 -10.057  12.147  0.00  0.00    +0.084 A 
ATOM     25  C   UNL     1      -3.726 -10.525  11.651  0.00  0.00    +0.226 A 
ATOM     26  C   UNL     1      -5.530  -8.984  11.496  0.00  0.00    +0.018 A 
ATOM     28  C   UNL     1      -4.915  -8.420  10.385  0.00  0.00    +0.021 A 
ATOM     29  C   UNL     1      -3.710  -8.962   9.967  0.00  0.00    +0.114 A 
BRANCH  25   5
ATOM      5  O   UNL     1      -3.096 -11.581  12.258  0.00  0.00    -0.474 OA
BRANCH   5  30
ATOM     30  C   UNL     1      -1.945 -11.277  13.036  0.00  0.00    +0.258 C 
BRANCH  30  31
ATOM     31  C   UNL     1      -1.895 -12.211  14.230  0.00  0.00    +0.200 C 
BRANCH  31   6
ATOM      6  O   UNL     1      -2.168 -11.468  15.412  0.00  0.00    -0.380 OA
ATOM     32  C   UNL     1      -1.206 -10.443  15.617  0.00  0.00    +0.194 C 
ENDBRANCH  31   6
ENDBRANCH  30  31
ENDBRANCH   5  30
ENDBRANCH  25   5
ENDBRANCH  20  24
ENDBRANCH  11  16
BRANCH   7  15
ATOM     15  C   UNL     1      -7.655  -9.361  17.475  0.00  0.00    +0.120 C 
BRANCH  15  17
ATOM     17  C   UNL     1      -8.849  -8.814  16.739  0.00  0.00    -0.033 A 
ATOM     18  C   UNL     1      -9.089  -9.196  15.418  0.00  0.00    +0.007 A 
ATOM     19  C   UNL     1      -9.715  -7.925  17.376  0.00  0.00    +0.007 A 
ATOM     21  C   UNL     1     -10.195  -8.690  14.736  0.00  0.00    +0.027 A 
ATOM     22  C   UNL     1     -10.821  -7.419  16.693  0.00  0.00    +0.027 A 
ATOM     23  C   UNL     1     -11.061  -7.801  15.374  0.00  0.00    +0.088 A 
BRANCH  23   1
ATOM      1  S   UNL     1     -12.447  -7.170  14.520  0.00  0.00    -0.006 S 
ATOM      3  O   UNL     1     -12.081  -5.908  13.893  0.00  0.00    -0.170 OA
ATOM      4  O   UNL     1     -13.003  -8.244  13.710  0.00  0.00    -0.170 OA
ATOM     27  C   UNL     1     -13.620  -6.791  15.803  0.00  0.00    +0.200 C 
ENDBRANCH  23   1
ENDBRANCH  15  17
ENDBRANCH   7  15
TORSDOF 9
ENDMDL
MODEL 7
REMARK VINA RESULT:      -5.7     27.209     29.691
REMARK  Name = 45783433
REMARK  11 active torsions:
REMARK  status: ('A' for Active; 'I' for Inactive)
REMARK    1  A    between atoms: S_1  and  C_23
REMARK    2  A    between atoms: S_1  and  C_27
REMARK    3  A    between atoms: O_5  and  C_25
REMARK    4  A    between atoms: O_5  and  C_30
REMARK    5  A    between atoms: O_6  and  C_31
REMARK    6  A    between atoms: O_6  and  C_32
REMARK    7  A    between atoms: N_7  and  C_15
REMARK    8  A    between atoms: C_11  and  C_16
REMARK    9  A    between atoms: C_15  and  C_17
REMARK   10  A    between atoms: C_20  and  C_24
REMARK   11  A    between atoms: C_30  and  C_31
REMARK                            x       y       z     vdW  Elec       q    Type
REMARK                         _______ _______ _______ _____ _____    ______ ____
ROOT
ATOM      7  N   UNL     1      -8.489 -10.401  18.126  0.00  0.00    -0.287 NA
ATOM     11  C   UNL     1      -7.312 -10.916  18.854  0.00  0.00    +0.146 C 
ATOM     12  C   UNL     1      -7.836 -12.137  19.631  0.00  0.00    +0.030 C 
ATOM     13  C   UNL     1      -9.326 -12.193  19.327  0.00  0.00    +0.017 C 
ATOM     14  C   UNL     1      -9.660 -10.772  18.921  0.00  0.00    +0.085 C 
ENDROOT
BRANCH  11  16
ATOM      2  O   UNL     1      -5.917 -12.582  17.734  0.00  0.00    -0.336 OA
ATOM      8  N   UNL     1      -5.352 -10.463  17.281  0.00  0.00    -0.190 NA
ATOM      9  N   UNL     1      -4.825 -12.648  16.859  0.00  0.00    -0.056 NA
ATOM     16  C   UNL     1      -6.162 -11.260  17.930  0.00  0.00    +0.245 A 
ATOM     20  C   UNL     1      -4.549 -11.360  16.638  0.00  0.00    +0.207 A 
BRANCH  20  24
ATOM     10  N   UNL     1      -2.687 -10.343  13.575  0.00  0.00    -0.221 NA
ATOM     24  C   UNL     1      -3.481 -10.936  15.780  0.00  0.00    +0.084 A 
ATOM     25  C   UNL     1      -3.663 -10.742  14.421  0.00  0.00    +0.226 A 
ATOM     26  C   UNL     1      -2.215 -10.705  16.306  0.00  0.00    +0.018 A 
ATOM     28  C   UNL     1      -1.184 -10.293  15.468  0.00  0.00    +0.021 A 
ATOM     29  C   UNL     1      -1.469 -10.127  14.122  0.00  0.00    +0.114 A 
BRANCH  25   5
ATOM      5  O   UNL     1      -4.894 -10.957  13.854  0.00  0.00    -0.474 OA
BRANCH   5  30
ATOM     30  C   UNL     1      -5.088 -10.454  12.538  0.00  0.00    +0.258 C 
BRANCH  30  31
ATOM     31  C   UNL     1      -6.214  -9.437  12.559  0.00  0.00    +0.200 C 
BRANCH  31   6
ATOM      6  O   UNL     1      -6.285  -8.798  11.290  0.00  0.00    -0.380 OA
ATOM     32  C   UNL     1      -4.992  -8.592  10.737  0.00  0.00    +0.194 C 
ENDBRANCH  31   6
ENDBRANCH  30  31
ENDBRANCH   5  30
ENDBRANCH  25   5
ENDBRANCH  20  24
ENDBRANCH  11  16
BRANCH   7  15
ATOM     15  C   UNL     1      -8.427  -8.967  17.877  0.00  0.00    +0.120 C 
BRANCH  15  17
ATOM     17  C   UNL     1      -9.450  -8.529  16.861  0.00  0.00    -0.033 A 
ATOM     18  C   UNL     1      -9.438  -9.080  15.579  0.00  0.00    +0.007 A 
ATOM     19  C   UNL     1     -10.408  -7.575  17.203  0.00  0.00    +0.007 A 
ATOM     21  C   UNL     1     -10.385  -8.676  14.639  0.00  0.00    +0.027 A 
ATOM     22  C   UNL     1     -11.355  -7.171  16.261  0.00  0.00    +0.027 A 
ATOM     23  C   UNL     1     -11.343  -7.721  14.980  0.00  0.00    +0.088 A 
BRANCH  23   1
ATOM      1  S   UNL     1     -12.531  -7.218  13.803  0.00  0.00    -0.006 S 
ATOM      3  O   UNL     1     -12.167  -7.763  12.502  0.00  0.00    -0.170 OA
ATOM      4  O   UNL     1     -13.851  -7.486  14.354  0.00  0.00    -0.170 OA
ATOM     27  C   UNL     1     -12.329  -5.453  13.699  0.00  0.00    +0.200 C 
ENDBRANCH  23   1
ENDBRANCH  15  17
ENDBRANCH   7  15
TORSDOF 9
ENDMDL
MODEL 8
REMARK VINA RESULT:      -5.7      2.267      6.495
REMARK  Name = 45783433
REMARK  11 active torsions:
REMARK  status: ('A' for Active; 'I' for Inactive)
REMARK    1  A    between atoms: S_1  and  C_23
REMARK    2  A    between atoms: S_1  and  C_27
REMARK    3  A    between atoms: O_5  and  C_25
REMARK    4  A    between atoms: O_5  and  C_30
REMARK    5  A    between atoms: O_6  and  C_31
REMARK    6  A    between atoms: O_6  and  C_32
REMARK    7  A    between atoms: N_7  and  C_15
REMARK    8  A    between atoms: C_11  and  C_16
REMARK    9  A    between atoms: C_15  and  C_17
REMARK   10  A    between atoms: C_20  and  C_24
REMARK   11  A    between atoms: C_30  and  C_31
REMARK                            x       y       z     vdW  Elec       q    Type
REMARK                         _______ _______ _______ _____ _____    ______ ____
ROOT
ATOM      7  N   UNL     1      18.685   7.068  20.952  0.00  0.00    -0.287 NA
ATOM     11  C   UNL     1      19.072   8.160  21.867  0.00  0.00    +0.146 C 
ATOM     12  C   UNL     1      20.576   8.371  21.610  0.00  0.00    +0.030 C 
ATOM     13  C   UNL     1      20.956   7.314  20.584  0.00  0.00    +0.017 C 
ATOM     14  C   UNL     1      19.884   6.256  20.748  0.00  0.00    +0.085 C 
ENDROOT
BRANCH  11  16
ATOM      2  O   UNL     1      18.460  10.431  22.531  0.00  0.00    -0.336 OA
ATOM      8  N   UNL     1      17.376   9.685  20.720  0.00  0.00    -0.190 NA
ATOM      9  N   UNL     1      17.611  11.471  22.130  0.00  0.00    -0.056 NA
ATOM     16  C   UNL     1      18.259   9.419  21.648  0.00  0.00    +0.245 A 
ATOM     20  C   UNL     1      17.005  10.955  21.057  0.00  0.00    +0.207 A 
BRANCH  20  24
ATOM     10  N   UNL     1      13.721  12.290  19.909  0.00  0.00    -0.221 NA
ATOM     24  C   UNL     1      16.028  11.681  20.299  0.00  0.00    +0.084 A 
ATOM     25  C   UNL     1      14.676  11.622  20.595  0.00  0.00    +0.226 A 
ATOM     26  C   UNL     1      16.426  12.476  19.230  0.00  0.00    +0.018 A 
ATOM     28  C   UNL     1      15.474  13.179  18.500  0.00  0.00    +0.021 A 
ATOM     29  C   UNL     1      14.146  13.053  18.877  0.00  0.00    +0.114 A 
BRANCH  25   5
ATOM      5  O   UNL     1      14.233  10.853  21.640  0.00  0.00    -0.474 OA
BRANCH   5  30
ATOM     30  C   UNL     1      12.827  10.677  21.753  0.00  0.00    +0.258 C 
BRANCH  30  31
ATOM     31  C   UNL     1      12.378  11.152  23.122  0.00  0.00    +0.200 C 
BRANCH  31   6
ATOM      6  O   UNL     1      11.115  10.571  23.423  0.00  0.00    -0.380 OA
ATOM     32  C   UNL     1      10.918   9.356  22.714  0.00  0.00    +0.194 C 
ENDBRANCH  31   6
ENDBRANCH  30  31
ENDBRANCH   5  30
ENDBRANCH  25   5
ENDBRANCH  20  24
ENDBRANCH  11  16
BRANCH   7  15
ATOM     15  C   UNL     1      17.564   6.277  21.443  0.00  0.00    +0.120 C 
BRANCH  15  17
ATOM     17  C   UNL     1      16.275   6.644  20.755  0.00  0.00    -0.033 A 
ATOM     18  C   UNL     1      16.196   6.615  19.362  0.00  0.00    +0.007 A 
ATOM     19  C   UNL     1      15.161   7.011  21.510  0.00  0.00    +0.007 A 
ATOM     21  C   UNL     1      15.002   6.953  18.726  0.00  0.00    +0.027 A 
ATOM     22  C   UNL     1      13.969   7.349  20.872  0.00  0.00    +0.027 A 
ATOM     23  C   UNL     1      13.889   7.321  19.481  0.00  0.00    +0.088 A 
BRANCH  23   1
ATOM      1  S   UNL     1      12.394   7.742  18.682  0.00  0.00    -0.006 S 
ATOM      3  O   UNL     1      12.272   6.954  17.464  0.00  0.00    -0.170 OA
ATOM      4  O   UNL     1      11.329   7.706  19.675  0.00  0.00    -0.170 OA
ATOM     27  C   UNL     1      12.621   9.434  18.184  0.00  0.00    +0.200 C 
ENDBRANCH  23   1
ENDBRANCH  15  17
ENDBRANCH   7  15
TORSDOF 9
ENDMDL
MODEL 9
REMARK VINA RESULT:      -5.6     17.544     21.230
REMARK  Name = 45783433
REMARK  11 active torsions:
REMARK  status: ('A' for Active; 'I' for Inactive)
REMARK    1  A    between atoms: S_1  and  C_23
REMARK    2  A    between atoms: S_1  and  C_27
REMARK    3  A    between atoms: O_5  and  C_25
REMARK    4  A    between atoms: O_5  and  C_30
REMARK    5  A    between atoms: O_6  and  C_31
REMARK    6  A    between atoms: O_6  and  C_32
REMARK    7  A    between atoms: N_7  and  C_15
REMARK    8  A    between atoms: C_11  and  C_16
REMARK    9  A    between atoms: C_15  and  C_17
REMARK   10  A    between atoms: C_20  and  C_24
REMARK   11  A    between atoms: C_30  and  C_31
REMARK                            x       y       z     vdW  Elec       q    Type
REMARK                         _______ _______ _______ _____ _____    ______ ____
ROOT
ATOM      7  N   UNL     1      13.157   3.950  -0.269  0.00  0.00    -0.287 NA
ATOM     11  C   UNL     1      13.295   3.568   1.151  0.00  0.00    +0.146 C 
ATOM     12  C   UNL     1      14.706   4.041   1.548  0.00  0.00    +0.030 C 
ATOM     13  C   UNL     1      15.305   4.619   0.274  0.00  0.00    +0.017 C 
ATOM     14  C   UNL     1      14.509   3.952  -0.829  0.00  0.00    +0.085 C 
ENDROOT
BRANCH  11  16
ATOM      2  O   UNL     1      11.500   3.297   2.788  0.00  0.00    -0.336 OA
ATOM      8  N   UNL     1      11.847   5.416   2.154  0.00  0.00    -0.190 NA
ATOM      9  N   UNL     1      10.571   4.072   3.493  0.00  0.00    -0.056 NA
ATOM     16  C   UNL     1      12.211   4.166   2.023  0.00  0.00    +0.245 A 
ATOM     20  C   UNL     1      10.837   5.309   3.066  0.00  0.00    +0.207 A 
BRANCH  20  24
ATOM     10  N   UNL     1       9.505   7.947   5.335  0.00  0.00    -0.221 NA
ATOM     24  C   UNL     1      10.117   6.458   3.531  0.00  0.00    +0.084 A 
ATOM     25  C   UNL     1      10.166   6.871   4.853  0.00  0.00    +0.226 A 
ATOM     26  C   UNL     1       9.338   7.197   2.648  0.00  0.00    +0.018 A 
ATOM     28  C   UNL     1       8.642   8.311   3.106  0.00  0.00    +0.021 A 
ATOM     29  C   UNL     1       8.758   8.641   4.446  0.00  0.00    +0.114 A 
BRANCH  25   5
ATOM      5  O   UNL     1      10.921   6.176   5.763  0.00  0.00    -0.474 OA
BRANCH   5  30
ATOM     30  C   UNL     1      11.238   6.847   6.975  0.00  0.00    +0.258 C 
BRANCH  30  31
ATOM     31  C   UNL     1      10.327   6.337   8.076  0.00  0.00    +0.200 C 
BRANCH  31   6
ATOM      6  O   UNL     1      10.735   5.026   8.445  0.00  0.00    -0.380 OA
ATOM     32  C   UNL     1       9.621   4.208   8.777  0.00  0.00    +0.194 C 
ENDBRANCH  31   6
ENDBRANCH  30  31
ENDBRANCH   5  30
ENDBRANCH  25   5
ENDBRANCH  20  24
ENDBRANCH  11  16
BRANCH   7  15
ATOM     15  C   UNL     1      12.256   3.079  -1.012  0.00  0.00    +0.120 C 
BRANCH  15  17
ATOM     17  C   UNL     1      11.151   3.854  -1.679  0.00  0.00    -0.033 A 
ATOM     18  C   UNL     1      10.729   3.503  -2.962  0.00  0.00    +0.007 A 
ATOM     19  C   UNL     1      10.548   4.922  -1.014  0.00  0.00    +0.007 A 
ATOM     21  C   UNL     1       9.705   4.220  -3.580  0.00  0.00    +0.027 A 
ATOM     22  C   UNL     1       9.524   5.638  -1.632  0.00  0.00    +0.027 A 
ATOM     23  C   UNL     1       9.102   5.288  -2.915  0.00  0.00    +0.088 A 
BRANCH  23   1
ATOM      1  S   UNL     1       7.818   6.183  -3.687  0.00  0.00    -0.006 S 
ATOM      3  O   UNL     1       7.023   5.268  -4.494  0.00  0.00    -0.170 OA
ATOM      4  O   UNL     1       7.169   7.002  -2.673  0.00  0.00    -0.170 OA
ATOM     27  C   UNL     1       8.657   7.273  -4.816  0.00  0.00    +0.200 C 
ENDBRANCH  23   1
ENDBRANCH  15  17
ENDBRANCH   7  15
TORSDOF 9
ENDMDL
MODEL 10
REMARK VINA RESULT:      -5.6     33.096     35.153
REMARK  Name = 45783433
REMARK  11 active torsions:
REMARK  status: ('A' for Active; 'I' for Inactive)
REMARK    1  A    between atoms: S_1  and  C_23
REMARK    2  A    between atoms: S_1  and  C_27
REMARK    3  A    between atoms: O_5  and  C_25
REMARK    4  A    between atoms: O_5  and  C_30
REMARK    5  A    between atoms: O_6  and  C_31
REMARK    6  A    between atoms: O_6  and  C_32
REMARK    7  A    between atoms: N_7  and  C_15
REMARK    8  A    between atoms: C_11  and  C_16
REMARK    9  A    between atoms: C_15  and  C_17
REMARK   10  A    between atoms: C_20  and  C_24
REMARK   11  A    between atoms: C_30  and  C_31
REMARK                            x       y       z     vdW  Elec       q    Type
REMARK                         _______ _______ _______ _____ _____    ______ ____
ROOT
ATOM      7  N   UNL     1       3.699 -15.739  -0.332  0.00  0.00    -0.287 NA
ATOM     11  C   UNL     1       3.321 -16.646   0.769  0.00  0.00    +0.146 C 
ATOM     12  C   UNL     1       4.438 -16.478   1.816  0.00  0.00    +0.030 C 
ATOM     13  C   UNL     1       5.427 -15.506   1.190  0.00  0.00    +0.017 C 
ATOM     14  C   UNL     1       5.158 -15.632  -0.296  0.00  0.00    +0.085 C 
ENDROOT
BRANCH  11  16
ATOM      2  O   UNL     1       1.002 -17.307   1.171  0.00  0.00    -0.336 OA
ATOM      8  N   UNL     1       1.520 -15.272   1.949  0.00  0.00    -0.190 NA
ATOM      9  N   UNL     1      -0.167 -16.805   1.757  0.00  0.00    -0.056 NA
ATOM     16  C   UNL     1       1.946 -16.342   1.328  0.00  0.00    +0.245 A 
ATOM     20  C   UNL     1       0.219 -15.602   2.192  0.00  0.00    +0.207 A 
BRANCH  20  24
ATOM     10  N   UNL     1      -2.276 -12.901   2.801  0.00  0.00    -0.221 NA
ATOM     24  C   UNL     1      -0.670 -14.707   2.875  0.00  0.00    +0.084 A 
ATOM     25  C   UNL     1      -1.425 -13.763   2.199  0.00  0.00    +0.226 A 
ATOM     26  C   UNL     1      -0.796 -14.772   4.258  0.00  0.00    +0.018 A 
ATOM     28  C   UNL     1      -1.660 -13.902   4.915  0.00  0.00    +0.021 A 
ATOM     29  C   UNL     1      -2.371 -12.994   4.147  0.00  0.00    +0.114 A 
BRANCH  25   5
ATOM      5  O   UNL     1      -1.337 -13.660   0.835  0.00  0.00    -0.474 OA
BRANCH   5  30
ATOM     30  C   UNL     1      -2.354 -14.305   0.078  0.00  0.00    +0.258 C 
BRANCH  30  31
ATOM     31  C   UNL     1      -2.980 -13.298  -0.868  0.00  0.00    +0.200 C 
BRANCH  31   6
ATOM      6  O   UNL     1      -3.960 -12.546  -0.163  0.00  0.00    -0.380 OA
ATOM     32  C   UNL     1      -5.010 -13.377   0.315  0.00  0.00    +0.194 C 
ENDBRANCH  31   6
ENDBRANCH  30  31
ENDBRANCH   5  30
ENDBRANCH  25   5
ENDBRANCH  20  24
ENDBRANCH  11  16
BRANCH   7  15
ATOM     15  C   UNL     1       3.213 -16.181  -1.632  0.00  0.00    +0.120 C 
BRANCH  15  17
ATOM     17  C   UNL     1       2.735 -15.028  -2.475  0.00  0.00    -0.033 A 
ATOM     18  C   UNL     1       1.984 -14.005  -1.893  0.00  0.00    +0.007 A 
ATOM     19  C   UNL     1       3.042 -14.982  -3.834  0.00  0.00    +0.007 A 
ATOM     21  C   UNL     1       1.541 -12.937  -2.673  0.00  0.00    +0.027 A 
ATOM     22  C   UNL     1       2.599 -13.913  -4.613  0.00  0.00    +0.027 A 
ATOM     23  C   UNL     1       1.849 -12.891  -4.033  0.00  0.00    +0.088 A 
BRANCH  23   1
ATOM      1  S   UNL     1       1.297 -11.551  -5.007  0.00  0.00    -0.006 S 
ATOM      3  O   UNL     1      -0.081 -11.797  -5.411  0.00  0.00    -0.170 OA
ATOM      4  O   UNL     1       1.636 -10.319  -4.309  0.00  0.00    -0.170 OA
ATOM     27  C   UNL     1       2.291 -11.637  -6.480  0.00  0.00    +0.200 C 
ENDBRANCH  23   1
ENDBRANCH  15  17
ENDBRANCH   7  15
TORSDOF 9
ENDMDL
