MODEL 1
REMARK VINA RESULT:      -5.1      0.000      0.000
REMARK  Name = 86769019
REMARK  3 active torsions:
REMARK  status: ('A' for Active; 'I' for Inactive)
REMARK    1  A    between atoms: N_2  and  C_8
REMARK    2  A    between atoms: N_4  and  C_15
REMARK    3  A    between atoms: C_5  and  C_8
REMARK                            x       y       z     vdW  Elec       q    Type
REMARK                         _______ _______ _______ _____ _____    ______ ____
ROOT
ATOM      1  O   UNL     1      10.613   8.587  19.169  0.00  0.00    -0.252 OA
ATOM      2  N   UNL     1      15.075   6.658  20.632  0.00  0.00    -0.299 NA
ATOM      3  N   UNL     1      12.659   7.464  19.437  0.00  0.00    -0.278 N 
ATOM      4  N   UNL     1      12.203   8.380  17.439  0.00  0.00    -0.287 N 
ATOM      9  C   UNL     1      13.759   7.053  18.590  0.00  0.00    +0.109 C 
ATOM     10  C   UNL     1      15.092   7.290  19.297  0.00  0.00    +0.108 C 
ATOM     11  C   UNL     1      13.993   7.221  21.467  0.00  0.00    +0.103 C 
ATOM     12  C   UNL     1      12.622   7.020  20.816  0.00  0.00    +0.125 C 
ATOM     13  C   UNL     1      13.555   7.866  17.313  0.00  0.00    +0.132 C 
ATOM     14  C   UNL     1      11.687   8.190  18.736  0.00  0.00    +0.305 C 
ATOM     15  C   UNL     1      11.564   9.126  16.376  0.00  0.00    +0.133 C 
ENDROOT
BRANCH   2   8
ATOM      8  C   UNL     1      16.368   6.827  21.293  0.00  0.00    +0.088 C 
BRANCH   8   5
ATOM      5  C   UNL     1      17.111   8.000  20.742  0.00  0.00    +0.003 C 
ATOM      6  C   UNL     1      17.281   9.245  21.568  0.00  0.00    +0.005 C 
ATOM      7  C   UNL     1      18.465   8.362  21.287  0.00  0.00    +0.005 C 
ENDBRANCH   8   5
ENDBRANCH   2   8
TORSDOF 2
ENDMDL
MODEL 2
REMARK VINA RESULT:      -4.9     31.031     31.812
REMARK  Name = 86769019
REMARK  3 active torsions:
REMARK  status: ('A' for Active; 'I' for Inactive)
REMARK    1  A    between atoms: N_2  and  C_8
REMARK    2  A    between atoms: N_4  and  C_15
REMARK    3  A    between atoms: C_5  and  C_8
REMARK                            x       y       z     vdW  Elec       q    Type
REMARK                         _______ _______ _______ _____ _____    ______ ____
ROOT
ATOM      1  O   UNL     1     -16.208  -0.479  30.228  0.00  0.00    -0.252 OA
ATOM      2  N   UNL     1     -14.077   3.473  32.597  0.00  0.00    -0.299 NA
ATOM      3  N   UNL     1     -14.975   1.395  30.927  0.00  0.00    -0.278 N 
ATOM      4  N   UNL     1     -15.830   1.398  28.851  0.00  0.00    -0.287 N 
ATOM      9  C   UNL     1     -14.462   2.608  30.325  0.00  0.00    +0.109 C 
ATOM     10  C   UNL     1     -14.648   3.791  31.272  0.00  0.00    +0.108 C 
ATOM     11  C   UNL     1     -14.740   2.291  33.185  0.00  0.00    +0.103 C 
ATOM     12  C   UNL     1     -14.595   1.062  32.285  0.00  0.00    +0.125 C 
ATOM     13  C   UNL     1     -15.230   2.711  29.009  0.00  0.00    +0.132 C 
ATOM     14  C   UNL     1     -15.728   0.629  30.027  0.00  0.00    +0.305 C 
ATOM     15  C   UNL     1     -16.566   1.030  27.661  0.00  0.00    +0.133 C 
ENDROOT
BRANCH   2   8
ATOM      8  C   UNL     1     -14.196   4.622  33.493  0.00  0.00    +0.088 C 
BRANCH   8   5
ATOM      5  C   UNL     1     -14.396   5.890  32.728  0.00  0.00    +0.003 C 
ATOM      6  C   UNL     1     -14.789   7.152  33.444  0.00  0.00    +0.005 C 
ATOM      7  C   UNL     1     -13.410   7.018  32.861  0.00  0.00    +0.005 C 
ENDBRANCH   8   5
ENDBRANCH   2   8
TORSDOF 2
ENDMDL
MODEL 3
REMARK VINA RESULT:      -4.8      2.837      5.161
REMARK  Name = 86769019
REMARK  3 active torsions:
REMARK  status: ('A' for Active; 'I' for Inactive)
REMARK    1  A    between atoms: N_2  and  C_8
REMARK    2  A    between atoms: N_4  and  C_15
REMARK    3  A    between atoms: C_5  and  C_8
REMARK                            x       y       z     vdW  Elec       q    Type
REMARK                         _______ _______ _______ _____ _____    ______ ____
ROOT
ATOM      1  O   UNL     1      15.762   6.233  18.604  0.00  0.00    -0.252 OA
ATOM      2  N   UNL     1      11.793   8.357  20.949  0.00  0.00    -0.299 NA
ATOM      3  N   UNL     1      14.055   6.946  20.052  0.00  0.00    -0.278 N 
ATOM      4  N   UNL     1      16.138   6.769  20.870  0.00  0.00    -0.287 N 
ATOM      9  C   UNL     1      13.913   7.220  21.466  0.00  0.00    +0.109 C 
ATOM     10  C   UNL     1      13.069   8.474  21.683  0.00  0.00    +0.108 C 
ATOM     11  C   UNL     1      12.031   8.196  19.500  0.00  0.00    +0.103 C 
ATOM     12  C   UNL     1      12.877   6.954  19.207  0.00  0.00    +0.125 C 
ATOM     13  C   UNL     1      15.355   7.323  21.961  0.00  0.00    +0.132 C 
ATOM     14  C   UNL     1      15.366   6.599  19.703  0.00  0.00    +0.305 C 
ATOM     15  C   UNL     1      17.568   6.578  20.973  0.00  0.00    +0.133 C 
ENDROOT
BRANCH   2   8
ATOM      8  C   UNL     1      10.951   9.526  21.199  0.00  0.00    +0.088 C 
BRANCH   8   5
ATOM      5  C   UNL     1      11.703  10.592  21.927  0.00  0.00    +0.003 C 
ATOM      6  C   UNL     1      11.293  12.033  21.795  0.00  0.00    +0.005 C 
ATOM      7  C   UNL     1      11.071  11.303  23.092  0.00  0.00    +0.005 C 
ENDBRANCH   8   5
ENDBRANCH   2   8
TORSDOF 2
ENDMDL
MODEL 4
REMARK VINA RESULT:      -4.8      2.042      2.885
REMARK  Name = 86769019
REMARK  3 active torsions:
REMARK  status: ('A' for Active; 'I' for Inactive)
REMARK    1  A    between atoms: N_2  and  C_8
REMARK    2  A    between atoms: N_4  and  C_15
REMARK    3  A    between atoms: C_5  and  C_8
REMARK                            x       y       z     vdW  Elec       q    Type
REMARK                         _______ _______ _______ _____ _____    ______ ____
ROOT
ATOM      1  O   UNL     1      13.144  10.068  21.176  0.00  0.00    -0.252 OA
ATOM      2  N   UNL     1      16.854   6.661  20.550  0.00  0.00    -0.299 NA
ATOM      3  N   UNL     1      14.518   8.176  20.949  0.00  0.00    -0.278 N 
ATOM      4  N   UNL     1      12.531   8.179  19.903  0.00  0.00    -0.287 N 
ATOM      9  C   UNL     1      14.406   6.850  20.379  0.00  0.00    +0.109 C 
ATOM     10  C   UNL     1      15.696   6.473  19.653  0.00  0.00    +0.108 C 
ATOM     11  C   UNL     1      16.956   8.067  20.991  0.00  0.00    +0.103 C 
ATOM     12  C   UNL     1      15.692   8.516  21.728  0.00  0.00    +0.125 C 
ATOM     13  C   UNL     1      13.170   6.943  19.487  0.00  0.00    +0.132 C 
ATOM     14  C   UNL     1      13.368   8.948  20.736  0.00  0.00    +0.305 C 
ATOM     15  C   UNL     1      11.251   8.596  19.375  0.00  0.00    +0.133 C 
ENDROOT
BRANCH   2   8
ATOM      8  C   UNL     1      18.088   6.245  19.885  0.00  0.00    +0.088 C 
BRANCH   8   5
ATOM      5  C   UNL     1      19.198   6.056  20.867  0.00  0.00    +0.003 C 
ATOM      6  C   UNL     1      20.440   5.307  20.471  0.00  0.00    +0.005 C 
ATOM      7  C   UNL     1      20.497   6.793  20.692  0.00  0.00    +0.005 C 
ENDBRANCH   8   5
ENDBRANCH   2   8
TORSDOF 2
ENDMDL
MODEL 5
REMARK VINA RESULT:      -4.8      3.057      5.612
REMARK  Name = 86769019
REMARK  3 active torsions:
REMARK  status: ('A' for Active; 'I' for Inactive)
REMARK    1  A    between atoms: N_2  and  C_8
REMARK    2  A    between atoms: N_4  and  C_15
REMARK    3  A    between atoms: C_5  and  C_8
REMARK                            x       y       z     vdW  Elec       q    Type
REMARK                         _______ _______ _______ _____ _____    ______ ____
ROOT
ATOM      1  O   UNL     1      13.631  11.389  22.947  0.00  0.00    -0.252 OA
ATOM      2  N   UNL     1      12.627   8.041  19.266  0.00  0.00    -0.299 NA
ATOM      3  N   UNL     1      12.956   9.597  21.586  0.00  0.00    -0.278 N 
ATOM      4  N   UNL     1      11.480  10.428  23.060  0.00  0.00    -0.287 N 
ATOM      9  C   UNL     1      11.809   8.719  21.486  0.00  0.00    +0.109 C 
ATOM     10  C   UNL     1      11.440   8.491  20.022  0.00  0.00    +0.108 C 
ATOM     11  C   UNL     1      13.704   9.050  19.328  0.00  0.00    +0.103 C 
ATOM     12  C   UNL     1      14.125   9.331  20.773  0.00  0.00    +0.125 C 
ATOM     13  C   UNL     1      10.739   9.425  22.316  0.00  0.00    +0.132 C 
ATOM     14  C   UNL     1      12.797  10.572  22.580  0.00  0.00    +0.305 C 
ATOM     15  C   UNL     1      10.850  11.260  24.062  0.00  0.00    +0.133 C 
ENDROOT
BRANCH   2   8
ATOM      8  C   UNL     1      12.271   7.761  17.876  0.00  0.00    +0.088 C 
BRANCH   8   5
ATOM      5  C   UNL     1      11.767   8.988  17.187  0.00  0.00    +0.003 C 
ATOM      6  C   UNL     1      12.139   9.258  15.755  0.00  0.00    +0.005 C 
ATOM      7  C   UNL     1      10.728   8.875  16.106  0.00  0.00    +0.005 C 
ENDBRANCH   8   5
ENDBRANCH   2   8
TORSDOF 2
ENDMDL
MODEL 6
REMARK VINA RESULT:      -4.5     25.870     27.427
REMARK  Name = 86769019
REMARK  3 active torsions:
REMARK  status: ('A' for Active; 'I' for Inactive)
REMARK    1  A    between atoms: N_2  and  C_8
REMARK    2  A    between atoms: N_4  and  C_15
REMARK    3  A    between atoms: C_5  and  C_8
REMARK                            x       y       z     vdW  Elec       q    Type
REMARK                         _______ _______ _______ _____ _____    ______ ____
ROOT
ATOM      1  O   UNL     1      -9.466 -10.149  17.013  0.00  0.00    -0.252 OA
ATOM      2  N   UNL     1      -4.401 -10.409  17.225  0.00  0.00    -0.299 NA
ATOM      3  N   UNL     1      -7.178 -10.093  17.543  0.00  0.00    -0.278 N 
ATOM      4  N   UNL     1      -8.610 -10.862  19.092  0.00  0.00    -0.287 N 
ATOM      9  C   UNL     1      -6.358 -10.321  18.715  0.00  0.00    +0.109 C 
ATOM     10  C   UNL     1      -5.094 -11.090  18.338  0.00  0.00    +0.108 C 
ATOM     11  C   UNL     1      -5.273 -10.324  16.035  0.00  0.00    +0.103 C 
ATOM     12  C   UNL     1      -6.566  -9.565  16.341  0.00  0.00    +0.125 C 
ATOM     13  C   UNL     1      -7.294 -11.053  19.675  0.00  0.00    +0.132 C 
ATOM     14  C   UNL     1      -8.536 -10.340  17.785  0.00  0.00    +0.305 C 
ATOM     15  C   UNL     1      -9.814 -11.314  19.755  0.00  0.00    +0.133 C 
ENDROOT
BRANCH   2   8
ATOM      8  C   UNL     1      -3.157 -11.103  16.896  0.00  0.00    +0.088 C 
BRANCH   8   5
ATOM      5  C   UNL     1      -2.546 -10.561  15.645  0.00  0.00    +0.003 C 
ATOM      6  C   UNL     1      -1.074 -10.259  15.591  0.00  0.00    +0.005 C 
ATOM      7  C   UNL     1      -1.633 -11.420  14.816  0.00  0.00    +0.005 C 
ENDBRANCH   8   5
ENDBRANCH   2   8
TORSDOF 2
ENDMDL
MODEL 7
REMARK VINA RESULT:      -4.5     26.323     26.835
REMARK  Name = 86769019
REMARK  3 active torsions:
REMARK  status: ('A' for Active; 'I' for Inactive)
REMARK    1  A    between atoms: N_2  and  C_8
REMARK    2  A    between atoms: N_4  and  C_15
REMARK    3  A    between atoms: C_5  and  C_8
REMARK                            x       y       z     vdW  Elec       q    Type
REMARK                         _______ _______ _______ _____ _____    ______ ____
ROOT
ATOM      1  O   UNL     1      -6.223  -8.726  11.320  0.00  0.00    -0.252 OA
ATOM      2  N   UNL     1      -4.442 -10.971  15.510  0.00  0.00    -0.299 NA
ATOM      3  N   UNL     1      -5.233 -10.087  12.960  0.00  0.00    -0.278 N 
ATOM      4  N   UNL     1      -4.067  -9.654  11.090  0.00  0.00    -0.287 N 
ATOM      9  C   UNL     1      -4.036 -10.892  13.084  0.00  0.00    +0.109 C 
ATOM     10  C   UNL     1      -3.422 -10.721  14.472  0.00  0.00    +0.108 C 
ATOM     11  C   UNL     1      -5.572 -10.029  15.376  0.00  0.00    +0.103 C 
ATOM     12  C   UNL     1      -6.237 -10.144  14.002  0.00  0.00    +0.125 C 
ATOM     13  C   UNL     1      -3.158 -10.416  11.929  0.00  0.00    +0.132 C 
ATOM     14  C   UNL     1      -5.295  -9.406  11.736  0.00  0.00    +0.305 C 
ATOM     15  C   UNL     1      -3.657  -9.108   9.815  0.00  0.00    +0.133 C 
ENDROOT
BRANCH   2   8
ATOM      8  C   UNL     1      -3.850 -10.869  16.843  0.00  0.00    +0.088 C 
BRANCH   8   5
ATOM      5  C   UNL     1      -4.524 -11.789  17.809  0.00  0.00    +0.003 C 
ATOM      6  C   UNL     1      -3.946 -12.001  19.181  0.00  0.00    +0.005 C 
ATOM      7  C   UNL     1      -5.229 -11.234  19.015  0.00  0.00    +0.005 C 
ENDBRANCH   8   5
ENDBRANCH   2   8
TORSDOF 2
ENDMDL
MODEL 8
REMARK VINA RESULT:      -4.4     12.216     15.597
REMARK  Name = 86769019
REMARK  3 active torsions:
REMARK  status: ('A' for Active; 'I' for Inactive)
REMARK    1  A    between atoms: N_2  and  C_8
REMARK    2  A    between atoms: N_4  and  C_15
REMARK    3  A    between atoms: C_5  and  C_8
REMARK                            x       y       z     vdW  Elec       q    Type
REMARK                         _______ _______ _______ _____ _____    ______ ____
ROOT
ATOM      1  O   UNL     1       8.574   7.705   8.456  0.00  0.00    -0.252 OA
ATOM      2  N   UNL     1      10.366   6.162   3.964  0.00  0.00    -0.299 NA
ATOM      3  N   UNL     1       9.739   6.787   6.635  0.00  0.00    -0.278 N 
ATOM      4  N   UNL     1       9.400   5.496   8.440  0.00  0.00    -0.287 N 
ATOM      9  C   UNL     1      10.466   5.567   6.351  0.00  0.00    +0.109 C 
ATOM     10  C   UNL     1      10.148   5.075   4.940  0.00  0.00    +0.108 C 
ATOM     11  C   UNL     1       9.500   7.321   4.265  0.00  0.00    +0.103 C 
ATOM     12  C   UNL     1       9.764   7.867   5.670  0.00  0.00    +0.125 C 
ATOM     13  C   UNL     1      10.039   4.622   7.472  0.00  0.00    +0.132 C 
ATOM     14  C   UNL     1       9.167   6.782   7.914  0.00  0.00    +0.305 C 
ATOM     15  C   UNL     1       8.940   5.012   9.724  0.00  0.00    +0.133 C 
ENDROOT
BRANCH   2   8
ATOM      8  C   UNL     1      10.123   5.684   2.605  0.00  0.00    +0.088 C 
BRANCH   8   5
ATOM      5  C   UNL     1      10.847   4.404   2.341  0.00  0.00    +0.003 C 
ATOM      6  C   UNL     1      11.302   4.064   0.948  0.00  0.00    +0.005 C 
ATOM      7  C   UNL     1      12.312   4.419   2.004  0.00  0.00    +0.005 C 
ENDBRANCH   8   5
ENDBRANCH   2   8
TORSDOF 2
ENDMDL
MODEL 9
REMARK VINA RESULT:      -4.4     24.707     25.738
REMARK  Name = 86769019
REMARK  3 active torsions:
REMARK  status: ('A' for Active; 'I' for Inactive)
REMARK    1  A    between atoms: N_2  and  C_8
REMARK    2  A    between atoms: N_4  and  C_15
REMARK    3  A    between atoms: C_5  and  C_8
REMARK                            x       y       z     vdW  Elec       q    Type
REMARK                         _______ _______ _______ _____ _____    ______ ____
ROOT
ATOM      1  O   UNL     1     -10.684   9.741  14.879  0.00  0.00    -0.252 OA
ATOM      2  N   UNL     1     -11.117   8.428  19.764  0.00  0.00    -0.299 NA
ATOM      3  N   UNL     1     -10.503   9.402  17.197  0.00  0.00    -0.278 N 
ATOM      4  N   UNL     1     -10.243  11.486  16.403  0.00  0.00    -0.287 N 
ATOM      9  C   UNL     1     -10.129  10.188  18.355  0.00  0.00    +0.109 C 
ATOM     10  C   UNL     1     -11.060   9.885  19.526  0.00  0.00    +0.108 C 
ATOM     11  C   UNL     1     -11.619   7.719  18.569  0.00  0.00    +0.103 C 
ATOM     12  C   UNL     1     -10.730   7.980  17.349  0.00  0.00    +0.125 C 
ATOM     13  C   UNL     1     -10.181  11.627  17.847  0.00  0.00    +0.132 C 
ATOM     14  C   UNL     1     -10.496  10.155  16.015  0.00  0.00    +0.305 C 
ATOM     15  C   UNL     1     -10.198  12.630  15.519  0.00  0.00    +0.133 C 
ENDROOT
BRANCH   2   8
ATOM      8  C   UNL     1     -11.958   8.132  20.922  0.00  0.00    +0.088 C 
BRANCH   8   5
ATOM      5  C   UNL     1     -12.725   6.865  20.726  0.00  0.00    +0.003 C 
ATOM      6  C   UNL     1     -12.615   5.750  21.730  0.00  0.00    +0.005 C 
ATOM      7  C   UNL     1     -13.890   6.540  21.620  0.00  0.00    +0.005 C 
ENDBRANCH   8   5
ENDBRANCH   2   8
TORSDOF 2
ENDMDL
MODEL 10
REMARK VINA RESULT:      -4.3     25.943     27.053
REMARK  Name = 86769019
REMARK  3 active torsions:
REMARK  status: ('A' for Active; 'I' for Inactive)
REMARK    1  A    between atoms: N_2  and  C_8
REMARK    2  A    between atoms: N_4  and  C_15
REMARK    3  A    between atoms: C_5  and  C_8
REMARK                            x       y       z     vdW  Elec       q    Type
REMARK                         _______ _______ _______ _____ _____    ______ ____
ROOT
ATOM      1  O   UNL     1      -4.823 -10.321  17.932  0.00  0.00    -0.252 OA
ATOM      2  N   UNL     1      -3.538 -10.872  13.052  0.00  0.00    -0.299 NA
ATOM      3  N   UNL     1      -4.644 -10.794  15.638  0.00  0.00    -0.278 N 
ATOM      4  N   UNL     1      -6.601 -10.012  16.413  0.00  0.00    -0.287 N 
ATOM      9  C   UNL     1      -5.532 -10.843  14.495  0.00  0.00    +0.109 C 
ATOM     10  C   UNL     1      -4.854 -10.237  13.268  0.00  0.00    +0.108 C 
ATOM     11  C   UNL     1      -2.659 -10.673  14.222  0.00  0.00    +0.103 C 
ATOM     12  C   UNL     1      -3.278 -11.257  15.495  0.00  0.00    +0.125 C 
ATOM     13  C   UNL     1      -6.778 -10.100  14.974  0.00  0.00    +0.132 C 
ATOM     14  C   UNL     1      -5.296 -10.373  16.804  0.00  0.00    +0.305 C 
ATOM     15  C   UNL     1      -7.623  -9.467  17.279  0.00  0.00    +0.133 C 
ENDROOT
BRANCH   2   8
ATOM      8  C   UNL     1      -2.907 -10.342  11.845  0.00  0.00    +0.088 C 
BRANCH   8   5
ATOM      5  C   UNL     1      -3.917  -9.738  10.924  0.00  0.00    +0.003 C 
ATOM      6  C   UNL     1      -3.478  -9.087   9.642  0.00  0.00    +0.005 C 
ATOM      7  C   UNL     1      -4.225 -10.392   9.606  0.00  0.00    +0.005 C 
ENDBRANCH   8   5
ENDBRANCH   2   8
TORSDOF 2
ENDMDL
