MODEL 1
REMARK VINA RESULT:      -7.7      0.000      0.000
REMARK  Name = 11883359
REMARK  6 active torsions:
REMARK  status: ('A' for Active; 'I' for Inactive)
REMARK    1  A    between atoms: O_6  and  C_15
REMARK    2  A    between atoms: O_6  and  C_24
REMARK    3  A    between atoms: N_9  and  C_14
REMARK    4  A    between atoms: N_10  and  C_18
REMARK    5  A    between atoms: N_11  and  C_26
REMARK    6  A    between atoms: C_31  and  C_32
REMARK                            x       y       z     vdW  Elec       q    Type
REMARK                         _______ _______ _______ _____ _____    ______ ____
ROOT
ATOM      4  O   UNL     1     -16.190   7.444  23.065  0.00  0.00    -0.368 OA
ATOM      5  O   UNL     1     -14.966   5.049  21.592  0.00  0.00    -0.368 OA
ATOM     12  C   UNL     1     -15.027   5.379  22.996  0.00  0.00    +0.173 C 
ATOM     13  C   UNL     1     -14.868   6.882  23.100  0.00  0.00    +0.192 C 
ATOM     14  C   UNL     1     -16.417   5.123  23.529  0.00  0.00    +0.131 C 
ATOM     15  C   UNL     1     -14.084   7.216  21.854  0.00  0.00    +0.235 C 
ATOM     16  C   UNL     1     -17.157   6.383  23.115  0.00  0.00    +0.185 C 
ATOM     17  C   UNL     1     -14.650   6.235  20.851  0.00  0.00    +0.207 C 
ENDROOT
BRANCH  14   9
ATOM      8  O   UNL     1     -15.762   2.748  24.990  0.00  0.00    -0.252 OA
ATOM      9  N   UNL     1     -16.407   4.968  24.963  0.00  0.00    -0.292 N 
ATOM     11  N   UNL     1     -16.150   3.916  26.989  0.00  0.00    -0.269 N 
ATOM     25  C   UNL     1     -16.073   3.768  25.601  0.00  0.00    +0.304 C 
ATOM     33  H   UNL     1     -16.588   5.785  25.539  0.00  0.00    +0.151 HD
ATOM     35  H   UNL     1     -16.427   4.831  27.335  0.00  0.00    +0.156 HD
BRANCH  11  26
ATOM     26  C   UNL     1     -15.891   2.942  27.982  0.00  0.00    +0.035 A 
ATOM     27  C   UNL     1     -15.019   3.232  29.032  0.00  0.00    +0.024 A 
ATOM     28  C   UNL     1     -16.506   1.692  27.911  0.00  0.00    +0.024 A 
ATOM     29  C   UNL     1     -14.763   2.272  30.010  0.00  0.00    +0.014 A 
ATOM     30  C   UNL     1     -16.250   0.732  28.889  0.00  0.00    +0.014 A 
ATOM     31  C   UNL     1     -15.377   1.022  29.939  0.00  0.00    +0.055 A 
BRANCH  31  32
ATOM      1  F   UNL     1     -16.028  -1.009  31.022  0.00  0.00    -0.166 F 
ATOM      2  F   UNL     1     -15.079   0.502  32.255  0.00  0.00    -0.166 F 
ATOM      3  F   UNL     1     -13.898  -0.621  30.814  0.00  0.00    -0.166 F 
ATOM     32  C   UNL     1     -15.103  -0.004  30.986  0.00  0.00    +0.417 C 
ENDBRANCH  31  32
ENDBRANCH  11  26
ENDBRANCH  14   9
BRANCH  15   6
ATOM      6  O   UNL     1     -14.236   8.552  21.433  0.00  0.00    -0.442 OA
BRANCH   6  24
ATOM      7  O   UNL     1     -12.787   9.926  22.567  0.00  0.00    -0.226 OA
ATOM     10  N   UNL     1     -12.475   9.437  20.320  0.00  0.00    -0.278 N 
ATOM     24  C   UNL     1     -13.128   9.361  21.533  0.00  0.00    +0.401 C 
ATOM     34  H   UNL     1     -12.894   8.954  19.533  0.00  0.00    +0.152 HD
BRANCH  10  18
ATOM     18  C   UNL     1     -11.273  10.213  20.104  0.00  0.00    +0.076 C 
ATOM     19  C   UNL     1     -10.180   9.361  19.448  0.00  0.00    +0.022 C 
ATOM     20  C   UNL     1     -11.569  11.470  19.277  0.00  0.00    +0.022 C 
ATOM     21  C   UNL     1     -10.485   9.045  17.983  0.00  0.00    +0.002 C 
ATOM     22  C   UNL     1     -11.872  11.149  17.813  0.00  0.00    +0.002 C 
ATOM     23  C   UNL     1     -10.765  10.311  17.180  0.00  0.00    +0.000 C 
ENDBRANCH  10  18
ENDBRANCH   6  24
ENDBRANCH  15   6
TORSDOF 6
ENDMDL
MODEL 2
REMARK VINA RESULT:      -7.4     31.940     35.148
REMARK  Name = 11883359
REMARK  6 active torsions:
REMARK  status: ('A' for Active; 'I' for Inactive)
REMARK    1  A    between atoms: O_6  and  C_15
REMARK    2  A    between atoms: O_6  and  C_24
REMARK    3  A    between atoms: N_9  and  C_14
REMARK    4  A    between atoms: N_10  and  C_18
REMARK    5  A    between atoms: N_11  and  C_26
REMARK    6  A    between atoms: C_31  and  C_32
REMARK                            x       y       z     vdW  Elec       q    Type
REMARK                         _______ _______ _______ _____ _____    ______ ____
ROOT
ATOM      4  O   UNL     1      19.337   6.554  20.160  0.00  0.00    -0.368 OA
ATOM      5  O   UNL     1      19.418   8.415  22.596  0.00  0.00    -0.368 OA
ATOM     12  C   UNL     1      19.455   6.977  22.491  0.00  0.00    +0.173 C 
ATOM     13  C   UNL     1      18.533   6.596  21.351  0.00  0.00    +0.192 C 
ATOM     14  C   UNL     1      20.819   6.526  22.020  0.00  0.00    +0.131 C 
ATOM     15  C   UNL     1      17.553   7.745  21.325  0.00  0.00    +0.235 C 
ATOM     16  C   UNL     1      20.718   6.717  20.516  0.00  0.00    +0.185 C 
ATOM     17  C   UNL     1      18.434   8.921  21.683  0.00  0.00    +0.207 C 
ENDROOT
BRANCH  14   9
ATOM      8  O   UNL     1      23.297   5.110  21.778  0.00  0.00    -0.252 OA
ATOM      9  N   UNL     1      21.058   5.145  22.358  0.00  0.00    -0.292 N 
ATOM     11  N   UNL     1      22.236   3.189  22.616  0.00  0.00    -0.269 N 
ATOM     25  C   UNL     1      22.305   4.525  22.210  0.00  0.00    +0.304 C 
ATOM     33  H   UNL     1      20.305   4.613  22.784  0.00  0.00    +0.151 HD
ATOM     35  H   UNL     1      21.334   2.860  22.948  0.00  0.00    +0.156 HD
BRANCH  11  26
ATOM     26  C   UNL     1      23.276   2.229  22.620  0.00  0.00    +0.035 A 
ATOM     27  C   UNL     1      23.729   1.700  23.830  0.00  0.00    +0.024 A 
ATOM     28  C   UNL     1      23.847   1.813  21.419  0.00  0.00    +0.024 A 
ATOM     29  C   UNL     1      24.755   0.755  23.835  0.00  0.00    +0.014 A 
ATOM     30  C   UNL     1      24.872   0.867  21.424  0.00  0.00    +0.014 A 
ATOM     31  C   UNL     1      25.326   0.338  22.633  0.00  0.00    +0.055 A 
BRANCH  31  32
ATOM      1  F   UNL     1      27.661  -0.139  22.422  0.00  0.00    -0.166 F 
ATOM      2  F   UNL     1      26.280  -1.639  21.684  0.00  0.00    -0.166 F 
ATOM      3  F   UNL     1      26.513  -1.342  23.826  0.00  0.00    -0.166 F 
ATOM     32  C   UNL     1      26.422  -0.673  22.639  0.00  0.00    +0.417 C 
ENDBRANCH  31  32
ENDBRANCH  11  26
ENDBRANCH  14   9
BRANCH  15   6
ATOM      6  O   UNL     1      16.919   7.917  20.078  0.00  0.00    -0.442 OA
BRANCH   6  24
ATOM      7  O   UNL     1      16.112   5.930  19.256  0.00  0.00    -0.226 OA
ATOM     10  N   UNL     1      14.685   7.548  20.112  0.00  0.00    -0.278 N 
ATOM     24  C   UNL     1      15.916   7.028  19.768  0.00  0.00    +0.401 C 
ATOM     34  H   UNL     1      14.666   8.491  20.486  0.00  0.00    +0.152 HD
BRANCH  10  18
ATOM     18  C   UNL     1      13.435   6.851  19.909  0.00  0.00    +0.076 C 
ATOM     19  C   UNL     1      12.622   6.790  21.207  0.00  0.00    +0.022 C 
ATOM     20  C   UNL     1      12.624   7.490  18.776  0.00  0.00    +0.022 C 
ATOM     21  C   UNL     1      12.037   8.148  21.595  0.00  0.00    +0.002 C 
ATOM     22  C   UNL     1      12.040   8.847  19.169  0.00  0.00    +0.002 C 
ATOM     23  C   UNL     1      11.227   8.759  20.456  0.00  0.00    +0.000 C 
ENDBRANCH  10  18
ENDBRANCH   6  24
ENDBRANCH  15   6
TORSDOF 6
ENDMDL
MODEL 3
REMARK VINA RESULT:      -7.3     31.684     35.112
REMARK  Name = 11883359
REMARK  6 active torsions:
REMARK  status: ('A' for Active; 'I' for Inactive)
REMARK    1  A    between atoms: O_6  and  C_15
REMARK    2  A    between atoms: O_6  and  C_24
REMARK    3  A    between atoms: N_9  and  C_14
REMARK    4  A    between atoms: N_10  and  C_18
REMARK    5  A    between atoms: N_11  and  C_26
REMARK    6  A    between atoms: C_31  and  C_32
REMARK                            x       y       z     vdW  Elec       q    Type
REMARK                         _______ _______ _______ _____ _____    ______ ____
ROOT
ATOM      4  O   UNL     1      21.396   5.413  22.966  0.00  0.00    -0.368 OA
ATOM      5  O   UNL     1      22.065   6.960  20.404  0.00  0.00    -0.368 OA
ATOM     12  C   UNL     1      20.882   6.235  20.801  0.00  0.00    +0.173 C 
ATOM     13  C   UNL     1      21.352   5.025  21.583  0.00  0.00    +0.192 C 
ATOM     14  C   UNL     1      20.097   7.037  21.813  0.00  0.00    +0.131 C 
ATOM     15  C   UNL     1      22.734   4.790  21.023  0.00  0.00    +0.235 C 
ATOM     16  C   UNL     1      20.826   6.724  23.108  0.00  0.00    +0.185 C 
ATOM     17  C   UNL     1      23.222   6.200  20.779  0.00  0.00    +0.207 C 
ENDROOT
BRANCH  14   9
ATOM      8  O   UNL     1      17.802   8.524  20.959  0.00  0.00    -0.252 OA
ATOM      9  N   UNL     1      18.722   6.607  21.868  0.00  0.00    -0.292 N 
ATOM     11  N   UNL     1      16.442   6.721  21.603  0.00  0.00    -0.269 N 
ATOM     25  C   UNL     1      17.654   7.398  21.428  0.00  0.00    +0.304 C 
ATOM     33  H   UNL     1      18.523   5.661  22.181  0.00  0.00    +0.151 HD
ATOM     35  H   UNL     1      16.495   5.791  22.010  0.00  0.00    +0.156 HD
BRANCH  11  26
ATOM     26  C   UNL     1      15.141   7.176  21.286  0.00  0.00    +0.035 A 
ATOM     27  C   UNL     1      14.500   6.708  20.138  0.00  0.00    +0.024 A 
ATOM     28  C   UNL     1      14.499   8.092  22.119  0.00  0.00    +0.024 A 
ATOM     29  C   UNL     1      13.218   7.157  19.824  0.00  0.00    +0.014 A 
ATOM     30  C   UNL     1      13.216   8.541  21.805  0.00  0.00    +0.014 A 
ATOM     31  C   UNL     1      12.576   8.073  20.657  0.00  0.00    +0.055 A 
BRANCH  31  32
ATOM      1  F   UNL     1      10.938   8.554  18.981  0.00  0.00    -0.166 F 
ATOM      2  F   UNL     1      10.954   9.830  20.734  0.00  0.00    -0.166 F 
ATOM      3  F   UNL     1      10.226   7.786  20.887  0.00  0.00    -0.166 F 
ATOM     32  C   UNL     1      11.204   8.552  20.321  0.00  0.00    +0.417 C 
ENDBRANCH  31  32
ENDBRANCH  11  26
ENDBRANCH  14   9
BRANCH  15   6
ATOM      6  O   UNL     1      23.582   4.078  21.895  0.00  0.00    -0.442 OA
BRANCH   6  24
ATOM      7  O   UNL     1      23.235   2.133  20.723  0.00  0.00    -0.226 OA
ATOM     10  N   UNL     1      24.199   2.112  22.834  0.00  0.00    -0.278 N 
ATOM     24  C   UNL     1      23.636   2.714  21.727  0.00  0.00    +0.401 C 
ATOM     34  H   UNL     1      24.446   2.711  23.615  0.00  0.00    +0.152 HD
BRANCH  10  18
ATOM     18  C   UNL     1      24.393   0.685  22.959  0.00  0.00    +0.076 C 
ATOM     19  C   UNL     1      25.661   0.236  22.224  0.00  0.00    +0.022 C 
ATOM     20  C   UNL     1      24.425   0.260  24.432  0.00  0.00    +0.022 C 
ATOM     21  C   UNL     1      26.938   0.679  22.937  0.00  0.00    +0.002 C 
ATOM     22  C   UNL     1      25.705   0.703  25.141  0.00  0.00    +0.002 C 
ATOM     23  C   UNL     1      26.952   0.235  24.397  0.00  0.00    +0.000 C 
ENDBRANCH  10  18
ENDBRANCH   6  24
ENDBRANCH  15   6
TORSDOF 6
ENDMDL
MODEL 4
REMARK VINA RESULT:      -7.1      1.952      2.464
REMARK  Name = 11883359
REMARK  6 active torsions:
REMARK  status: ('A' for Active; 'I' for Inactive)
REMARK    1  A    between atoms: O_6  and  C_15
REMARK    2  A    between atoms: O_6  and  C_24
REMARK    3  A    between atoms: N_9  and  C_14
REMARK    4  A    between atoms: N_10  and  C_18
REMARK    5  A    between atoms: N_11  and  C_26
REMARK    6  A    between atoms: C_31  and  C_32
REMARK                            x       y       z     vdW  Elec       q    Type
REMARK                         _______ _______ _______ _____ _____    ______ ____
ROOT
ATOM      4  O   UNL     1     -16.668   6.242  23.745  0.00  0.00    -0.368 OA
ATOM      5  O   UNL     1     -16.987   3.772  21.955  0.00  0.00    -0.368 OA
ATOM     12  C   UNL     1     -16.094   4.047  23.055  0.00  0.00    +0.173 C 
ATOM     13  C   UNL     1     -15.714   5.511  22.957  0.00  0.00    +0.192 C 
ATOM     14  C   UNL     1     -16.839   3.953  24.366  0.00  0.00    +0.131 C 
ATOM     15  C   UNL     1     -15.875   5.792  21.482  0.00  0.00    +0.235 C 
ATOM     16  C   UNL     1     -17.504   5.315  24.456  0.00  0.00    +0.185 C 
ATOM     17  C   UNL     1     -17.070   4.938  21.123  0.00  0.00    +0.207 C 
ENDROOT
BRANCH  14   9
ATOM      8  O   UNL     1     -17.544   3.653  27.126  0.00  0.00    -0.252 OA
ATOM      9  N   UNL     1     -15.935   3.736  25.467  0.00  0.00    -0.292 N 
ATOM     11  N   UNL     1     -15.266   3.401  27.640  0.00  0.00    -0.269 N 
ATOM     25  C   UNL     1     -16.362   3.599  26.794  0.00  0.00    +0.304 C 
ATOM     33  H   UNL     1     -14.947   3.614  25.265  0.00  0.00    +0.151 HD
ATOM     35  H   UNL     1     -14.349   3.385  27.202  0.00  0.00    +0.156 HD
BRANCH  11  26
ATOM     26  C   UNL     1     -15.276   3.220  29.043  0.00  0.00    +0.035 A 
ATOM     27  C   UNL     1     -15.649   4.275  29.878  0.00  0.00    +0.024 A 
ATOM     28  C   UNL     1     -14.913   1.991  29.592  0.00  0.00    +0.024 A 
ATOM     29  C   UNL     1     -15.657   4.098  31.261  0.00  0.00    +0.014 A 
ATOM     30  C   UNL     1     -14.921   1.815  30.975  0.00  0.00    +0.014 A 
ATOM     31  C   UNL     1     -15.294   2.869  31.810  0.00  0.00    +0.055 A 
BRANCH  31  32
ATOM      1  F   UNL     1     -15.280   1.370  33.674  0.00  0.00    -0.166 F 
ATOM      2  F   UNL     1     -16.405   3.209  33.901  0.00  0.00    -0.166 F 
ATOM      3  F   UNL     1     -14.231   3.262  33.901  0.00  0.00    -0.166 F 
ATOM     32  C   UNL     1     -15.304   2.681  33.290  0.00  0.00    +0.417 C 
ENDBRANCH  31  32
ENDBRANCH  11  26
ENDBRANCH  14   9
BRANCH  15   6
ATOM      6  O   UNL     1     -16.088   7.154  21.188  0.00  0.00    -0.442 OA
BRANCH   6  24
ATOM      7  O   UNL     1     -15.096   8.948  22.223  0.00  0.00    -0.226 OA
ATOM     10  N   UNL     1     -13.941   7.661  20.676  0.00  0.00    -0.278 N 
ATOM     24  C   UNL     1     -15.040   8.010  21.434  0.00  0.00    +0.401 C 
ATOM     34  H   UNL     1     -14.048   6.887  20.028  0.00  0.00    +0.152 HD
BRANCH  10  18
ATOM     18  C   UNL     1     -12.683   8.372  20.712  0.00  0.00    +0.076 C 
ATOM     19  C   UNL     1     -11.507   7.422  20.455  0.00  0.00    +0.022 C 
ATOM     20  C   UNL     1     -12.680   9.540  19.719  0.00  0.00    +0.022 C 
ATOM     21  C   UNL     1     -11.437   6.958  19.000  0.00  0.00    +0.002 C 
ATOM     22  C   UNL     1     -12.609   9.071  18.265  0.00  0.00    +0.002 C 
ATOM     23  C   UNL     1     -11.425   8.137  18.033  0.00  0.00    +0.000 C 
ENDBRANCH  10  18
ENDBRANCH   6  24
ENDBRANCH  15   6
TORSDOF 6
ENDMDL
MODEL 5
REMARK VINA RESULT:      -7.1     28.801     31.462
REMARK  Name = 11883359
REMARK  6 active torsions:
REMARK  status: ('A' for Active; 'I' for Inactive)
REMARK    1  A    between atoms: O_6  and  C_15
REMARK    2  A    between atoms: O_6  and  C_24
REMARK    3  A    between atoms: N_9  and  C_14
REMARK    4  A    between atoms: N_10  and  C_18
REMARK    5  A    between atoms: N_11  and  C_26
REMARK    6  A    between atoms: C_31  and  C_32
REMARK                            x       y       z     vdW  Elec       q    Type
REMARK                         _______ _______ _______ _____ _____    ______ ____
ROOT
ATOM      4  O   UNL     1      -3.781 -13.850   5.963  0.00  0.00    -0.368 OA
ATOM      5  O   UNL     1      -4.639 -12.373   3.415  0.00  0.00    -0.368 OA
ATOM     12  C   UNL     1      -3.334 -12.713   3.930  0.00  0.00    +0.173 C 
ATOM     13  C   UNL     1      -3.405 -12.566   5.437  0.00  0.00    +0.192 C 
ATOM     14  C   UNL     1      -3.060 -14.184   3.722  0.00  0.00    +0.131 C 
ATOM     15  C   UNL     1      -4.503 -11.545   5.615  0.00  0.00    +0.235 C 
ATOM     16  C   UNL     1      -3.782 -14.816   4.900  0.00  0.00    +0.185 C 
ATOM     17  C   UNL     1      -5.456 -11.905   4.497  0.00  0.00    +0.207 C 
ENDROOT
BRANCH  14   9
ATOM      8  O   UNL     1      -1.250 -14.173   1.502  0.00  0.00    -0.252 OA
ATOM      9  N   UNL     1      -1.646 -14.464   3.761  0.00  0.00    -0.292 N 
ATOM     11  N   UNL     1       0.491 -14.748   2.969  0.00  0.00    -0.269 N 
ATOM     25  C   UNL     1      -0.828 -14.437   2.625  0.00  0.00    +0.304 C 
ATOM     33  H   UNL     1      -1.210 -14.625   4.664  0.00  0.00    +0.151 HD
ATOM     35  H   UNL     1       0.673 -14.945   3.949  0.00  0.00    +0.156 HD
BRANCH  11  26
ATOM     26  C   UNL     1       1.615 -14.827   2.112  0.00  0.00    +0.035 A 
ATOM     27  C   UNL     1       2.387 -15.989   2.082  0.00  0.00    +0.024 A 
ATOM     28  C   UNL     1       1.951 -13.745   1.299  0.00  0.00    +0.024 A 
ATOM     29  C   UNL     1       3.495 -16.066   1.239  0.00  0.00    +0.014 A 
ATOM     30  C   UNL     1       3.059 -13.823   0.456  0.00  0.00    +0.014 A 
ATOM     31  C   UNL     1       3.831 -14.985   0.426  0.00  0.00    +0.055 A 
BRANCH  31  32
ATOM      1  F   UNL     1       4.710 -15.475  -1.744  0.00  0.00    -0.166 F 
ATOM      2  F   UNL     1       5.971 -15.944  -0.043  0.00  0.00    -0.166 F 
ATOM      3  F   UNL     1       5.654 -13.871  -0.618  0.00  0.00    -0.166 F 
ATOM     32  C   UNL     1       5.016 -15.069  -0.476  0.00  0.00    +0.417 C 
ENDBRANCH  31  32
ENDBRANCH  11  26
ENDBRANCH  14   9
BRANCH  15   6
ATOM      6  O   UNL     1      -5.122 -11.598   6.879  0.00  0.00    -0.442 OA
BRANCH   6  24
ATOM      7  O   UNL     1      -6.030  -9.518   7.227  0.00  0.00    -0.226 OA
ATOM     10  N   UNL     1      -4.393 -10.369   8.635  0.00  0.00    -0.278 N 
ATOM     24  C   UNL     1      -5.252 -10.407   7.555  0.00  0.00    +0.401 C 
ATOM     34  H   UNL     1      -3.770 -11.159   8.764  0.00  0.00    +0.152 HD
BRANCH  10  18
ATOM     18  C   UNL     1      -4.295  -9.246   9.541  0.00  0.00    +0.076 C 
ATOM     19  C   UNL     1      -5.424  -9.277  10.578  0.00  0.00    +0.022 C 
ATOM     20  C   UNL     1      -2.920  -9.203  10.219  0.00  0.00    +0.022 C 
ATOM     21  C   UNL     1      -5.240 -10.390  11.610  0.00  0.00    +0.002 C 
ATOM     22  C   UNL     1      -2.742 -10.316  11.251  0.00  0.00    +0.002 C 
ATOM     23  C   UNL     1      -3.870 -10.319  12.277  0.00  0.00    +0.000 C 
ENDBRANCH  10  18
ENDBRANCH   6  24
ENDBRANCH  15   6
TORSDOF 6
ENDMDL
MODEL 6
REMARK VINA RESULT:      -7.1     16.596     17.669
REMARK  Name = 11883359
REMARK  6 active torsions:
REMARK  status: ('A' for Active; 'I' for Inactive)
REMARK    1  A    between atoms: O_6  and  C_15
REMARK    2  A    between atoms: O_6  and  C_24
REMARK    3  A    between atoms: N_9  and  C_14
REMARK    4  A    between atoms: N_10  and  C_18
REMARK    5  A    between atoms: N_11  and  C_26
REMARK    6  A    between atoms: C_31  and  C_32
REMARK                            x       y       z     vdW  Elec       q    Type
REMARK                         _______ _______ _______ _____ _____    ______ ____
ROOT
ATOM      4  O   UNL     1     -11.951  -5.422  15.293  0.00  0.00    -0.368 OA
ATOM      5  O   UNL     1     -13.497  -7.838  14.207  0.00  0.00    -0.368 OA
ATOM     12  C   UNL     1     -12.084  -7.549  14.253  0.00  0.00    +0.173 C 
ATOM     13  C   UNL     1     -11.932  -6.062  14.006  0.00  0.00    +0.192 C 
ATOM     14  C   UNL     1     -11.560  -7.739  15.657  0.00  0.00    +0.131 C 
ATOM     15  C   UNL     1     -13.166  -5.736  13.200  0.00  0.00    +0.235 C 
ATOM     16  C   UNL     1     -11.935  -6.425  16.321  0.00  0.00    +0.185 C 
ATOM     17  C   UNL     1     -14.200  -6.649  13.819  0.00  0.00    +0.207 C 
ENDROOT
BRANCH  14   9
ATOM      8  O   UNL     1     -10.090  -9.557  17.312  0.00  0.00    -0.252 OA
ATOM      9  N   UNL     1     -10.132  -7.939  15.660  0.00  0.00    -0.292 N 
ATOM     11  N   UNL     1      -8.108  -8.828  16.285  0.00  0.00    -0.269 N 
ATOM     25  C   UNL     1      -9.488  -8.852  16.505  0.00  0.00    +0.304 C 
ATOM     33  H   UNL     1      -9.572  -7.441  14.974  0.00  0.00    +0.151 HD
ATOM     35  H   UNL     1      -7.770  -8.181  15.578  0.00  0.00    +0.156 HD
BRANCH  11  26
ATOM     26  C   UNL     1      -7.113  -9.597  16.934  0.00  0.00    +0.035 A 
ATOM     27  C   UNL     1      -7.318 -10.041  18.241  0.00  0.00    +0.024 A 
ATOM     28  C   UNL     1      -5.929  -9.912  16.268  0.00  0.00    +0.024 A 
ATOM     29  C   UNL     1      -6.338 -10.798  18.881  0.00  0.00    +0.014 A 
ATOM     30  C   UNL     1      -4.948 -10.669  16.908  0.00  0.00    +0.014 A 
ATOM     31  C   UNL     1      -5.153 -11.113  18.216  0.00  0.00    +0.055 A 
BRANCH  31  32
ATOM      1  F   UNL     1      -2.830 -11.549  18.584  0.00  0.00    -0.166 F 
ATOM      2  F   UNL     1      -4.167 -13.256  18.609  0.00  0.00    -0.166 F 
ATOM      3  F   UNL     1      -4.184 -11.842  20.261  0.00  0.00    -0.166 F 
ATOM     32  C   UNL     1      -4.105 -11.923  18.901  0.00  0.00    +0.417 C 
ENDBRANCH  31  32
ENDBRANCH  11  26
ENDBRANCH  14   9
BRANCH  15   6
ATOM      6  O   UNL     1     -13.544  -4.380  13.272  0.00  0.00    -0.442 OA
BRANCH   6  24
ATOM      7  O   UNL     1     -14.494  -2.787  11.919  0.00  0.00    -0.226 OA
ATOM     10  N   UNL     1     -12.898  -4.262  11.105  0.00  0.00    -0.278 N 
ATOM     24  C   UNL     1     -13.716  -3.722  12.076  0.00  0.00    +0.401 C 
ATOM     34  H   UNL     1     -12.336  -5.065  11.363  0.00  0.00    +0.152 HD
BRANCH  10  18
ATOM     18  C   UNL     1     -12.850  -3.784   9.741  0.00  0.00    +0.076 C 
ATOM     19  C   UNL     1     -11.416  -3.429   9.333  0.00  0.00    +0.022 C 
ATOM     20  C   UNL     1     -13.465  -4.806   8.777  0.00  0.00    +0.022 C 
ATOM     21  C   UNL     1     -10.537  -4.666   9.146  0.00  0.00    +0.002 C 
ATOM     22  C   UNL     1     -12.582  -6.040   8.593  0.00  0.00    +0.002 C 
ATOM     23  C   UNL     1     -11.165  -5.662   8.176  0.00  0.00    +0.000 C 
ENDBRANCH  10  18
ENDBRANCH   6  24
ENDBRANCH  15   6
TORSDOF 6
ENDMDL
MODEL 7
REMARK VINA RESULT:      -6.9     19.721     20.796
REMARK  Name = 11883359
REMARK  6 active torsions:
REMARK  status: ('A' for Active; 'I' for Inactive)
REMARK    1  A    between atoms: O_6  and  C_15
REMARK    2  A    between atoms: O_6  and  C_24
REMARK    3  A    between atoms: N_9  and  C_14
REMARK    4  A    between atoms: N_10  and  C_18
REMARK    5  A    between atoms: N_11  and  C_26
REMARK    6  A    between atoms: C_31  and  C_32
REMARK                            x       y       z     vdW  Elec       q    Type
REMARK                         _______ _______ _______ _____ _____    ______ ____
ROOT
ATOM      4  O   UNL     1      -3.729 -12.308  14.091  0.00  0.00    -0.368 OA
ATOM      5  O   UNL     1      -2.348 -10.787  16.368  0.00  0.00    -0.368 OA
ATOM     12  C   UNL     1      -3.699 -10.733  15.864  0.00  0.00    +0.173 C 
ATOM     13  C   UNL     1      -3.614 -10.901  14.360  0.00  0.00    +0.192 C 
ATOM     14  C   UNL     1      -4.472 -11.948  16.321  0.00  0.00    +0.131 C 
ATOM     15  C   UNL     1      -2.229 -10.384  14.051  0.00  0.00    +0.235 C 
ATOM     16  C   UNL     1      -4.048 -12.999  15.309  0.00  0.00    +0.185 C 
ATOM     17  C   UNL     1      -1.441 -10.845  15.257  0.00  0.00    +0.207 C 
ENDROOT
BRANCH  14   9
ATOM      8  O   UNL     1      -6.188 -11.328  18.529  0.00  0.00    -0.252 OA
ATOM      9  N   UNL     1      -5.894 -11.714  16.268  0.00  0.00    -0.292 N 
ATOM     11  N   UNL     1      -8.004 -11.239  17.043  0.00  0.00    -0.269 N 
ATOM     25  C   UNL     1      -6.663 -11.415  17.399  0.00  0.00    +0.304 C 
ATOM     33  H   UNL     1      -6.349 -11.702  15.360  0.00  0.00    +0.151 HD
ATOM     35  H   UNL     1      -8.232 -11.348  16.059  0.00  0.00    +0.156 HD
BRANCH  11  26
ATOM     26  C   UNL     1      -9.093 -10.928  17.891  0.00  0.00    +0.035 A 
ATOM     27  C   UNL     1      -9.481 -11.829  18.884  0.00  0.00    +0.024 A 
ATOM     28  C   UNL     1      -9.778  -9.724  17.736  0.00  0.00    +0.024 A 
ATOM     29  C   UNL     1     -10.555 -11.524  19.719  0.00  0.00    +0.014 A 
ATOM     30  C   UNL     1     -10.852  -9.418  18.572  0.00  0.00    +0.014 A 
ATOM     31  C   UNL     1     -11.240 -10.319  19.564  0.00  0.00    +0.055 A 
BRANCH  31  32
ATOM      1  F   UNL     1     -13.459  -9.457  19.801  0.00  0.00    -0.166 F 
ATOM      2  F   UNL     1     -12.081  -9.089  21.435  0.00  0.00    -0.166 F 
ATOM      3  F   UNL     1     -12.872 -11.089  21.113  0.00  0.00    -0.166 F 
ATOM     32  C   UNL     1     -12.388  -9.993  20.459  0.00  0.00    +0.417 C 
ENDBRANCH  31  32
ENDBRANCH  11  26
ENDBRANCH  14   9
BRANCH  15   6
ATOM      6  O   UNL     1      -1.697 -10.884  12.847  0.00  0.00    -0.442 OA
BRANCH   6  24
ATOM      7  O   UNL     1      -1.030  -9.291  11.333  0.00  0.00    -0.226 OA
ATOM     10  N   UNL     1      -3.076 -10.368  11.127  0.00  0.00    -0.278 N 
ATOM     24  C   UNL     1      -1.862 -10.103  11.726  0.00  0.00    +0.401 C 
ATOM     34  H   UNL     1      -3.687 -11.034  11.586  0.00  0.00    +0.152 HD
BRANCH  10  18
ATOM     18  C   UNL     1      -3.539  -9.706   9.927  0.00  0.00    +0.076 C 
ATOM     19  C   UNL     1      -4.299 -10.680   9.020  0.00  0.00    +0.022 C 
ATOM     20  C   UNL     1      -4.397  -8.482  10.269  0.00  0.00    +0.022 C 
ATOM     21  C   UNL     1      -5.668 -11.059   9.585  0.00  0.00    +0.002 C 
ATOM     22  C   UNL     1      -5.765  -8.866  10.833  0.00  0.00    +0.002 C 
ATOM     23  C   UNL     1      -6.506  -9.826   9.907  0.00  0.00    +0.000 C 
ENDBRANCH  10  18
ENDBRANCH   6  24
ENDBRANCH  15   6
TORSDOF 6
ENDMDL
MODEL 8
REMARK VINA RESULT:      -6.9     29.351     33.157
REMARK  Name = 11883359
REMARK  6 active torsions:
REMARK  status: ('A' for Active; 'I' for Inactive)
REMARK    1  A    between atoms: O_6  and  C_15
REMARK    2  A    between atoms: O_6  and  C_24
REMARK    3  A    between atoms: N_9  and  C_14
REMARK    4  A    between atoms: N_10  and  C_18
REMARK    5  A    between atoms: N_11  and  C_26
REMARK    6  A    between atoms: C_31  and  C_32
REMARK                            x       y       z     vdW  Elec       q    Type
REMARK                         _______ _______ _______ _____ _____    ______ ____
ROOT
ATOM      4  O   UNL     1      11.755   7.952   7.287  0.00  0.00    -0.368 OA
ATOM      5  O   UNL     1       8.913   6.808   7.150  0.00  0.00    -0.368 OA
ATOM     12  C   UNL     1       9.867   7.127   6.114  0.00  0.00    +0.173 C 
ATOM     13  C   UNL     1      10.593   8.380   6.557  0.00  0.00    +0.192 C 
ATOM     14  C   UNL     1      10.952   6.076   6.066  0.00  0.00    +0.131 C 
ATOM     15  C   UNL     1       9.580   9.044   7.459  0.00  0.00    +0.235 C 
ATOM     16  C   UNL     1      11.884   6.525   7.178  0.00  0.00    +0.185 C 
ATOM     17  C   UNL     1       8.923   7.857   8.127  0.00  0.00    +0.207 C 
ENDROOT
BRANCH  14   9
ATOM      8  O   UNL     1      10.421   4.332   3.856  0.00  0.00    -0.252 OA
ATOM      9  N   UNL     1      11.622   6.074   4.789  0.00  0.00    -0.292 N 
ATOM     11  N   UNL     1      12.113   5.417   2.643  0.00  0.00    -0.269 N 
ATOM     25  C   UNL     1      11.301   5.184   3.757  0.00  0.00    +0.304 C 
ATOM     33  H   UNL     1      12.315   6.793   4.606  0.00  0.00    +0.151 HD
ATOM     35  H   UNL     1      12.797   6.164   2.726  0.00  0.00    +0.156 HD
BRANCH  11  26
ATOM     26  C   UNL     1      12.103   4.735   1.404  0.00  0.00    +0.035 A 
ATOM     27  C   UNL     1      13.136   3.852   1.087  0.00  0.00    +0.024 A 
ATOM     28  C   UNL     1      11.062   4.943   0.500  0.00  0.00    +0.024 A 
ATOM     29  C   UNL     1      13.127   3.179  -0.134  0.00  0.00    +0.014 A 
ATOM     30  C   UNL     1      11.053   4.271  -0.722  0.00  0.00    +0.014 A 
ATOM     31  C   UNL     1      12.086   3.388  -1.039  0.00  0.00    +0.055 A 
BRANCH  31  32
ATOM      1  F   UNL     1      12.068   1.307  -2.219  0.00  0.00    -0.166 F 
ATOM      2  F   UNL     1      13.161   2.944  -3.129  0.00  0.00    -0.166 F 
ATOM      3  F   UNL     1      10.986   2.973  -3.106  0.00  0.00    -0.166 F 
ATOM     32  C   UNL     1      12.077   2.667  -2.345  0.00  0.00    +0.417 C 
ENDBRANCH  31  32
ENDBRANCH  11  26
ENDBRANCH  14   9
BRANCH  15   6
ATOM      6  O   UNL     1      10.153   9.930   8.393  0.00  0.00    -0.442 OA
BRANCH   6  24
ATOM      7  O   UNL     1       9.015  11.777   7.638  0.00  0.00    -0.226 OA
ATOM     10  N   UNL     1       9.565  11.534   9.880  0.00  0.00    -0.278 N 
ATOM     24  C   UNL     1       9.528  11.145   8.556  0.00  0.00    +0.401 C 
ATOM     34  H   UNL     1      10.063  10.934  10.528  0.00  0.00    +0.152 HD
BRANCH  10  18
ATOM     18  C   UNL     1       8.990  12.767  10.369  0.00  0.00    +0.076 C 
ATOM     19  C   UNL     1       8.377  12.574  11.761  0.00  0.00    +0.022 C 
ATOM     20  C   UNL     1      10.028  13.896  10.372  0.00  0.00    +0.022 C 
ATOM     21  C   UNL     1       9.437  12.397  12.848  0.00  0.00    +0.002 C 
ATOM     22  C   UNL     1      11.085  13.715  11.462  0.00  0.00    +0.002 C 
ATOM     23  C   UNL     1      10.451  13.537  12.837  0.00  0.00    +0.000 C 
ENDBRANCH  10  18
ENDBRANCH   6  24
ENDBRANCH  15   6
TORSDOF 6
ENDMDL
MODEL 9
REMARK VINA RESULT:      -6.8     19.381     21.304
REMARK  Name = 11883359
REMARK  6 active torsions:
REMARK  status: ('A' for Active; 'I' for Inactive)
REMARK    1  A    between atoms: O_6  and  C_15
REMARK    2  A    between atoms: O_6  and  C_24
REMARK    3  A    between atoms: N_9  and  C_14
REMARK    4  A    between atoms: N_10  and  C_18
REMARK    5  A    between atoms: N_11  and  C_26
REMARK    6  A    between atoms: C_31  and  C_32
REMARK                            x       y       z     vdW  Elec       q    Type
REMARK                         _______ _______ _______ _____ _____    ______ ____
ROOT
ATOM      4  O   UNL     1      -9.603  -7.618   9.350  0.00  0.00    -0.368 OA
ATOM      5  O   UNL     1      -8.957  -7.119   6.394  0.00  0.00    -0.368 OA
ATOM     12  C   UNL     1      -8.155  -6.975   7.585  0.00  0.00    +0.173 C 
ATOM     13  C   UNL     1      -9.075  -6.464   8.675  0.00  0.00    +0.192 C 
ATOM     14  C   UNL     1      -7.721  -8.334   8.085  0.00  0.00    +0.131 C 
ATOM     15  C   UNL     1     -10.142  -5.739   7.889  0.00  0.00    +0.235 C 
ATOM     16  C   UNL     1      -8.942  -8.796   8.862  0.00  0.00    +0.185 C 
ATOM     17  C   UNL     1     -10.270  -6.604   6.655  0.00  0.00    +0.207 C 
ENDROOT
BRANCH  14   9
ATOM      8  O   UNL     1      -6.614 -10.406   9.724  0.00  0.00    -0.252 OA
ATOM      9  N   UNL     1      -6.564  -8.231   8.940  0.00  0.00    -0.292 N 
ATOM     11  N   UNL     1      -4.956  -8.904  10.437  0.00  0.00    -0.269 N 
ATOM     25  C   UNL     1      -6.086  -9.297   9.712  0.00  0.00    +0.304 C 
ATOM     33  H   UNL     1      -6.033  -7.366   8.934  0.00  0.00    +0.151 HD
ATOM     35  H   UNL     1      -4.647  -7.943  10.314  0.00  0.00    +0.156 HD
BRANCH  11  26
ATOM     26  C   UNL     1      -4.184  -9.684  11.329  0.00  0.00    +0.035 A 
ATOM     27  C   UNL     1      -2.850  -9.967  11.031  0.00  0.00    +0.024 A 
ATOM     28  C   UNL     1      -4.754 -10.171  12.505  0.00  0.00    +0.024 A 
ATOM     29  C   UNL     1      -2.088 -10.737  11.910  0.00  0.00    +0.014 A 
ATOM     30  C   UNL     1      -3.992 -10.940  13.384  0.00  0.00    +0.014 A 
ATOM     31  C   UNL     1      -2.658 -11.223  13.086  0.00  0.00    +0.055 A 
BRANCH  31  32
ATOM      1  F   UNL     1      -0.937 -12.854  13.399  0.00  0.00    -0.166 F 
ATOM      2  F   UNL     1      -2.587 -12.885  14.805  0.00  0.00    -0.166 F 
ATOM      3  F   UNL     1      -1.117 -11.285  14.895  0.00  0.00    -0.166 F 
ATOM     32  C   UNL     1      -1.843 -12.046  14.025  0.00  0.00    +0.417 C 
ENDBRANCH  31  32
ENDBRANCH  11  26
ENDBRANCH  14   9
BRANCH  15   6
ATOM      6  O   UNL     1     -11.363  -5.614   8.579  0.00  0.00    -0.442 OA
BRANCH   6  24
ATOM      7  O   UNL     1     -11.259  -3.334   8.836  0.00  0.00    -0.226 OA
ATOM     10  N   UNL     1     -12.158  -4.693  10.489  0.00  0.00    -0.278 N 
ATOM     24  C   UNL     1     -11.567  -4.441   9.268  0.00  0.00    +0.401 C 
ATOM     34  H   UNL     1     -12.318  -5.663  10.738  0.00  0.00    +0.152 HD
BRANCH  10  18
ATOM     18  C   UNL     1     -12.500  -3.661  11.443  0.00  0.00    +0.076 C 
ATOM     19  C   UNL     1     -13.910  -3.118  11.185  0.00  0.00    +0.022 C 
ATOM     20  C   UNL     1     -12.355  -4.170  12.882  0.00  0.00    +0.022 C 
ATOM     21  C   UNL     1     -15.001  -4.118  11.568  0.00  0.00    +0.002 C 
ATOM     22  C   UNL     1     -13.449  -5.169  13.261  0.00  0.00    +0.002 C 
ATOM     23  C   UNL     1     -14.842  -4.602  13.006  0.00  0.00    +0.000 C 
ENDBRANCH  10  18
ENDBRANCH   6  24
ENDBRANCH  15   6
TORSDOF 6
ENDMDL
MODEL 10
REMARK VINA RESULT:      -6.8     31.445     34.896
REMARK  Name = 11883359
REMARK  6 active torsions:
REMARK  status: ('A' for Active; 'I' for Inactive)
REMARK    1  A    between atoms: O_6  and  C_15
REMARK    2  A    between atoms: O_6  and  C_24
REMARK    3  A    between atoms: N_9  and  C_14
REMARK    4  A    between atoms: N_10  and  C_18
REMARK    5  A    between atoms: N_11  and  C_26
REMARK    6  A    between atoms: C_31  and  C_32
REMARK                            x       y       z     vdW  Elec       q    Type
REMARK                         _______ _______ _______ _____ _____    ______ ____
ROOT
ATOM      4  O   UNL     1      21.526   7.850  23.094  0.00  0.00    -0.368 OA
ATOM      5  O   UNL     1      22.117   7.924  20.086  0.00  0.00    -0.368 OA
ATOM     12  C   UNL     1      21.071   7.275  20.839  0.00  0.00    +0.173 C 
ATOM     13  C   UNL     1      21.695   6.795  22.133  0.00  0.00    +0.192 C 
ATOM     14  C   UNL     1      20.047   8.292  21.285  0.00  0.00    +0.131 C 
ATOM     15  C   UNL     1      23.144   6.613  21.750  0.00  0.00    +0.235 C 
ATOM     16  C   UNL     1      20.695   8.876  22.529  0.00  0.00    +0.185 C 
ATOM     17  C   UNL     1      23.361   7.752  20.779  0.00  0.00    +0.207 C 
ENDROOT
BRANCH  14   9
ATOM      8  O   UNL     1      17.435   9.287  20.655  0.00  0.00    -0.252 OA
ATOM      9  N   UNL     1      18.787   7.664  21.596  0.00  0.00    -0.292 N 
ATOM     11  N   UNL     1      16.507   7.389  21.681  0.00  0.00    -0.269 N 
ATOM     25  C   UNL     1      17.548   8.218  21.252  0.00  0.00    +0.304 C 
ATOM     33  H   UNL     1      18.798   6.745  22.029  0.00  0.00    +0.151 HD
ATOM     35  H   UNL     1      16.774   6.536  22.164  0.00  0.00    +0.156 HD
BRANCH  11  26
ATOM     26  C   UNL     1      15.116   7.594  21.526  0.00  0.00    +0.035 A 
ATOM     27  C   UNL     1      14.488   8.644  22.197  0.00  0.00    +0.024 A 
ATOM     28  C   UNL     1      14.372   6.747  20.705  0.00  0.00    +0.024 A 
ATOM     29  C   UNL     1      13.116   8.846  22.046  0.00  0.00    +0.014 A 
ATOM     30  C   UNL     1      13.000   6.948  20.555  0.00  0.00    +0.014 A 
ATOM     31  C   UNL     1      12.373   7.999  21.226  0.00  0.00    +0.055 A 
BRANCH  31  32
ATOM      1  F   UNL     1      10.416   9.234  21.831  0.00  0.00    -0.166 F 
ATOM      2  F   UNL     1      10.152   7.126  21.397  0.00  0.00    -0.166 F 
ATOM      3  F   UNL     1      10.558   8.523  19.781  0.00  0.00    -0.166 F 
ATOM     32  C   UNL     1      10.906   8.216  21.064  0.00  0.00    +0.417 C 
ENDBRANCH  31  32
ENDBRANCH  11  26
ENDBRANCH  14   9
BRANCH  15   6
ATOM      6  O   UNL     1      24.028   6.673  22.846  0.00  0.00    -0.442 OA
BRANCH   6  24
ATOM      7  O   UNL     1      26.271   6.222  23.044  0.00  0.00    -0.226 OA
ATOM     10  N   UNL     1      24.758   4.568  22.442  0.00  0.00    -0.278 N 
ATOM     24  C   UNL     1      25.128   5.849  22.799  0.00  0.00    +0.401 C 
ATOM     34  H   UNL     1      23.781   4.409  22.223  0.00  0.00    +0.152 HD
BRANCH  10  18
ATOM     18  C   UNL     1      25.692   3.472  22.308  0.00  0.00    +0.076 C 
ATOM     19  C   UNL     1      25.298   2.300  23.215  0.00  0.00    +0.022 C 
ATOM     20  C   UNL     1      25.812   3.026  20.846  0.00  0.00    +0.022 C 
ATOM     21  C   UNL     1      24.052   1.568  22.719  0.00  0.00    +0.002 C 
ATOM     22  C   UNL     1      24.563   2.293  20.354  0.00  0.00    +0.002 C 
ATOM     23  C   UNL     1      24.199   1.126  21.266  0.00  0.00    +0.000 C 
ENDBRANCH  10  18
ENDBRANCH   6  24
ENDBRANCH  15   6
TORSDOF 6
ENDMDL
