MODEL 1
REMARK VINA RESULT:      -7.5      0.000      0.000
REMARK  Name = 51136867
REMARK  8 active torsions:
REMARK  status: ('A' for Active; 'I' for Inactive)
REMARK    1  A    between atoms: O_4  and  C_35
REMARK    2  A    between atoms: O_4  and  C_36
REMARK    3  A    between atoms: N_5  and  C_11
REMARK    4  A    between atoms: N_10  and  C_28
REMARK    5  A    between atoms: C_12  and  C_20
REMARK    6  A    between atoms: C_21  and  C_22
REMARK    7  A    between atoms: C_23  and  C_24
REMARK    8  A    between atoms: C_29  and  C_30
REMARK                            x       y       z     vdW  Elec       q    Type
REMARK                         _______ _______ _______ _____ _____    ______ ____
ROOT
ATOM      1  O   UNL     1     -11.803   9.727  19.270  0.00  0.00    -0.336 OA
ATOM      7  N   UNL     1     -12.095   7.519  19.023  0.00  0.00    -0.190 NA
ATOM      8  N   UNL     1     -12.339   9.268  20.479  0.00  0.00    -0.056 NA
ATOM     20  C   UNL     1     -11.691   8.634  18.470  0.00  0.00    +0.245 A 
ATOM     23  C   UNL     1     -12.483   7.958  20.256  0.00  0.00    +0.204 A 
ENDROOT
BRANCH  23  24
ATOM      9  N   UNL     1     -14.708   6.581  22.897  0.00  0.00    -0.239 NA
ATOM     24  C   UNL     1     -13.014   7.061  21.241  0.00  0.00    +0.041 A 
ATOM     25  C   UNL     1     -12.397   5.844  21.510  0.00  0.00    +0.016 A 
ATOM     26  C   UNL     1     -14.157   7.379  21.957  0.00  0.00    +0.124 A 
ATOM     27  C   UNL     1     -12.934   4.996  22.472  0.00  0.00    +0.044 A 
ATOM     28  C   UNL     1     -14.081   5.407  23.132  0.00  0.00    +0.125 A 
BRANCH  28  10
ATOM      3  O   UNL     1     -16.805   4.172  23.338  0.00  0.00    -0.270 OA
ATOM     10  N   UNL     1     -14.613   4.545  24.097  0.00  0.00    -0.266 N 
ATOM     29  C   UNL     1     -15.898   3.996  24.145  0.00  0.00    +0.249 C 
ATOM     37  H   UNL     1     -13.935   4.284  24.808  0.00  0.00    +0.157 HD
BRANCH  29  30
ATOM     30  C   UNL     1     -16.157   3.084  25.290  0.00  0.00    +0.037 A 
ATOM     31  C   UNL     1     -16.034   3.557  26.597  0.00  0.00    +0.016 A 
ATOM     32  C   UNL     1     -16.521   1.759  25.058  0.00  0.00    +0.016 A 
ATOM     33  C   UNL     1     -16.276   2.701  27.673  0.00  0.00    +0.046 A 
ATOM     34  C   UNL     1     -16.762   0.903  26.134  0.00  0.00    +0.046 A 
ATOM     35  C   UNL     1     -16.639   1.374  27.441  0.00  0.00    +0.120 A 
BRANCH  35   4
ATOM      4  O   UNL     1     -16.874   0.540  28.490  0.00  0.00    -0.495 OA
ATOM     36  C   UNL     1     -16.131   0.776  29.686  0.00  0.00    +0.277 C 
ENDBRANCH  35   4
ENDBRANCH  29  30
ENDBRANCH  28  10
ENDBRANCH  23  24
BRANCH  20  12
ATOM      5  N   UNL     1     -12.145   9.346  16.127  0.00  0.00    -0.288 NA
ATOM     12  C   UNL     1     -11.126   8.868  17.083  0.00  0.00    +0.146 C 
ATOM     13  C   UNL     1     -11.438  10.167  15.145  0.00  0.00    +0.085 C 
ATOM     14  C   UNL     1     -10.031   9.951  17.062  0.00  0.00    +0.030 C 
ATOM     17  C   UNL     1     -10.494  10.963  16.023  0.00  0.00    +0.017 C 
BRANCH   5  11
ATOM      2  O   UNL     1     -15.282   7.311  11.247  0.00  0.00    -0.276 OA
ATOM      6  N   UNL     1     -14.799   7.341  13.519  0.00  0.00    -0.302 N 
ATOM     11  C   UNL     1     -12.898   8.263  15.500  0.00  0.00    +0.060 C 
ATOM     15  C   UNL     1     -14.404   8.508  15.656  0.00  0.00    +0.038 C 
ATOM     16  C   UNL     1     -12.525   8.154  14.016  0.00  0.00    +0.038 C 
ATOM     18  C   UNL     1     -15.214   7.438  14.924  0.00  0.00    +0.109 C 
ATOM     19  C   UNL     1     -13.371   7.091  13.317  0.00  0.00    +0.109 C 
ATOM     21  C   UNL     1     -15.650   7.430  12.419  0.00  0.00    +0.212 C 
ATOM     22  C   UNL     1     -17.106   7.694  12.710  0.00  0.00    +0.109 C 
ENDBRANCH   5  11
ENDBRANCH  20  12
TORSDOF 6
ENDMDL
MODEL 2
REMARK VINA RESULT:      -7.2     17.709     18.826
REMARK  Name = 51136867
REMARK  8 active torsions:
REMARK  status: ('A' for Active; 'I' for Inactive)
REMARK    1  A    between atoms: O_4  and  C_35
REMARK    2  A    between atoms: O_4  and  C_36
REMARK    3  A    between atoms: N_5  and  C_11
REMARK    4  A    between atoms: N_10  and  C_28
REMARK    5  A    between atoms: C_12  and  C_20
REMARK    6  A    between atoms: C_21  and  C_22
REMARK    7  A    between atoms: C_23  and  C_24
REMARK    8  A    between atoms: C_29  and  C_30
REMARK                            x       y       z     vdW  Elec       q    Type
REMARK                         _______ _______ _______ _____ _____    ______ ____
ROOT
ATOM      1  O   UNL     1      -3.069 -10.657  14.468  0.00  0.00    -0.336 OA
ATOM      7  N   UNL     1      -5.180 -10.681  13.718  0.00  0.00    -0.190 NA
ATOM      8  N   UNL     1      -3.886 -10.667  15.605  0.00  0.00    -0.056 NA
ATOM     20  C   UNL     1      -3.910 -10.666  13.401  0.00  0.00    +0.245 A 
ATOM     23  C   UNL     1      -5.115 -10.681  15.082  0.00  0.00    +0.204 A 
ENDROOT
BRANCH  23  24
ATOM      9  N   UNL     1      -8.240 -11.889  16.694  0.00  0.00    -0.239 NA
ATOM     24  C   UNL     1      -6.298 -10.693  15.892  0.00  0.00    +0.041 A 
ATOM     25  C   UNL     1      -6.665  -9.581  16.643  0.00  0.00    +0.016 A 
ATOM     26  C   UNL     1      -7.113 -11.812  15.953  0.00  0.00    +0.124 A 
ATOM     27  C   UNL     1      -7.818  -9.622  17.417  0.00  0.00    +0.044 A 
ATOM     28  C   UNL     1      -8.565 -10.790  17.409  0.00  0.00    +0.125 A 
BRANCH  28  10
ATOM      3  O   UNL     1      -8.958 -11.654  20.253  0.00  0.00    -0.270 OA
ATOM     10  N   UNL     1      -9.723 -10.819  18.193  0.00  0.00    -0.266 N 
ATOM     29  C   UNL     1      -9.851 -11.235  19.523  0.00  0.00    +0.249 C 
ATOM     37  H   UNL     1     -10.536 -10.450  17.709  0.00  0.00    +0.157 HD
BRANCH  29  30
ATOM     30  C   UNL     1     -11.218 -11.121  20.095  0.00  0.00    +0.037 A 
ATOM     31  C   UNL     1     -11.873  -9.889  20.094  0.00  0.00    +0.016 A 
ATOM     32  C   UNL     1     -11.845 -12.244  20.632  0.00  0.00    +0.016 A 
ATOM     33  C   UNL     1     -13.156  -9.781  20.632  0.00  0.00    +0.046 A 
ATOM     34  C   UNL     1     -13.128 -12.137  21.170  0.00  0.00    +0.046 A 
ATOM     35  C   UNL     1     -13.783 -10.905  21.171  0.00  0.00    +0.120 A 
BRANCH  35   4
ATOM      4  O   UNL     1     -15.034 -10.800  21.696  0.00  0.00    -0.495 OA
ATOM     36  C   UNL     1     -15.404 -11.757  22.689  0.00  0.00    +0.277 C 
ENDBRANCH  35   4
ENDBRANCH  29  30
ENDBRANCH  28  10
ENDBRANCH  23  24
BRANCH  20  12
ATOM      5  N   UNL     1      -3.713  -9.527  11.196  0.00  0.00    -0.288 NA
ATOM     12  C   UNL     1      -3.264 -10.659  12.030  0.00  0.00    +0.146 C 
ATOM     13  C   UNL     1      -2.604  -9.212  10.296  0.00  0.00    +0.085 C 
ATOM     14  C   UNL     1      -1.732 -10.514  12.097  0.00  0.00    +0.030 C 
ATOM     17  C   UNL     1      -1.409  -9.310  11.222  0.00  0.00    +0.017 C 
BRANCH   5  11
ATOM      2  O   UNL     1      -7.503  -8.049   6.586  0.00  0.00    -0.276 OA
ATOM      6  N   UNL     1      -7.062  -8.942   8.685  0.00  0.00    -0.302 N 
ATOM     11  C   UNL     1      -4.950  -9.802  10.470  0.00  0.00    +0.060 C 
ATOM     15  C   UNL     1      -6.057  -8.847  10.936  0.00  0.00    +0.038 C 
ATOM     16  C   UNL     1      -4.718  -9.657   8.961  0.00  0.00    +0.038 C 
ATOM     18  C   UNL     1      -7.336  -9.052  10.123  0.00  0.00    +0.109 C 
ATOM     19  C   UNL     1      -6.022  -9.846   8.188  0.00  0.00    +0.109 C 
ATOM     21  C   UNL     1      -7.728  -8.098   7.799  0.00  0.00    +0.212 C 
ATOM     22  C   UNL     1      -8.782  -7.195   8.389  0.00  0.00    +0.109 C 
ENDBRANCH   5  11
ENDBRANCH  20  12
TORSDOF 6
ENDMDL
MODEL 3
REMARK VINA RESULT:      -7.2     16.304     19.267
REMARK  Name = 51136867
REMARK  8 active torsions:
REMARK  status: ('A' for Active; 'I' for Inactive)
REMARK    1  A    between atoms: O_4  and  C_35
REMARK    2  A    between atoms: O_4  and  C_36
REMARK    3  A    between atoms: N_5  and  C_11
REMARK    4  A    between atoms: N_10  and  C_28
REMARK    5  A    between atoms: C_12  and  C_20
REMARK    6  A    between atoms: C_21  and  C_22
REMARK    7  A    between atoms: C_23  and  C_24
REMARK    8  A    between atoms: C_29  and  C_30
REMARK                            x       y       z     vdW  Elec       q    Type
REMARK                         _______ _______ _______ _____ _____    ______ ____
ROOT
ATOM      1  O   UNL     1      -9.437 -10.265  18.763  0.00  0.00    -0.336 OA
ATOM      7  N   UNL     1      -8.693  -9.707  16.724  0.00  0.00    -0.190 NA
ATOM      8  N   UNL     1     -10.387  -9.385  18.229  0.00  0.00    -0.056 NA
ATOM     20  C   UNL     1      -8.475 -10.401  17.813  0.00  0.00    +0.245 A 
ATOM     23  C   UNL     1      -9.878  -9.101  17.027  0.00  0.00    +0.204 A 
ENDROOT
BRANCH  23  24
ATOM      9  N   UNL     1     -11.625  -7.890  13.976  0.00  0.00    -0.239 NA
ATOM     24  C   UNL     1     -10.526  -8.214  16.105  0.00  0.00    +0.041 A 
ATOM     25  C   UNL     1     -10.694  -6.866  16.404  0.00  0.00    +0.016 A 
ATOM     26  C   UNL     1     -11.006  -8.672  14.888  0.00  0.00    +0.124 A 
ATOM     27  C   UNL     1     -11.325  -6.030  15.490  0.00  0.00    +0.044 A 
ATOM     28  C   UNL     1     -11.769  -6.586  14.300  0.00  0.00    +0.125 A 
BRANCH  28  10
ATOM      3  O   UNL     1     -14.634  -5.720  14.128  0.00  0.00    -0.270 OA
ATOM     10  N   UNL     1     -12.403  -5.736  13.388  0.00  0.00    -0.266 N 
ATOM     29  C   UNL     1     -13.751  -5.364  13.354  0.00  0.00    +0.249 C 
ATOM     37  H   UNL     1     -11.760  -5.335  12.712  0.00  0.00    +0.157 HD
BRANCH  29  30
ATOM     30  C   UNL     1     -14.120  -4.415  12.271  0.00  0.00    +0.037 A 
ATOM     31  C   UNL     1     -14.985  -3.354  12.540  0.00  0.00    +0.016 A 
ATOM     32  C   UNL     1     -13.602  -4.586  10.988  0.00  0.00    +0.016 A 
ATOM     33  C   UNL     1     -15.333  -2.463  11.523  0.00  0.00    +0.046 A 
ATOM     34  C   UNL     1     -13.949  -3.695   9.971  0.00  0.00    +0.046 A 
ATOM     35  C   UNL     1     -14.816  -2.635  10.239  0.00  0.00    +0.120 A 
BRANCH  35   4
ATOM      4  O   UNL     1     -15.155  -1.766   9.247  0.00  0.00    -0.495 OA
ATOM     36  C   UNL     1     -14.656  -2.047   7.939  0.00  0.00    +0.277 C 
ENDBRANCH  35   4
ENDBRANCH  29  30
ENDBRANCH  28  10
ENDBRANCH  23  24
BRANCH  20  12
ATOM      5  N   UNL     1      -6.004 -10.703  17.865  0.00  0.00    -0.288 NA
ATOM     12  C   UNL     1      -7.316 -11.317  18.151  0.00  0.00    +0.146 C 
ATOM     13  C   UNL     1      -5.059 -11.289  18.815  0.00  0.00    +0.085 C 
ATOM     14  C   UNL     1      -7.262 -11.679  19.647  0.00  0.00    +0.030 C 
ATOM     17  C   UNL     1      -5.862 -11.287  20.099  0.00  0.00    +0.017 C 
BRANCH   5  11
ATOM      2  O   UNL     1      -3.228 -14.240  13.672  0.00  0.00    -0.276 OA
ATOM      6  N   UNL     1      -3.886 -12.180  14.519  0.00  0.00    -0.302 N 
ATOM     11  C   UNL     1      -5.575 -10.882  16.480  0.00  0.00    +0.060 C 
ATOM     15  C   UNL     1      -4.090 -10.527  16.339  0.00  0.00    +0.038 C 
ATOM     16  C   UNL     1      -5.825 -12.328  16.035  0.00  0.00    +0.038 C 
ATOM     18  C   UNL     1      -3.593 -10.798  14.918  0.00  0.00    +0.109 C 
ATOM     19  C   UNL     1      -5.295 -12.563  14.621  0.00  0.00    +0.109 C 
ATOM     21  C   UNL     1      -2.952 -13.094  14.035  0.00  0.00    +0.212 C 
ATOM     22  C   UNL     1      -1.520 -12.625  13.964  0.00  0.00    +0.109 C 
ENDBRANCH   5  11
ENDBRANCH  20  12
TORSDOF 6
ENDMDL
MODEL 4
REMARK VINA RESULT:      -7.1      2.734      5.142
REMARK  Name = 51136867
REMARK  8 active torsions:
REMARK  status: ('A' for Active; 'I' for Inactive)
REMARK    1  A    between atoms: O_4  and  C_35
REMARK    2  A    between atoms: O_4  and  C_36
REMARK    3  A    between atoms: N_5  and  C_11
REMARK    4  A    between atoms: N_10  and  C_28
REMARK    5  A    between atoms: C_12  and  C_20
REMARK    6  A    between atoms: C_21  and  C_22
REMARK    7  A    between atoms: C_23  and  C_24
REMARK    8  A    between atoms: C_29  and  C_30
REMARK                            x       y       z     vdW  Elec       q    Type
REMARK                         _______ _______ _______ _____ _____    ______ ____
ROOT
ATOM      1  O   UNL     1     -16.916   5.609  18.832  0.00  0.00    -0.336 OA
ATOM      7  N   UNL     1     -15.880   6.578  20.567  0.00  0.00    -0.190 NA
ATOM      8  N   UNL     1     -17.014   4.706  19.898  0.00  0.00    -0.056 NA
ATOM     20  C   UNL     1     -16.235   6.683  19.312  0.00  0.00    +0.245 A 
ATOM     23  C   UNL     1     -16.380   5.348  20.884  0.00  0.00    +0.204 A 
ENDROOT
BRANCH  23  24
ATOM      9  N   UNL     1     -14.891   4.547  24.195  0.00  0.00    -0.239 NA
ATOM     24  C   UNL     1     -16.228   4.789  22.196  0.00  0.00    +0.041 A 
ATOM     25  C   UNL     1     -17.212   3.975  22.747  0.00  0.00    +0.016 A 
ATOM     26  C   UNL     1     -15.097   5.042  22.955  0.00  0.00    +0.124 A 
ATOM     27  C   UNL     1     -17.036   3.446  24.021  0.00  0.00    +0.044 A 
ATOM     28  C   UNL     1     -15.867   3.759  24.698  0.00  0.00    +0.125 A 
BRANCH  28  10
ATOM      3  O   UNL     1     -16.953   4.674  27.339  0.00  0.00    -0.270 OA
ATOM     10  N   UNL     1     -15.701   3.222  25.979  0.00  0.00    -0.266 N 
ATOM     29  C   UNL     1     -16.234   3.692  27.184  0.00  0.00    +0.249 C 
ATOM     37  H   UNL     1     -15.153   2.368  25.979  0.00  0.00    +0.157 HD
BRANCH  29  30
ATOM     30  C   UNL     1     -15.898   2.882  28.384  0.00  0.00    +0.037 A 
ATOM     31  C   UNL     1     -15.093   3.423  29.387  0.00  0.00    +0.016 A 
ATOM     32  C   UNL     1     -16.389   1.583  28.508  0.00  0.00    +0.016 A 
ATOM     33  C   UNL     1     -14.777   2.662  30.513  0.00  0.00    +0.046 A 
ATOM     34  C   UNL     1     -16.073   0.822  29.634  0.00  0.00    +0.046 A 
ATOM     35  C   UNL     1     -15.266   1.362  30.636  0.00  0.00    +0.120 A 
BRANCH  35   4
ATOM      4  O   UNL     1     -14.958   0.620  31.735  0.00  0.00    -0.495 OA
ATOM     36  C   UNL     1     -14.719   1.330  32.951  0.00  0.00    +0.277 C 
ENDBRANCH  35   4
ENDBRANCH  29  30
ENDBRANCH  28  10
ENDBRANCH  23  24
BRANCH  20  12
ATOM      5  N   UNL     1     -14.720   7.679  17.605  0.00  0.00    -0.288 NA
ATOM     12  C   UNL     1     -15.994   7.820  18.338  0.00  0.00    +0.146 C 
ATOM     13  C   UNL     1     -14.916   8.330  16.310  0.00  0.00    +0.085 C 
ATOM     14  C   UNL     1     -17.072   7.900  17.240  0.00  0.00    +0.030 C 
ATOM     17  C   UNL     1     -16.303   7.858  15.927  0.00  0.00    +0.017 C 
BRANCH   5  11
ATOM      2  O   UNL     1     -11.205  12.554  18.901  0.00  0.00    -0.276 OA
ATOM      6  N   UNL     1     -11.551  10.270  18.655  0.00  0.00    -0.302 N 
ATOM     11  C   UNL     1     -13.576   8.227  18.329  0.00  0.00    +0.060 C 
ATOM     15  C   UNL     1     -12.354   8.301  17.405  0.00  0.00    +0.038 C 
ATOM     16  C   UNL     1     -13.918   9.618  18.878  0.00  0.00    +0.038 C 
ATOM     18  C   UNL     1     -11.170   8.960  18.112  0.00  0.00    +0.109 C 
ATOM     19  C   UNL     1     -12.704  10.250  19.557  0.00  0.00    +0.109 C 
ATOM     21  C   UNL     1     -10.887  11.470  18.405  0.00  0.00    +0.212 C 
ATOM     22  C   UNL     1      -9.712  11.409  17.461  0.00  0.00    +0.109 C 
ENDBRANCH   5  11
ENDBRANCH  20  12
TORSDOF 6
ENDMDL
MODEL 5
REMARK VINA RESULT:      -7.1     19.529     23.575
REMARK  Name = 51136867
REMARK  8 active torsions:
REMARK  status: ('A' for Active; 'I' for Inactive)
REMARK    1  A    between atoms: O_4  and  C_35
REMARK    2  A    between atoms: O_4  and  C_36
REMARK    3  A    between atoms: N_5  and  C_11
REMARK    4  A    between atoms: N_10  and  C_28
REMARK    5  A    between atoms: C_12  and  C_20
REMARK    6  A    between atoms: C_21  and  C_22
REMARK    7  A    between atoms: C_23  and  C_24
REMARK    8  A    between atoms: C_29  and  C_30
REMARK                            x       y       z     vdW  Elec       q    Type
REMARK                         _______ _______ _______ _____ _____    ______ ____
ROOT
ATOM      1  O   UNL     1      -2.026 -10.658  12.775  0.00  0.00    -0.336 OA
ATOM      7  N   UNL     1      -4.047 -11.412  12.167  0.00  0.00    -0.190 NA
ATOM      8  N   UNL     1      -2.350  -9.990  11.588  0.00  0.00    -0.056 NA
ATOM     20  C   UNL     1      -3.078 -11.475  13.045  0.00  0.00    +0.245 A 
ATOM     23  C   UNL     1      -3.554 -10.487  11.292  0.00  0.00    +0.204 A 
ENDROOT
BRANCH  23  24
ATOM      9  N   UNL     1      -5.665  -8.429   9.027  0.00  0.00    -0.239 NA
ATOM     24  C   UNL     1      -4.291 -10.084  10.130  0.00  0.00    +0.041 A 
ATOM     25  C   UNL     1      -4.363 -10.902   9.007  0.00  0.00    +0.016 A 
ATOM     26  C   UNL     1      -4.954  -8.868  10.089  0.00  0.00    +0.124 A 
ATOM     27  C   UNL     1      -5.086 -10.484   7.895  0.00  0.00    +0.044 A 
ATOM     28  C   UNL     1      -5.714  -9.250   7.955  0.00  0.00    +0.125 A 
BRANCH  28  10
ATOM      3  O   UNL     1      -8.637  -8.665   7.640  0.00  0.00    -0.270 OA
ATOM     10  N   UNL     1      -6.438  -8.840   6.830  0.00  0.00    -0.266 N 
ATOM     29  C   UNL     1      -7.809  -8.580   6.738  0.00  0.00    +0.249 C 
ATOM     37  H   UNL     1      -5.849  -8.689   6.017  0.00  0.00    +0.157 HD
BRANCH  29  30
ATOM     30  C   UNL     1      -8.281  -8.129   5.403  0.00  0.00    +0.037 A 
ATOM     31  C   UNL     1      -7.463  -8.288   4.284  0.00  0.00    +0.016 A 
ATOM     32  C   UNL     1      -9.541  -7.547   5.270  0.00  0.00    +0.016 A 
ATOM     33  C   UNL     1      -7.906  -7.864   3.031  0.00  0.00    +0.046 A 
ATOM     34  C   UNL     1      -9.984  -7.122   4.017  0.00  0.00    +0.046 A 
ATOM     35  C   UNL     1      -9.166  -7.280   2.897  0.00  0.00    +0.120 A 
BRANCH  35   4
ATOM      4  O   UNL     1      -9.598  -6.866   1.675  0.00  0.00    -0.495 OA
ATOM     36  C   UNL     1      -9.992  -7.878   0.749  0.00  0.00    +0.277 C 
ENDBRANCH  35   4
ENDBRANCH  29  30
ENDBRANCH  28  10
ENDBRANCH  23  24
BRANCH  20  12
ATOM      5  N   UNL     1      -4.292 -12.641  14.880  0.00  0.00    -0.288 NA
ATOM     12  C   UNL     1      -2.973 -12.319  14.299  0.00  0.00    +0.146 C 
ATOM     13  C   UNL     1      -4.142 -13.928  15.559  0.00  0.00    +0.085 C 
ATOM     14  C   UNL     1      -2.314 -13.688  14.041  0.00  0.00    +0.030 C 
ATOM     17  C   UNL     1      -3.311 -14.712  14.564  0.00  0.00    +0.017 C 
BRANCH   5  11
ATOM      2  O   UNL     1      -6.225 -11.078  20.503  0.00  0.00    -0.276 OA
ATOM      6  N   UNL     1      -6.183 -10.824  18.195  0.00  0.00    -0.302 N 
ATOM     11  C   UNL     1      -4.795 -11.602  15.775  0.00  0.00    +0.060 C 
ATOM     15  C   UNL     1      -6.321 -11.703  15.894  0.00  0.00    +0.038 C 
ATOM     16  C   UNL     1      -4.141 -11.735  17.156  0.00  0.00    +0.038 C 
ATOM     18  C   UNL     1      -6.862 -10.687  16.900  0.00  0.00    +0.109 C 
ATOM     19  C   UNL     1      -4.724 -10.718  18.136  0.00  0.00    +0.109 C 
ATOM     21  C   UNL     1      -6.816 -11.001  19.423  0.00  0.00    +0.212 C 
ATOM     22  C   UNL     1      -8.321 -11.105  19.399  0.00  0.00    +0.109 C 
ENDBRANCH   5  11
ENDBRANCH  20  12
TORSDOF 6
ENDMDL
MODEL 6
REMARK VINA RESULT:      -6.9     11.425     17.538
REMARK  Name = 51136867
REMARK  8 active torsions:
REMARK  status: ('A' for Active; 'I' for Inactive)
REMARK    1  A    between atoms: O_4  and  C_35
REMARK    2  A    between atoms: O_4  and  C_36
REMARK    3  A    between atoms: N_5  and  C_11
REMARK    4  A    between atoms: N_10  and  C_28
REMARK    5  A    between atoms: C_12  and  C_20
REMARK    6  A    between atoms: C_21  and  C_22
REMARK    7  A    between atoms: C_23  and  C_24
REMARK    8  A    between atoms: C_29  and  C_30
REMARK                            x       y       z     vdW  Elec       q    Type
REMARK                         _______ _______ _______ _____ _____    ______ ____
ROOT
ATOM      1  O   UNL     1     -12.378   9.741  37.286  0.00  0.00    -0.336 OA
ATOM      7  N   UNL     1     -11.660   7.653  36.906  0.00  0.00    -0.190 NA
ATOM      8  N   UNL     1     -13.160   9.245  36.236  0.00  0.00    -0.056 NA
ATOM     20  C   UNL     1     -11.521   8.741  37.621  0.00  0.00    +0.245 A 
ATOM     23  C   UNL     1     -12.677   8.011  36.069  0.00  0.00    +0.204 A 
ENDROOT
BRANCH  23  24
ATOM      9  N   UNL     1     -13.584   6.620  32.743  0.00  0.00    -0.239 NA
ATOM     24  C   UNL     1     -13.187   7.110  35.076  0.00  0.00    +0.041 A 
ATOM     25  C   UNL     1     -13.761   5.896  35.436  0.00  0.00    +0.016 A 
ATOM     26  C   UNL     1     -13.123   7.422  33.727  0.00  0.00    +0.124 A 
ATOM     27  C   UNL     1     -14.248   5.044  34.451  0.00  0.00    +0.044 A 
ATOM     28  C   UNL     1     -14.136   5.449  33.130  0.00  0.00    +0.125 A 
BRANCH  28  10
ATOM      3  O   UNL     1     -13.039   2.852  32.109  0.00  0.00    -0.270 OA
ATOM     10  N   UNL     1     -14.628   4.583  32.147  0.00  0.00    -0.266 N 
ATOM     29  C   UNL     1     -14.073   3.377  31.707  0.00  0.00    +0.249 C 
ATOM     37  H   UNL     1     -15.517   4.889  31.763  0.00  0.00    +0.157 HD
BRANCH  29  30
ATOM     30  C   UNL     1     -14.852   2.664  30.661  0.00  0.00    +0.037 A 
ATOM     31  C   UNL     1     -15.254   3.341  29.509  0.00  0.00    +0.016 A 
ATOM     32  C   UNL     1     -15.181   1.320  30.832  0.00  0.00    +0.016 A 
ATOM     33  C   UNL     1     -15.986   2.672  28.528  0.00  0.00    +0.046 A 
ATOM     34  C   UNL     1     -15.913   0.651  29.851  0.00  0.00    +0.046 A 
ATOM     35  C   UNL     1     -16.317   1.327  28.699  0.00  0.00    +0.120 A 
BRANCH  35   4
ATOM      4  O   UNL     1     -17.031   0.675  27.742  0.00  0.00    -0.495 OA
ATOM     36  C   UNL     1     -16.707   0.964  26.381  0.00  0.00    +0.277 C 
ENDBRANCH  35   4
ENDBRANCH  29  30
ENDBRANCH  28  10
ENDBRANCH  23  24
BRANCH  20  12
ATOM      5  N   UNL     1      -9.568  10.072  38.402  0.00  0.00    -0.288 NA
ATOM     12  C   UNL     1     -10.554   9.030  38.751  0.00  0.00    +0.146 C 
ATOM     13  C   UNL     1      -9.211  10.738  39.654  0.00  0.00    +0.085 C 
ATOM     14  C   UNL     1     -11.257   9.563  40.014  0.00  0.00    +0.030 C 
ATOM     17  C   UNL     1     -10.558  10.877  40.332  0.00  0.00    +0.017 C 
BRANCH   5  11
ATOM      2  O   UNL     1      -3.518  10.413  37.360  0.00  0.00    -0.276 OA
ATOM      6  N   UNL     1      -5.690   9.879  36.732  0.00  0.00    -0.302 N 
ATOM     11  C   UNL     1      -8.397   9.546  37.705  0.00  0.00    +0.060 C 
ATOM     15  C   UNL     1      -8.086  10.408  36.474  0.00  0.00    +0.038 C 
ATOM     16  C   UNL     1      -7.192   9.511  38.652  0.00  0.00    +0.038 C 
ATOM     18  C   UNL     1      -6.808   9.935  35.782  0.00  0.00    +0.109 C 
ATOM     19  C   UNL     1      -5.933   9.055  37.917  0.00  0.00    +0.109 C 
ATOM     21  C   UNL     1      -4.456  10.504  36.563  0.00  0.00    +0.212 C 
ATOM     22  C   UNL     1      -4.286  11.339  35.318  0.00  0.00    +0.109 C 
ENDBRANCH   5  11
ENDBRANCH  20  12
TORSDOF 6
ENDMDL
MODEL 7
REMARK VINA RESULT:      -6.9     11.828     16.318
REMARK  Name = 51136867
REMARK  8 active torsions:
REMARK  status: ('A' for Active; 'I' for Inactive)
REMARK    1  A    between atoms: O_4  and  C_35
REMARK    2  A    between atoms: O_4  and  C_36
REMARK    3  A    between atoms: N_5  and  C_11
REMARK    4  A    between atoms: N_10  and  C_28
REMARK    5  A    between atoms: C_12  and  C_20
REMARK    6  A    between atoms: C_21  and  C_22
REMARK    7  A    between atoms: C_23  and  C_24
REMARK    8  A    between atoms: C_29  and  C_30
REMARK                            x       y       z     vdW  Elec       q    Type
REMARK                         _______ _______ _______ _____ _____    ______ ____
ROOT
ATOM      1  O   UNL     1     -15.051   8.583  31.665  0.00  0.00    -0.336 OA
ATOM      7  N   UNL     1     -13.692   7.435  33.028  0.00  0.00    -0.190 NA
ATOM      8  N   UNL     1     -13.923   9.390  31.861  0.00  0.00    -0.056 NA
ATOM     20  C   UNL     1     -14.833   7.452  32.386  0.00  0.00    +0.245 A 
ATOM     23  C   UNL     1     -13.169   8.646  32.675  0.00  0.00    +0.204 A 
ENDROOT
BRANCH  23  24
ATOM      9  N   UNL     1     -10.470   9.645  35.028  0.00  0.00    -0.239 NA
ATOM     24  C   UNL     1     -11.890   9.082  33.155  0.00  0.00    +0.041 A 
ATOM     25  C   UNL     1     -10.850   9.361  32.274  0.00  0.00    +0.016 A 
ATOM     26  C   UNL     1     -11.650   9.238  34.511  0.00  0.00    +0.124 A 
ATOM     27  C   UNL     1      -9.622   9.783  32.769  0.00  0.00    +0.044 A 
ATOM     28  C   UNL     1      -9.484   9.908  34.143  0.00  0.00    +0.125 A 
BRANCH  28  10
ATOM      3  O   UNL     1      -7.779   8.791  36.341  0.00  0.00    -0.270 OA
ATOM     10  N   UNL     1      -8.243  10.333  34.629  0.00  0.00    -0.266 N 
ATOM     29  C   UNL     1      -7.487   9.772  35.664  0.00  0.00    +0.249 C 
ATOM     37  H   UNL     1      -7.868  11.123  34.113  0.00  0.00    +0.157 HD
BRANCH  29  30
ATOM     30  C   UNL     1      -6.185  10.437  35.932  0.00  0.00    +0.037 A 
ATOM     31  C   UNL     1      -5.364   9.972  36.959  0.00  0.00    +0.016 A 
ATOM     32  C   UNL     1      -5.786  11.525  35.156  0.00  0.00    +0.016 A 
ATOM     33  C   UNL     1      -4.142  10.597  37.212  0.00  0.00    +0.046 A 
ATOM     34  C   UNL     1      -4.564  12.150  35.409  0.00  0.00    +0.046 A 
ATOM     35  C   UNL     1      -3.743  11.687  36.437  0.00  0.00    +0.120 A 
BRANCH  35   4
ATOM      4  O   UNL     1      -2.551  12.296  36.684  0.00  0.00    -0.495 OA
ATOM     36  C   UNL     1      -1.954  13.015  35.604  0.00  0.00    +0.277 C 
ENDBRANCH  35   4
ENDBRANCH  29  30
ENDBRANCH  28  10
ENDBRANCH  23  24
BRANCH  20  12
ATOM      5  N   UNL     1     -15.416   5.043  32.624  0.00  0.00    -0.288 NA
ATOM     12  C   UNL     1     -15.923   6.400  32.338  0.00  0.00    +0.146 C 
ATOM     13  C   UNL     1     -16.525   4.308  33.231  0.00  0.00    +0.085 C 
ATOM     14  C   UNL     1     -17.023   6.637  33.390  0.00  0.00    +0.030 C 
ATOM     17  C   UNL     1     -17.103   5.338  34.179  0.00  0.00    +0.017 C 
BRANCH   5  11
ATOM      2  O   UNL     1     -15.800   0.327  28.698  0.00  0.00    -0.276 OA
ATOM      6  N   UNL     1     -14.618   1.981  29.822  0.00  0.00    -0.302 N 
ATOM     11  C   UNL     1     -14.888   4.366  31.443  0.00  0.00    +0.060 C 
ATOM     15  C   UNL     1     -13.975   3.207  31.864  0.00  0.00    +0.038 C 
ATOM     16  C   UNL     1     -16.040   3.850  30.572  0.00  0.00    +0.038 C 
ATOM     18  C   UNL     1     -13.486   2.423  30.646  0.00  0.00    +0.109 C 
ATOM     19  C   UNL     1     -15.511   3.055  29.381  0.00  0.00    +0.109 C 
ATOM     21  C   UNL     1     -14.860   0.669  29.421  0.00  0.00    +0.212 C 
ATOM     22  C   UNL     1     -13.897  -0.379  29.921  0.00  0.00    +0.109 C 
ENDBRANCH   5  11
ENDBRANCH  20  12
TORSDOF 6
ENDMDL
MODEL 8
REMARK VINA RESULT:      -6.9     26.641     30.722
REMARK  Name = 51136867
REMARK  8 active torsions:
REMARK  status: ('A' for Active; 'I' for Inactive)
REMARK    1  A    between atoms: O_4  and  C_35
REMARK    2  A    between atoms: O_4  and  C_36
REMARK    3  A    between atoms: N_5  and  C_11
REMARK    4  A    between atoms: N_10  and  C_28
REMARK    5  A    between atoms: C_12  and  C_20
REMARK    6  A    between atoms: C_21  and  C_22
REMARK    7  A    between atoms: C_23  and  C_24
REMARK    8  A    between atoms: C_29  and  C_30
REMARK                            x       y       z     vdW  Elec       q    Type
REMARK                         _______ _______ _______ _____ _____    ______ ____
ROOT
ATOM      1  O   UNL     1      10.818   3.645   2.286  0.00  0.00    -0.336 OA
ATOM      7  N   UNL     1      12.367   5.180   2.802  0.00  0.00    -0.190 NA
ATOM      8  N   UNL     1      10.307   4.363   3.375  0.00  0.00    -0.056 NA
ATOM     20  C   UNL     1      12.032   4.190   2.013  0.00  0.00    +0.245 A 
ATOM     23  C   UNL     1      11.277   5.249   3.620  0.00  0.00    +0.204 A 
ENDROOT
BRANCH  23  24
ATOM      9  N   UNL     1      10.400   6.793   6.887  0.00  0.00    -0.239 NA
ATOM     24  C   UNL     1      11.189   6.215   4.677  0.00  0.00    +0.041 A 
ATOM     25  C   UNL     1      11.775   7.471   4.551  0.00  0.00    +0.016 A 
ATOM     26  C   UNL     1      10.520   5.929   5.855  0.00  0.00    +0.124 A 
ATOM     27  C   UNL     1      11.673   8.387   5.591  0.00  0.00    +0.044 A 
ATOM     28  C   UNL     1      10.981   8.003   6.729  0.00  0.00    +0.125 A 
BRANCH  28  10
ATOM      3  O   UNL     1       9.312  10.482   6.965  0.00  0.00    -0.270 OA
ATOM     10  N   UNL     1      10.885   8.933   7.770  0.00  0.00    -0.266 N 
ATOM     29  C   UNL     1      10.085  10.079   7.827  0.00  0.00    +0.249 C 
ATOM     37  H   UNL     1      11.453   8.683   8.574  0.00  0.00    +0.157 HD
BRANCH  29  30
ATOM     30  C   UNL     1      10.182  10.857   9.090  0.00  0.00    +0.037 A 
ATOM     31  C   UNL     1       9.032  11.123   9.834  0.00  0.00    +0.016 A 
ATOM     32  C   UNL     1      11.421  11.321   9.529  0.00  0.00    +0.016 A 
ATOM     33  C   UNL     1       9.123  11.855  11.019  0.00  0.00    +0.046 A 
ATOM     34  C   UNL     1      11.512  12.053  10.714  0.00  0.00    +0.046 A 
ATOM     35  C   UNL     1      10.362  12.321  11.458  0.00  0.00    +0.120 A 
BRANCH  35   4
ATOM      4  O   UNL     1      10.450  13.035  12.613  0.00  0.00    -0.495 OA
ATOM     36  C   UNL     1       9.259  13.672  13.075  0.00  0.00    +0.277 C 
ENDBRANCH  35   4
ENDBRANCH  29  30
ENDBRANCH  28  10
ENDBRANCH  23  24
BRANCH  20  12
ATOM      5  N   UNL     1      12.583   4.301  -0.412  0.00  0.00    -0.288 NA
ATOM     12  C   UNL     1      12.801   3.581   0.858  0.00  0.00    +0.146 C 
ATOM     13  C   UNL     1      13.803   4.128  -1.200  0.00  0.00    +0.085 C 
ATOM     14  C   UNL     1      14.326   3.619   1.073  0.00  0.00    +0.030 C 
ATOM     17  C   UNL     1      14.882   4.326  -0.155  0.00  0.00    +0.017 C 
BRANCH   5  11
ATOM      2  O   UNL     1      10.048   2.560  -5.736  0.00  0.00    -0.276 OA
ATOM      6  N   UNL     1       9.941   3.492  -3.612  0.00  0.00    -0.302 N 
ATOM     11  C   UNL     1      11.394   3.850  -1.132  0.00  0.00    +0.060 C 
ATOM     15  C   UNL     1      10.736   5.032  -1.855  0.00  0.00    +0.038 C 
ATOM     16  C   UNL     1      11.771   2.752  -2.134  0.00  0.00    +0.038 C 
ATOM     18  C   UNL     1       9.545   4.568  -2.694  0.00  0.00    +0.109 C 
ATOM     19  C   UNL     1      10.560   2.333  -2.966  0.00  0.00    +0.109 C 
ATOM     21  C   UNL     1       9.737   3.492  -4.990  0.00  0.00    +0.212 C 
ATOM     22  C   UNL     1       9.098   4.725  -5.579  0.00  0.00    +0.109 C 
ENDBRANCH   5  11
ENDBRANCH  20  12
TORSDOF 6
ENDMDL
MODEL 9
REMARK VINA RESULT:      -6.8     13.882     18.254
REMARK  Name = 51136867
REMARK  8 active torsions:
REMARK  status: ('A' for Active; 'I' for Inactive)
REMARK    1  A    between atoms: O_4  and  C_35
REMARK    2  A    between atoms: O_4  and  C_36
REMARK    3  A    between atoms: N_5  and  C_11
REMARK    4  A    between atoms: N_10  and  C_28
REMARK    5  A    between atoms: C_12  and  C_20
REMARK    6  A    between atoms: C_21  and  C_22
REMARK    7  A    between atoms: C_23  and  C_24
REMARK    8  A    between atoms: C_29  and  C_30
REMARK                            x       y       z     vdW  Elec       q    Type
REMARK                         _______ _______ _______ _____ _____    ______ ____
ROOT
ATOM      1  O   UNL     1     -10.835  -7.120  17.089  0.00  0.00    -0.336 OA
ATOM      7  N   UNL     1     -12.537  -7.759  15.778  0.00  0.00    -0.190 NA
ATOM      8  N   UNL     1     -11.172  -6.003  16.315  0.00  0.00    -0.056 NA
ATOM     20  C   UNL     1     -11.687  -8.109  16.711  0.00  0.00    +0.245 A 
ATOM     23  C   UNL     1     -12.182  -6.458  15.568  0.00  0.00    +0.204 A 
ENDROOT
BRANCH  23  24
ATOM      9  N   UNL     1     -12.762  -3.836  12.997  0.00  0.00    -0.239 NA
ATOM     24  C   UNL     1     -12.857  -5.641  14.602  0.00  0.00    +0.041 A 
ATOM     25  C   UNL     1     -14.207  -5.828  14.322  0.00  0.00    +0.016 A 
ATOM     26  C   UNL     1     -12.187  -4.640  13.917  0.00  0.00    +0.124 A 
ATOM     27  C   UNL     1     -14.834  -5.020  13.381  0.00  0.00    +0.044 A 
ATOM     28  C   UNL     1     -14.075  -4.046  12.751  0.00  0.00    +0.125 A 
BRANCH  28  10
ATOM      3  O   UNL     1     -13.522  -3.671   9.829  0.00  0.00    -0.270 OA
ATOM     10  N   UNL     1     -14.717  -3.239  11.806  0.00  0.00    -0.266 N 
ATOM     29  C   UNL     1     -14.416  -3.101  10.447  0.00  0.00    +0.249 C 
ATOM     37  H   UNL     1     -15.514  -2.742  12.191  0.00  0.00    +0.157 HD
BRANCH  29  30
ATOM     30  C   UNL     1     -15.305  -2.182   9.690  0.00  0.00    +0.037 A 
ATOM     31  C   UNL     1     -15.114  -1.998   8.321  0.00  0.00    +0.016 A 
ATOM     32  C   UNL     1     -16.328  -1.502  10.350  0.00  0.00    +0.016 A 
ATOM     33  C   UNL     1     -15.948  -1.134   7.610  0.00  0.00    +0.046 A 
ATOM     34  C   UNL     1     -17.162  -0.637   9.640  0.00  0.00    +0.046 A 
ATOM     35  C   UNL     1     -16.971  -0.453   8.270  0.00  0.00    +0.120 A 
BRANCH  35   4
ATOM      4  O   UNL     1     -17.784   0.390   7.577  0.00  0.00    -0.495 OA
ATOM     36  C   UNL     1     -18.357  -0.108   6.368  0.00  0.00    +0.277 C 
ENDBRANCH  35   4
ENDBRANCH  29  30
ENDBRANCH  28  10
ENDBRANCH  23  24
BRANCH  20  12
ATOM      5  N   UNL     1     -10.202  -9.597  18.044  0.00  0.00    -0.288 NA
ATOM     12  C   UNL     1     -11.527  -9.443  17.412  0.00  0.00    +0.146 C 
ATOM     13  C   UNL     1     -10.393 -10.479  19.195  0.00  0.00    +0.085 C 
ATOM     14  C   UNL     1     -12.534  -9.633  18.562  0.00  0.00    +0.030 C 
ATOM     17  C   UNL     1     -11.684  -9.950  19.785  0.00  0.00    +0.017 C 
BRANCH   5  11
ATOM      2  O   UNL     1      -5.012 -12.797  17.253  0.00  0.00    -0.276 OA
ATOM      6  N   UNL     1      -6.520 -11.136  16.651  0.00  0.00    -0.302 N 
ATOM     11  C   UNL     1      -9.182 -10.101  17.128  0.00  0.00    +0.060 C 
ATOM     15  C   UNL     1      -7.949  -9.190  17.158  0.00  0.00    +0.038 C 
ATOM     16  C   UNL     1      -8.797 -11.536  17.508  0.00  0.00    +0.038 C 
ATOM     18  C   UNL     1      -6.831  -9.750  16.279  0.00  0.00    +0.109 C 
ATOM     19  C   UNL     1      -7.663 -12.050  16.622  0.00  0.00    +0.109 C 
ATOM     21  C   UNL     1      -5.254 -11.618  16.977  0.00  0.00    +0.212 C 
ATOM     22  C   UNL     1      -4.129 -10.613  16.989  0.00  0.00    +0.109 C 
ENDBRANCH   5  11
ENDBRANCH  20  12
TORSDOF 6
ENDMDL
MODEL 10
REMARK VINA RESULT:      -6.8     24.220     28.358
REMARK  Name = 51136867
REMARK  8 active torsions:
REMARK  status: ('A' for Active; 'I' for Inactive)
REMARK    1  A    between atoms: O_4  and  C_35
REMARK    2  A    between atoms: O_4  and  C_36
REMARK    3  A    between atoms: N_5  and  C_11
REMARK    4  A    between atoms: N_10  and  C_28
REMARK    5  A    between atoms: C_12  and  C_20
REMARK    6  A    between atoms: C_21  and  C_22
REMARK    7  A    between atoms: C_23  and  C_24
REMARK    8  A    between atoms: C_29  and  C_30
REMARK                            x       y       z     vdW  Elec       q    Type
REMARK                         _______ _______ _______ _____ _____    ______ ____
ROOT
ATOM      1  O   UNL     1      -5.705 -13.024   8.366  0.00  0.00    -0.336 OA
ATOM      7  N   UNL     1      -4.467 -11.438   7.380  0.00  0.00    -0.190 NA
ATOM      8  N   UNL     1      -5.135 -13.622   7.235  0.00  0.00    -0.056 NA
ATOM     20  C   UNL     1      -5.260 -11.740   8.376  0.00  0.00    +0.245 A 
ATOM     23  C   UNL     1      -4.419 -12.625   6.707  0.00  0.00    +0.204 A 
ENDROOT
BRANCH  23  24
ATOM      9  N   UNL     1      -1.659 -13.627   4.427  0.00  0.00    -0.239 NA
ATOM     24  C   UNL     1      -3.648 -12.780   5.508  0.00  0.00    +0.041 A 
ATOM     25  C   UNL     1      -4.096 -12.266   4.295  0.00  0.00    +0.016 A 
ATOM     26  C   UNL     1      -2.433 -13.447   5.519  0.00  0.00    +0.124 A 
ATOM     27  C   UNL     1      -3.325 -12.430   3.150  0.00  0.00    +0.044 A 
ATOM     28  C   UNL     1      -2.125 -13.113   3.267  0.00  0.00    +0.125 A 
BRANCH  28  10
ATOM      3  O   UNL     1      -1.410 -15.595   1.744  0.00  0.00    -0.270 OA
ATOM     10  N   UNL     1      -1.358 -13.273   2.108  0.00  0.00    -0.266 N 
ATOM     29  C   UNL     1      -1.055 -14.462   1.436  0.00  0.00    +0.249 C 
ATOM     37  H   UNL     1      -1.038 -12.390   1.723  0.00  0.00    +0.157 HD
BRANCH  29  30
ATOM     30  C   UNL     1      -0.236 -14.303   0.205  0.00  0.00    +0.037 A 
ATOM     31  C   UNL     1       1.141 -14.525   0.251  0.00  0.00    +0.016 A 
ATOM     32  C   UNL     1      -0.844 -13.933  -0.994  0.00  0.00    +0.016 A 
ATOM     33  C   UNL     1       1.910 -14.375  -0.903  0.00  0.00    +0.046 A 
ATOM     34  C   UNL     1      -0.075 -13.783  -2.148  0.00  0.00    +0.046 A 
ATOM     35  C   UNL     1       1.302 -14.003  -2.103  0.00  0.00    +0.120 A 
BRANCH  35   4
ATOM      4  O   UNL     1       2.053 -13.856  -3.229  0.00  0.00    -0.495 OA
ATOM     36  C   UNL     1       1.603 -12.900  -4.189  0.00  0.00    +0.277 C 
ENDBRANCH  35   4
ENDBRANCH  29  30
ENDBRANCH  28  10
ENDBRANCH  23  24
BRANCH  20  12
ATOM      5  N   UNL     1      -4.640 -10.143  10.182  0.00  0.00    -0.288 NA
ATOM     12  C   UNL     1      -5.741 -10.868   9.518  0.00  0.00    +0.146 C 
ATOM     13  C   UNL     1      -5.216  -8.904  10.704  0.00  0.00    +0.085 C 
ATOM     14  C   UNL     1      -6.713  -9.766   9.056  0.00  0.00    +0.030 C 
ATOM     17  C   UNL     1      -6.104  -8.464   9.558  0.00  0.00    +0.017 C 
BRANCH   5  11
ATOM      2  O   UNL     1      -3.285 -10.810  16.142  0.00  0.00    -0.276 OA
ATOM      6  N   UNL     1      -2.849 -11.125  13.883  0.00  0.00    -0.302 N 
ATOM     11  C   UNL     1      -3.982 -10.926  11.225  0.00  0.00    +0.060 C 
ATOM     15  C   UNL     1      -2.618 -10.313  11.564  0.00  0.00    +0.038 C 
ATOM     16  C   UNL     1      -4.869 -10.986  12.476  0.00  0.00    +0.038 C 
ATOM     18  C   UNL     1      -1.953 -11.059  12.721  0.00  0.00    +0.109 C 
ATOM     19  C   UNL     1      -4.159 -11.719  13.613  0.00  0.00    +0.109 C 
ATOM     21  C   UNL     1      -2.526 -10.711  15.174  0.00  0.00    +0.212 C 
ATOM     22  C   UNL     1      -1.158 -10.106  15.369  0.00  0.00    +0.109 C 
ENDBRANCH   5  11
ENDBRANCH  20  12
TORSDOF 6
ENDMDL
