MODEL 1
REMARK VINA RESULT:      -7.4      0.000      0.000
REMARK  Name = 7687218
REMARK  5 active torsions:
REMARK  status: ('A' for Active; 'I' for Inactive)
REMARK    1  A    between atoms: O_4  and  C_24
REMARK    2  A    between atoms: O_4  and  C_34
REMARK    3  A    between atoms: N_7  and  C_22
REMARK    4  A    between atoms: C_15  and  C_20
REMARK    5  A    between atoms: C_21  and  C_23
REMARK                            x       y       z     vdW  Elec       q    Type
REMARK                         _______ _______ _______ _____ _____    ______ ____
ROOT
ATOM      2  O   UNL     1      10.272   5.990   8.418  0.00  0.00    -0.268 OA
ATOM      3  O   UNL     1       9.365  10.315   5.950  0.00  0.00    -0.252 OA
ATOM      5  N   UNL     1      11.079   9.285   4.792  0.00  0.00    -0.284 N 
ATOM      6  N   UNL     1      11.303   6.588   6.400  0.00  0.00    -0.311 N 
ATOM      7  N   UNL     1       8.853   9.095   4.042  0.00  0.00    -0.266 N 
ATOM      8  C   UNL     1      12.936   8.560   6.272  0.00  0.00    +0.027 C 
ATOM      9  C   UNL     1      12.404   7.268   4.246  0.00  0.00    +0.054 C 
ATOM     10  C   UNL     1      13.551   7.780   5.120  0.00  0.00    +0.018 C 
ATOM     11  C   UNL     1      12.088   9.738   5.751  0.00  0.00    +0.114 C 
ATOM     12  C   UNL     1      12.114   7.585   7.115  0.00  0.00    +0.130 C 
ATOM     13  C   UNL     1      11.624   8.477   3.691  0.00  0.00    +0.119 C 
ATOM     14  C   UNL     1      11.456   6.345   5.019  0.00  0.00    +0.034 A 
ATOM     15  C   UNL     1      10.754   5.350   4.413  0.00  0.00    -0.005 A 
ATOM     16  C   UNL     1      10.433   5.833   7.207  0.00  0.00    +0.252 A 
ATOM     17  C   UNL     1       9.726   9.629   4.990  0.00  0.00    +0.307 C 
ATOM     18  C   UNL     1       9.847   4.555   5.226  0.00  0.00    +0.015 A 
ATOM     19  C   UNL     1       9.671   4.763   6.530  0.00  0.00    +0.071 A 
ATOM     35  H   UNL     1       9.114   8.231   3.582  0.00  0.00    +0.156 HD
ENDROOT
BRANCH   7  22
ATOM     22  C   UNL     1       7.582   9.594   3.666  0.00  0.00    +0.077 A 
ATOM     24  C   UNL     1       7.166   9.538   2.338  0.00  0.00    +0.141 A 
ATOM     25  C   UNL     1       6.750  10.141   4.640  0.00  0.00    +0.027 A 
ATOM     28  C   UNL     1       5.911  10.033   1.982  0.00  0.00    +0.047 A 
ATOM     29  C   UNL     1       5.495  10.636   4.285  0.00  0.00    +0.002 A 
ATOM     30  C   UNL     1       5.076  10.581   2.956  0.00  0.00    +0.004 A 
BRANCH  24   4
ATOM      4  O   UNL     1       7.967   9.007   1.372  0.00  0.00    -0.493 OA
ATOM     34  C   UNL     1       7.763   9.466   0.037  0.00  0.00    +0.277 C 
ENDBRANCH  24   4
ENDBRANCH   7  22
BRANCH  15  20
ATOM     20  C   UNL     1      10.844   5.072   2.990  0.00  0.00    +0.010 C 
ATOM     21  C   UNL     1      11.784   4.282   2.475  0.00  0.00    +0.008 C 
BRANCH  21  23
ATOM      1 CL   UNL     1      12.349   3.057  -3.336  0.00  0.00    -0.084 Cl
ATOM     23  C   UNL     1      11.924   3.979   1.039  0.00  0.00    -0.025 A 
ATOM     26  C   UNL     1      13.106   3.425   0.574  0.00  0.00    +0.009 A 
ATOM     27  C   UNL     1      10.870   4.254   0.182  0.00  0.00    +0.009 A 
ATOM     31  C   UNL     1      13.237   3.140  -0.784  0.00  0.00    +0.020 A 
ATOM     32  C   UNL     1      11.002   3.967  -1.177  0.00  0.00    +0.020 A 
ATOM     33  C   UNL     1      12.186   3.410  -1.660  0.00  0.00    +0.041 A 
ENDBRANCH  21  23
ENDBRANCH  15  20
TORSDOF 4
ENDMDL
MODEL 2
REMARK VINA RESULT:      -7.3     25.343     29.158
REMARK  Name = 7687218
REMARK  5 active torsions:
REMARK  status: ('A' for Active; 'I' for Inactive)
REMARK    1  A    between atoms: O_4  and  C_24
REMARK    2  A    between atoms: O_4  and  C_34
REMARK    3  A    between atoms: N_7  and  C_22
REMARK    4  A    between atoms: C_15  and  C_20
REMARK    5  A    between atoms: C_21  and  C_23
REMARK                            x       y       z     vdW  Elec       q    Type
REMARK                         _______ _______ _______ _____ _____    ______ ____
ROOT
ATOM      2  O   UNL     1      19.838  -0.176  30.932  0.00  0.00    -0.268 OA
ATOM      3  O   UNL     1      20.175  -2.688  26.551  0.00  0.00    -0.252 OA
ATOM      5  N   UNL     1      19.514  -4.254  28.118  0.00  0.00    -0.284 N 
ATOM      6  N   UNL     1      19.205  -2.414  30.654  0.00  0.00    -0.311 N 
ATOM      7  N   UNL     1      17.923  -3.229  26.712  0.00  0.00    -0.266 N 
ATOM      8  C   UNL     1      20.938  -4.236  30.151  0.00  0.00    +0.027 C 
ATOM      9  C   UNL     1      18.553  -4.820  30.326  0.00  0.00    +0.054 C 
ATOM     10  C   UNL     1      19.950  -5.156  30.852  0.00  0.00    +0.018 C 
ATOM     11  C   UNL     1      20.878  -4.422  28.622  0.00  0.00    +0.114 C 
ATOM     12  C   UNL     1      20.622  -2.800  30.571  0.00  0.00    +0.130 C 
ATOM     13  C   UNL     1      18.516  -5.085  28.808  0.00  0.00    +0.119 C 
ATOM     14  C   UNL     1      18.164  -3.366  30.613  0.00  0.00    +0.034 A 
ATOM     15  C   UNL     1      16.871  -2.978  30.788  0.00  0.00    -0.005 A 
ATOM     16  C   UNL     1      18.969  -1.046  30.870  0.00  0.00    +0.252 A 
ATOM     17  C   UNL     1      19.266  -3.343  27.069  0.00  0.00    +0.307 C 
ATOM     18  C   UNL     1      16.600  -1.567  31.012  0.00  0.00    +0.015 A 
ATOM     19  C   UNL     1      17.558  -0.642  31.048  0.00  0.00    +0.071 A 
ATOM     35  H   UNL     1      17.221  -3.423  27.417  0.00  0.00    +0.156 HD
ENDROOT
BRANCH   7  22
ATOM     22  C   UNL     1      17.397  -2.813  25.465  0.00  0.00    +0.077 A 
ATOM     24  C   UNL     1      16.912  -3.749  24.555  0.00  0.00    +0.141 A 
ATOM     25  C   UNL     1      17.366  -1.455  25.159  0.00  0.00    +0.027 A 
ATOM     28  C   UNL     1      16.395  -3.324  23.330  0.00  0.00    +0.047 A 
ATOM     29  C   UNL     1      16.850  -1.029  23.934  0.00  0.00    +0.002 A 
ATOM     30  C   UNL     1      16.364  -1.964  23.021  0.00  0.00    +0.004 A 
BRANCH  24   4
ATOM      4  O   UNL     1      16.934  -5.082  24.837  0.00  0.00    -0.493 OA
ATOM     34  C   UNL     1      17.569  -5.935  23.887  0.00  0.00    +0.277 C 
ENDBRANCH  24   4
ENDBRANCH   7  22
BRANCH  15  20
ATOM     20  C   UNL     1      15.754  -3.905  30.724  0.00  0.00    +0.010 C 
ATOM     21  C   UNL     1      14.976  -4.159  31.774  0.00  0.00    +0.008 C 
BRANCH  21  23
ATOM      1 CL   UNL     1      10.373  -7.953  31.725  0.00  0.00    -0.084 Cl
ATOM     23  C   UNL     1      13.839  -5.096  31.762  0.00  0.00    -0.025 A 
ATOM     26  C   UNL     1      13.640  -5.908  30.657  0.00  0.00    +0.009 A 
ATOM     27  C   UNL     1      12.990  -5.149  32.857  0.00  0.00    +0.009 A 
ATOM     31  C   UNL     1      12.564  -6.794  30.645  0.00  0.00    +0.020 A 
ATOM     32  C   UNL     1      11.914  -6.037  32.845  0.00  0.00    +0.020 A 
ATOM     33  C   UNL     1      11.701  -6.859  31.739  0.00  0.00    +0.041 A 
ENDBRANCH  21  23
ENDBRANCH  15  20
TORSDOF 4
ENDMDL
MODEL 3
REMARK VINA RESULT:      -7.3     24.875     28.102
REMARK  Name = 7687218
REMARK  5 active torsions:
REMARK  status: ('A' for Active; 'I' for Inactive)
REMARK    1  A    between atoms: O_4  and  C_24
REMARK    2  A    between atoms: O_4  and  C_34
REMARK    3  A    between atoms: N_7  and  C_22
REMARK    4  A    between atoms: C_15  and  C_20
REMARK    5  A    between atoms: C_21  and  C_23
REMARK                            x       y       z     vdW  Elec       q    Type
REMARK                         _______ _______ _______ _____ _____    ______ ____
ROOT
ATOM      2  O   UNL     1      -4.234 -13.202  18.723  0.00  0.00    -0.268 OA
ATOM      3  O   UNL     1      -3.767 -13.604  13.699  0.00  0.00    -0.252 OA
ATOM      5  N   UNL     1      -6.025 -13.307  14.093  0.00  0.00    -0.284 N 
ATOM      6  N   UNL     1      -6.002 -12.903  17.215  0.00  0.00    -0.311 N 
ATOM      7  N   UNL     1      -4.675 -11.480  13.465  0.00  0.00    -0.266 N 
ATOM      8  C   UNL     1      -6.909 -14.854  15.821  0.00  0.00    +0.027 C 
ATOM      9  C   UNL     1      -7.881 -12.607  15.572  0.00  0.00    +0.054 C 
ATOM     10  C   UNL     1      -8.214 -14.073  15.855  0.00  0.00    +0.018 C 
ATOM     11  C   UNL     1      -6.216 -14.713  14.452  0.00  0.00    +0.114 C 
ATOM     12  C   UNL     1      -6.031 -14.352  16.968  0.00  0.00    +0.130 C 
ATOM     13  C   UNL     1      -7.254 -12.501  14.168  0.00  0.00    +0.119 C 
ATOM     14  C   UNL     1      -6.926 -12.020  16.617  0.00  0.00    +0.034 A 
ATOM     15  C   UNL     1      -6.926 -10.699  16.944  0.00  0.00    -0.005 A 
ATOM     16  C   UNL     1      -5.051 -12.475  18.158  0.00  0.00    +0.252 A 
ATOM     17  C   UNL     1      -4.742 -12.847  13.733  0.00  0.00    +0.307 C 
ATOM     18  C   UNL     1      -5.952 -10.231  17.916  0.00  0.00    +0.015 A 
ATOM     19  C   UNL     1      -5.060 -11.035  18.493  0.00  0.00    +0.071 A 
ATOM     35  H   UNL     1      -5.344 -10.869  13.919  0.00  0.00    +0.156 HD
ENDROOT
BRANCH   7  22
ATOM     22  C   UNL     1      -3.728 -10.807  12.655  0.00  0.00    +0.077 A 
ATOM     24  C   UNL     1      -2.460 -10.509  13.149  0.00  0.00    +0.141 A 
ATOM     25  C   UNL     1      -4.078 -10.448  11.356  0.00  0.00    +0.027 A 
ATOM     28  C   UNL     1      -1.538  -9.847  12.338  0.00  0.00    +0.047 A 
ATOM     29  C   UNL     1      -3.156  -9.786  10.545  0.00  0.00    +0.002 A 
ATOM     30  C   UNL     1      -1.886  -9.486  11.036  0.00  0.00    +0.004 A 
BRANCH  24   4
ATOM      4  O   UNL     1      -2.100 -10.852  14.418  0.00  0.00    -0.493 OA
ATOM     34  C   UNL     1      -1.233  -9.956  15.110  0.00  0.00    +0.277 C 
ENDBRANCH  24   4
ENDBRANCH   7  22
BRANCH  15  20
ATOM     20  C   UNL     1      -7.830  -9.736  16.339  0.00  0.00    +0.010 C 
ATOM     21  C   UNL     1      -9.010  -9.429  16.875  0.00  0.00    +0.008 C 
BRANCH  21  23
ATOM      1 CL   UNL     1     -12.876  -5.539  14.526  0.00  0.00    -0.084 Cl
ATOM     23  C   UNL     1      -9.964  -8.468  16.295  0.00  0.00    -0.025 A 
ATOM     26  C   UNL     1     -10.260  -7.304  16.985  0.00  0.00    +0.009 A 
ATOM     27  C   UNL     1     -10.549  -8.747  15.069  0.00  0.00    +0.009 A 
ATOM     31  C   UNL     1     -11.164  -6.395  16.437  0.00  0.00    +0.020 A 
ATOM     32  C   UNL     1     -11.453  -7.837  14.520  0.00  0.00    +0.020 A 
ATOM     33  C   UNL     1     -11.761  -6.661  15.204  0.00  0.00    +0.041 A 
ENDBRANCH  21  23
ENDBRANCH  15  20
TORSDOF 4
ENDMDL
MODEL 4
REMARK VINA RESULT:      -7.1      2.280      5.569
REMARK  Name = 7687218
REMARK  5 active torsions:
REMARK  status: ('A' for Active; 'I' for Inactive)
REMARK    1  A    between atoms: O_4  and  C_24
REMARK    2  A    between atoms: O_4  and  C_34
REMARK    3  A    between atoms: N_7  and  C_22
REMARK    4  A    between atoms: C_15  and  C_20
REMARK    5  A    between atoms: C_21  and  C_23
REMARK                            x       y       z     vdW  Elec       q    Type
REMARK                         _______ _______ _______ _____ _____    ______ ____
ROOT
ATOM      2  O   UNL     1       8.832  10.766   5.606  0.00  0.00    -0.268 OA
ATOM      3  O   UNL     1      12.813   8.072   7.192  0.00  0.00    -0.252 OA
ATOM      5  N   UNL     1      11.332   6.533   6.307  0.00  0.00    -0.284 N 
ATOM      6  N   UNL     1       9.083   8.465   5.247  0.00  0.00    -0.311 N 
ATOM      7  N   UNL     1      13.143   7.321   5.020  0.00  0.00    -0.266 N 
ATOM      8  C   UNL     1       9.029   6.798   7.195  0.00  0.00    +0.027 C 
ATOM      9  C   UNL     1       9.374   5.993   4.895  0.00  0.00    +0.054 C 
ATOM     10  C   UNL     1       8.512   5.824   6.148  0.00  0.00    +0.018 C 
ATOM     11  C   UNL     1      10.512   6.527   7.519  0.00  0.00    +0.114 C 
ATOM     12  C   UNL     1       8.803   8.216   6.669  0.00  0.00    +0.130 C 
ATOM     13  C   UNL     1      10.834   5.646   5.245  0.00  0.00    +0.119 C 
ATOM     14  C   UNL     1       9.296   7.415   4.329  0.00  0.00    +0.034 A 
ATOM     15  C   UNL     1       9.457   7.681   3.004  0.00  0.00    -0.005 A 
ATOM     16  C   UNL     1       9.031   9.813   4.852  0.00  0.00    +0.252 A 
ATOM     17  C   UNL     1      12.474   7.358   6.244  0.00  0.00    +0.307 C 
ATOM     18  C   UNL     1       9.409   9.068   2.571  0.00  0.00    +0.015 A 
ATOM     19  C   UNL     1       9.219  10.084   3.412  0.00  0.00    +0.071 A 
ATOM     35  H   UNL     1      12.610   7.096   4.188  0.00  0.00    +0.156 HD
ENDROOT
BRANCH   7  22
ATOM     22  C   UNL     1      14.506   7.616   4.776  0.00  0.00    +0.077 A 
ATOM     24  C   UNL     1      15.042   7.475   3.498  0.00  0.00    +0.141 A 
ATOM     25  C   UNL     1      15.307   8.054   5.828  0.00  0.00    +0.027 A 
ATOM     28  C   UNL     1      16.387   7.771   3.272  0.00  0.00    +0.047 A 
ATOM     29  C   UNL     1      16.652   8.350   5.603  0.00  0.00    +0.002 A 
ATOM     30  C   UNL     1      17.191   8.209   4.325  0.00  0.00    +0.004 A 
BRANCH  24   4
ATOM      4  O   UNL     1      14.274   7.048   2.456  0.00  0.00    -0.493 OA
ATOM     34  C   UNL     1      14.781   7.274   1.143  0.00  0.00    +0.277 C 
ENDBRANCH  24   4
ENDBRANCH   7  22
BRANCH  15  20
ATOM     20  C   UNL     1       9.712   6.647   2.016  0.00  0.00    +0.010 C 
ATOM     21  C   UNL     1      10.933   6.386   1.554  0.00  0.00    +0.008 C 
BRANCH  21  23
ATOM      1 CL   UNL     1      12.174   2.216  -2.528  0.00  0.00    -0.084 Cl
ATOM     23  C   UNL     1      11.240   5.356   0.546  0.00  0.00    -0.025 A 
ATOM     26  C   UNL     1      10.452   5.262  -0.591  0.00  0.00    +0.009 A 
ATOM     27  C   UNL     1      12.310   4.500   0.752  0.00  0.00    +0.009 A 
ATOM     31  C   UNL     1      10.741   4.287  -1.544  0.00  0.00    +0.020 A 
ATOM     32  C   UNL     1      12.600   3.525  -0.203  0.00  0.00    +0.020 A 
ATOM     33  C   UNL     1      11.816   3.418  -1.350  0.00  0.00    +0.041 A 
ENDBRANCH  21  23
ENDBRANCH  15  20
TORSDOF 4
ENDMDL
MODEL 5
REMARK VINA RESULT:      -7.0     25.669     28.051
REMARK  Name = 7687218
REMARK  5 active torsions:
REMARK  status: ('A' for Active; 'I' for Inactive)
REMARK    1  A    between atoms: O_4  and  C_24
REMARK    2  A    between atoms: O_4  and  C_34
REMARK    3  A    between atoms: N_7  and  C_22
REMARK    4  A    between atoms: C_15  and  C_20
REMARK    5  A    between atoms: C_21  and  C_23
REMARK                            x       y       z     vdW  Elec       q    Type
REMARK                         _______ _______ _______ _____ _____    ______ ____
ROOT
ATOM      2  O   UNL     1     -14.676  -3.032  13.313  0.00  0.00    -0.268 OA
ATOM      3  O   UNL     1     -13.841  -7.567  15.400  0.00  0.00    -0.252 OA
ATOM      5  N   UNL     1     -14.057  -7.955  13.132  0.00  0.00    -0.284 N 
ATOM      6  N   UNL     1     -14.371  -5.003  12.084  0.00  0.00    -0.311 N 
ATOM      7  N   UNL     1     -11.921  -7.783  14.114  0.00  0.00    -0.266 N 
ATOM      8  C   UNL     1     -16.089  -6.905  12.169  0.00  0.00    +0.027 C 
ATOM      9  C   UNL     1     -14.059  -7.140  10.797  0.00  0.00    +0.054 C 
ATOM     10  C   UNL     1     -15.587  -7.217  10.767  0.00  0.00    +0.018 C 
ATOM     11  C   UNL     1     -15.519  -7.903  13.195  0.00  0.00    +0.114 C 
ATOM     12  C   UNL     1     -15.708  -5.460  12.494  0.00  0.00    +0.130 C 
ATOM     13  C   UNL     1     -13.527  -8.199  11.782  0.00  0.00    +0.119 C 
ATOM     14  C   UNL     1     -13.560  -5.749  11.203  0.00  0.00    +0.034 A 
ATOM     15  C   UNL     1     -12.370  -5.248  10.774  0.00  0.00    -0.005 A 
ATOM     16  C   UNL     1     -14.001  -3.733  12.558  0.00  0.00    +0.252 A 
ATOM     17  C   UNL     1     -13.302  -7.766  14.308  0.00  0.00    +0.307 C 
ATOM     18  C   UNL     1     -11.964  -3.936  11.250  0.00  0.00    +0.015 A 
ATOM     19  C   UNL     1     -12.701  -3.209  12.089  0.00  0.00    +0.071 A 
ATOM     35  H   UNL     1     -11.561  -7.508  13.207  0.00  0.00    +0.156 HD
ENDROOT
BRANCH   7  22
ATOM     22  C   UNL     1     -10.922  -8.095  15.067  0.00  0.00    +0.077 A 
ATOM     24  C   UNL     1      -9.960  -9.065  14.791  0.00  0.00    +0.141 A 
ATOM     25  C   UNL     1     -10.909  -7.420  16.285  0.00  0.00    +0.027 A 
ATOM     28  C   UNL     1      -8.981  -9.361  15.740  0.00  0.00    +0.047 A 
ATOM     29  C   UNL     1      -9.930  -7.716  17.234  0.00  0.00    +0.002 A 
ATOM     30  C   UNL     1      -8.966  -8.686  16.961  0.00  0.00    +0.004 A 
BRANCH  24   4
ATOM      4  O   UNL     1      -9.958  -9.736  13.605  0.00  0.00    -0.493 OA
ATOM     34  C   UNL     1      -8.695  -9.923  12.970  0.00  0.00    +0.277 C 
ENDBRANCH  24   4
ENDBRANCH   7  22
BRANCH  15  20
ATOM     20  C   UNL     1     -11.476  -5.981   9.893  0.00  0.00    +0.010 C 
ATOM     21  C   UNL     1     -10.956  -5.441   8.792  0.00  0.00    +0.008 C 
BRANCH  21  23
ATOM      1 CL   UNL     1      -7.307  -8.292   5.032  0.00  0.00    -0.084 Cl
ATOM     23  C   UNL     1     -10.055  -6.145   7.864  0.00  0.00    -0.025 A 
ATOM     26  C   UNL     1      -8.714  -6.277   8.188  0.00  0.00    +0.009 A 
ATOM     27  C   UNL     1     -10.565  -6.663   6.684  0.00  0.00    +0.009 A 
ATOM     31  C   UNL     1      -7.861  -6.942   7.308  0.00  0.00    +0.020 A 
ATOM     32  C   UNL     1      -9.712  -7.330   5.804  0.00  0.00    +0.020 A 
ATOM     33  C   UNL     1      -8.360  -7.469   6.116  0.00  0.00    +0.041 A 
ENDBRANCH  21  23
ENDBRANCH  15  20
TORSDOF 4
ENDMDL
MODEL 6
REMARK VINA RESULT:      -7.0      4.449      7.637
REMARK  Name = 7687218
REMARK  5 active torsions:
REMARK  status: ('A' for Active; 'I' for Inactive)
REMARK    1  A    between atoms: O_4  and  C_24
REMARK    2  A    between atoms: O_4  and  C_34
REMARK    3  A    between atoms: N_7  and  C_22
REMARK    4  A    between atoms: C_15  and  C_20
REMARK    5  A    between atoms: C_21  and  C_23
REMARK                            x       y       z     vdW  Elec       q    Type
REMARK                         _______ _______ _______ _____ _____    ______ ____
ROOT
ATOM      2  O   UNL     1      12.401   7.635  -2.225  0.00  0.00    -0.268 OA
ATOM      3  O   UNL     1      10.443   4.321   1.062  0.00  0.00    -0.252 OA
ATOM      5  N   UNL     1      12.737   4.120   1.266  0.00  0.00    -0.284 N 
ATOM      6  N   UNL     1      13.677   6.382  -0.711  0.00  0.00    -0.311 N 
ATOM      7  N   UNL     1      11.515   5.436   2.793  0.00  0.00    -0.266 N 
ATOM      8  C   UNL     1      13.873   3.834  -0.923  0.00  0.00    +0.027 C 
ATOM      9  C   UNL     1      15.017   5.009   0.912  0.00  0.00    +0.054 C 
ATOM     10  C   UNL     1      15.222   4.035  -0.249  0.00  0.00    +0.018 C 
ATOM     11  C   UNL     1      12.836   3.278   0.073  0.00  0.00    +0.114 C 
ATOM     12  C   UNL     1      13.441   5.175  -1.518  0.00  0.00    +0.130 C 
ATOM     13  C   UNL     1      14.028   4.386   1.917  0.00  0.00    +0.119 C 
ATOM     14  C   UNL     1      14.494   6.370   0.439  0.00  0.00    +0.034 A 
ATOM     15  C   UNL     1      14.764   7.526   1.104  0.00  0.00    -0.005 A 
ATOM     16  C   UNL     1      13.106   7.563  -1.219  0.00  0.00    +0.252 A 
ATOM     17  C   UNL     1      11.476   4.600   1.677  0.00  0.00    +0.307 C 
ATOM     18  C   UNL     1      14.185   8.761   0.599  0.00  0.00    +0.015 A 
ATOM     19  C   UNL     1      13.402   8.807  -0.478  0.00  0.00    +0.071 A 
ATOM     35  H   UNL     1      12.361   5.965   2.967  0.00  0.00    +0.156 HD
ENDROOT
BRANCH   7  22
ATOM     22  C   UNL     1      10.471   5.688   3.715  0.00  0.00    +0.077 A 
ATOM     24  C   UNL     1       9.609   6.767   3.531  0.00  0.00    +0.141 A 
ATOM     25  C   UNL     1      10.311   4.841   4.810  0.00  0.00    +0.027 A 
ATOM     28  C   UNL     1       8.585   7.002   4.449  0.00  0.00    +0.047 A 
ATOM     29  C   UNL     1       9.286   5.076   5.728  0.00  0.00    +0.002 A 
ATOM     30  C   UNL     1       8.423   6.156   5.546  0.00  0.00    +0.004 A 
BRANCH  24   4
ATOM      4  O   UNL     1       9.751   7.606   2.466  0.00  0.00    -0.493 OA
ATOM     34  C   UNL     1       8.649   8.460   2.164  0.00  0.00    +0.277 C 
ENDBRANCH  24   4
ENDBRANCH   7  22
BRANCH  15  20
ATOM     20  C   UNL     1      15.571   7.573   2.310  0.00  0.00    +0.010 C 
ATOM     21  C   UNL     1      16.688   8.294   2.396  0.00  0.00    +0.008 C 
BRANCH  21  23
ATOM      1 CL   UNL     1      20.157   8.586   7.239  0.00  0.00    -0.084 Cl
ATOM     23  C   UNL     1      17.545   8.366   3.592  0.00  0.00    -0.025 A 
ATOM     26  C   UNL     1      16.987   8.737   4.805  0.00  0.00    +0.009 A 
ATOM     27  C   UNL     1      18.892   8.061   3.482  0.00  0.00    +0.009 A 
ATOM     31  C   UNL     1      17.798   8.806   5.937  0.00  0.00    +0.020 A 
ATOM     32  C   UNL     1      19.703   8.129   4.615  0.00  0.00    +0.020 A 
ATOM     33  C   UNL     1      19.157   8.502   5.842  0.00  0.00    +0.041 A 
ENDBRANCH  21  23
ENDBRANCH  15  20
TORSDOF 4
ENDMDL
MODEL 7
REMARK VINA RESULT:      -6.9     26.854     30.783
REMARK  Name = 7687218
REMARK  5 active torsions:
REMARK  status: ('A' for Active; 'I' for Inactive)
REMARK    1  A    between atoms: O_4  and  C_24
REMARK    2  A    between atoms: O_4  and  C_34
REMARK    3  A    between atoms: N_7  and  C_22
REMARK    4  A    between atoms: C_15  and  C_20
REMARK    5  A    between atoms: C_21  and  C_23
REMARK                            x       y       z     vdW  Elec       q    Type
REMARK                         _______ _______ _______ _____ _____    ______ ____
ROOT
ATOM      2  O   UNL     1     -13.715  12.635  17.677  0.00  0.00    -0.268 OA
ATOM      3  O   UNL     1     -14.477   7.638  17.936  0.00  0.00    -0.252 OA
ATOM      5  N   UNL     1     -12.555   8.040  19.156  0.00  0.00    -0.284 N 
ATOM      6  N   UNL     1     -12.429  11.181  18.988  0.00  0.00    -0.311 N 
ATOM      7  N   UNL     1     -14.631   7.802  20.246  0.00  0.00    -0.266 N 
ATOM      8  C   UNL     1     -10.903   9.419  17.918  0.00  0.00    +0.027 C 
ATOM      9  C   UNL     1     -11.057   9.590  20.368  0.00  0.00    +0.054 C 
ATOM     10  C   UNL     1     -10.083   9.578  19.188  0.00  0.00    +0.018 C 
ATOM     11  C   UNL     1     -11.727   8.116  17.951  0.00  0.00    +0.114 C 
ATOM     12  C   UNL     1     -11.788  10.658  17.771  0.00  0.00    +0.130 C 
ATOM     13  C   UNL     1     -11.809   8.245  20.406  0.00  0.00    +0.119 C 
ATOM     14  C   UNL     1     -12.058  10.747  20.278  0.00  0.00    +0.034 A 
ATOM     15  C   UNL     1     -12.607  11.323  21.381  0.00  0.00    -0.005 A 
ATOM     16  C   UNL     1     -13.367  12.206  18.777  0.00  0.00    +0.252 A 
ATOM     17  C   UNL     1     -13.939   7.799  19.035  0.00  0.00    +0.307 C 
ATOM     18  C   UNL     1     -13.581  12.386  21.191  0.00  0.00    +0.015 A 
ATOM     19  C   UNL     1     -13.960  12.813  19.987  0.00  0.00    +0.071 A 
ATOM     35  H   UNL     1     -14.258   8.353  21.011  0.00  0.00    +0.156 HD
ENDROOT
BRANCH   7  22
ATOM     22  C   UNL     1     -15.856   7.156  20.539  0.00  0.00    +0.077 A 
ATOM     24  C   UNL     1     -15.868   5.850  21.025  0.00  0.00    +0.141 A 
ATOM     25  C   UNL     1     -17.052   7.841  20.338  0.00  0.00    +0.027 A 
ATOM     28  C   UNL     1     -17.083   5.227  21.310  0.00  0.00    +0.047 A 
ATOM     29  C   UNL     1     -18.267   7.217  20.622  0.00  0.00    +0.002 A 
ATOM     30  C   UNL     1     -18.283   5.911  21.109  0.00  0.00    +0.004 A 
BRANCH  24   4
ATOM      4  O   UNL     1     -14.708   5.165  21.228  0.00  0.00    -0.493 OA
ATOM     34  C   UNL     1     -14.233   5.077  22.570  0.00  0.00    +0.277 C 
ENDBRANCH  24   4
ENDBRANCH   7  22
BRANCH  15  20
ATOM     20  C   UNL     1     -12.290  10.899  22.734  0.00  0.00    +0.010 C 
ATOM     21  C   UNL     1     -12.786  11.509  23.809  0.00  0.00    +0.008 C 
BRANCH  21  23
ATOM      1 CL   UNL     1     -11.575   9.947  29.438  0.00  0.00    -0.084 Cl
ATOM     23  C   UNL     1     -12.487  11.123  25.199  0.00  0.00    -0.025 A 
ATOM     26  C   UNL     1     -13.491  11.186  26.153  0.00  0.00    +0.009 A 
ATOM     27  C   UNL     1     -11.208  10.703  25.528  0.00  0.00    +0.009 A 
ATOM     31  C   UNL     1     -13.207  10.822  27.468  0.00  0.00    +0.020 A 
ATOM     32  C   UNL     1     -10.924  10.338  26.844  0.00  0.00    +0.020 A 
ATOM     33  C   UNL     1     -11.924  10.398  27.814  0.00  0.00    +0.041 A 
ENDBRANCH  21  23
ENDBRANCH  15  20
TORSDOF 4
ENDMDL
MODEL 8
REMARK VINA RESULT:      -6.9     23.780     27.761
REMARK  Name = 7687218
REMARK  5 active torsions:
REMARK  status: ('A' for Active; 'I' for Inactive)
REMARK    1  A    between atoms: O_4  and  C_24
REMARK    2  A    between atoms: O_4  and  C_34
REMARK    3  A    between atoms: N_7  and  C_22
REMARK    4  A    between atoms: C_15  and  C_20
REMARK    5  A    between atoms: C_21  and  C_23
REMARK                            x       y       z     vdW  Elec       q    Type
REMARK                         _______ _______ _______ _____ _____    ______ ____
ROOT
ATOM      2  O   UNL     1      19.701  -5.078  21.430  0.00  0.00    -0.268 OA
ATOM      3  O   UNL     1      20.702  -1.594  24.963  0.00  0.00    -0.252 OA
ATOM      5  N   UNL     1      18.423  -1.966  25.082  0.00  0.00    -0.284 N 
ATOM      6  N   UNL     1      18.117  -4.264  22.953  0.00  0.00    -0.311 N 
ATOM      7  N   UNL     1      19.886  -3.037  26.588  0.00  0.00    -0.266 N 
ATOM      8  C   UNL     1      17.312  -1.831  22.866  0.00  0.00    +0.027 C 
ATOM      9  C   UNL     1      16.438  -3.357  24.589  0.00  0.00    +0.054 C 
ATOM     10  C   UNL     1      16.035  -2.392  23.472  0.00  0.00    +0.018 C 
ATOM     11  C   UNL     1      18.155  -1.102  23.931  0.00  0.00    +0.114 C 
ATOM     12  C   UNL     1      18.074  -2.990  22.220  0.00  0.00    +0.130 C 
ATOM     13  C   UNL     1      17.218  -2.575  25.664  0.00  0.00    +0.119 C 
ATOM     14  C   UNL     1      17.290  -4.519  24.067  0.00  0.00    +0.034 A 
ATOM     15  C   UNL     1      17.291  -5.744  24.659  0.00  0.00    -0.005 A 
ATOM     16  C   UNL     1      18.971  -5.239  22.409  0.00  0.00    +0.252 A 
ATOM     17  C   UNL     1      19.751  -2.151  25.519  0.00  0.00    +0.307 C 
ATOM     18  C   UNL     1      18.167  -6.770  24.115  0.00  0.00    +0.015 A 
ATOM     19  C   UNL     1      18.968  -6.560  23.071  0.00  0.00    +0.071 A 
ATOM     35  H   UNL     1      19.189  -3.765  26.699  0.00  0.00    +0.156 HD
ENDROOT
BRANCH   7  22
ATOM     22  C   UNL     1      20.934  -3.085  27.539  0.00  0.00    +0.077 A 
ATOM     24  C   UNL     1      20.877  -2.309  28.694  0.00  0.00    +0.141 A 
ATOM     25  C   UNL     1      22.025  -3.921  27.308  0.00  0.00    +0.027 A 
ATOM     28  C   UNL     1      21.917  -2.367  29.622  0.00  0.00    +0.047 A 
ATOM     29  C   UNL     1      23.065  -3.979  28.236  0.00  0.00    +0.002 A 
ATOM     30  C   UNL     1      23.011  -3.203  29.393  0.00  0.00    +0.004 A 
BRANCH  24   4
ATOM      4  O   UNL     1      19.818  -1.485  28.936  0.00  0.00    -0.493 OA
ATOM     34  C   UNL     1      19.445  -1.295  30.299  0.00  0.00    +0.277 C 
ENDBRANCH  24   4
ENDBRANCH   7  22
BRANCH  15  20
ATOM     20  C   UNL     1      16.487  -6.058  25.827  0.00  0.00    +0.010 C 
ATOM     21  C   UNL     1      16.644  -7.183  26.522  0.00  0.00    +0.008 C 
BRANCH  21  23
ATOM      1 CL   UNL     1      13.418  -8.669  31.315  0.00  0.00    -0.084 Cl
ATOM     23  C   UNL     1      15.847  -7.550  27.705  0.00  0.00    -0.025 A 
ATOM     26  C   UNL     1      15.163  -6.563  28.396  0.00  0.00    +0.009 A 
ATOM     27  C   UNL     1      15.796  -8.876  28.106  0.00  0.00    +0.009 A 
ATOM     31  C   UNL     1      14.409  -6.910  29.517  0.00  0.00    +0.020 A 
ATOM     32  C   UNL     1      15.041  -9.224  29.227  0.00  0.00    +0.020 A 
ATOM     33  C   UNL     1      14.349  -8.241  29.932  0.00  0.00    +0.041 A 
ENDBRANCH  21  23
ENDBRANCH  15  20
TORSDOF 4
ENDMDL
MODEL 9
REMARK VINA RESULT:      -6.9     27.412     30.042
REMARK  Name = 7687218
REMARK  5 active torsions:
REMARK  status: ('A' for Active; 'I' for Inactive)
REMARK    1  A    between atoms: O_4  and  C_24
REMARK    2  A    between atoms: O_4  and  C_34
REMARK    3  A    between atoms: N_7  and  C_22
REMARK    4  A    between atoms: C_15  and  C_20
REMARK    5  A    between atoms: C_21  and  C_23
REMARK                            x       y       z     vdW  Elec       q    Type
REMARK                         _______ _______ _______ _____ _____    ______ ____
ROOT
ATOM      2  O   UNL     1      -6.085 -14.678  15.917  0.00  0.00    -0.268 OA
ATOM      3  O   UNL     1      -7.602 -12.464  20.208  0.00  0.00    -0.252 OA
ATOM      5  N   UNL     1      -6.946 -10.740  18.816  0.00  0.00    -0.284 N 
ATOM      6  N   UNL     1      -6.247 -12.359  16.208  0.00  0.00    -0.311 N 
ATOM      7  N   UNL     1      -9.225 -11.310  19.015  0.00  0.00    -0.266 N 
ATOM      8  C   UNL     1      -4.700 -11.108  17.826  0.00  0.00    +0.027 C 
ATOM      9  C   UNL     1      -6.413  -9.876  16.560  0.00  0.00    +0.054 C 
ATOM     10  C   UNL     1      -4.920  -9.932  16.887  0.00  0.00    +0.018 C 
ATOM     11  C   UNL     1      -5.529 -10.948  19.116  0.00  0.00    +0.114 C 
ATOM     12  C   UNL     1      -5.053 -12.388  17.067  0.00  0.00    +0.130 C 
ATOM     13  C   UNL     1      -7.200  -9.646  17.865  0.00  0.00    +0.119 C 
ATOM     14  C   UNL     1      -6.902 -11.155  15.873  0.00  0.00    +0.034 A 
ATOM     15  C   UNL     1      -7.945 -11.161  15.000  0.00  0.00    -0.005 A 
ATOM     16  C   UNL     1      -6.630 -13.601  15.673  0.00  0.00    +0.252 A 
ATOM     17  C   UNL     1      -7.915 -11.568  19.419  0.00  0.00    +0.307 C 
ATOM     18  C   UNL     1      -8.362 -12.433  14.432  0.00  0.00    +0.015 A 
ATOM     19  C   UNL     1      -7.772 -13.589  14.735  0.00  0.00    +0.071 A 
ATOM     35  H   UNL     1      -9.373 -10.911  18.095  0.00  0.00    +0.156 HD
ENDROOT
BRANCH   7  22
ATOM     22  C   UNL     1     -10.416 -11.591  19.727  0.00  0.00    +0.077 A 
ATOM     24  C   UNL     1     -11.485 -10.698  19.697  0.00  0.00    +0.141 A 
ATOM     25  C   UNL     1     -10.509 -12.773  20.457  0.00  0.00    +0.027 A 
ATOM     28  C   UNL     1     -12.652 -10.989  20.403  0.00  0.00    +0.047 A 
ATOM     29  C   UNL     1     -11.677 -13.065  21.163  0.00  0.00    +0.002 A 
ATOM     30  C   UNL     1     -12.748 -12.173  21.135  0.00  0.00    +0.004 A 
BRANCH  24   4
ATOM      4  O   UNL     1     -11.411  -9.536  18.988  0.00  0.00    -0.493 OA
ATOM     34  C   UNL     1     -12.424  -9.308  18.011  0.00  0.00    +0.277 C 
ENDBRANCH  24   4
ENDBRANCH   7  22
BRANCH  15  20
ATOM     20  C   UNL     1      -8.680  -9.960  14.640  0.00  0.00    +0.010 C 
ATOM     21  C   UNL     1      -9.803  -9.597  15.258  0.00  0.00    +0.008 C 
BRANCH  21  23
ATOM      1 CL   UNL     1     -12.982  -4.735  13.903  0.00  0.00    -0.084 Cl
ATOM     23  C   UNL     1     -10.588  -8.397  14.924  0.00  0.00    -0.025 A 
ATOM     26  C   UNL     1     -11.526  -8.461  13.906  0.00  0.00    +0.009 A 
ATOM     27  C   UNL     1     -10.374  -7.225  15.634  0.00  0.00    +0.009 A 
ATOM     31  C   UNL     1     -12.269  -7.324  13.589  0.00  0.00    +0.020 A 
ATOM     32  C   UNL     1     -11.118  -6.088  15.317  0.00  0.00    +0.020 A 
ATOM     33  C   UNL     1     -12.065  -6.137  14.294  0.00  0.00    +0.041 A 
ENDBRANCH  21  23
ENDBRANCH  15  20
TORSDOF 4
ENDMDL
MODEL 10
REMARK VINA RESULT:      -6.8     23.698     27.687
REMARK  Name = 7687218
REMARK  5 active torsions:
REMARK  status: ('A' for Active; 'I' for Inactive)
REMARK    1  A    between atoms: O_4  and  C_24
REMARK    2  A    between atoms: O_4  and  C_34
REMARK    3  A    between atoms: N_7  and  C_22
REMARK    4  A    between atoms: C_15  and  C_20
REMARK    5  A    between atoms: C_21  and  C_23
REMARK                            x       y       z     vdW  Elec       q    Type
REMARK                         _______ _______ _______ _____ _____    ______ ____
ROOT
ATOM      2  O   UNL     1      19.846  -5.099  21.791  0.00  0.00    -0.268 OA
ATOM      3  O   UNL     1      20.396  -1.194  24.963  0.00  0.00    -0.252 OA
ATOM      5  N   UNL     1      18.144  -1.711  24.997  0.00  0.00    -0.284 N 
ATOM      6  N   UNL     1      18.120  -4.242  23.124  0.00  0.00    -0.311 N 
ATOM      7  N   UNL     1      19.575  -2.509  26.692  0.00  0.00    -0.266 N 
ATOM      8  C   UNL     1      17.167  -1.895  22.722  0.00  0.00    +0.027 C 
ATOM      9  C   UNL     1      16.287  -3.285  24.553  0.00  0.00    +0.054 C 
ATOM     10  C   UNL     1      15.893  -2.477  23.315  0.00  0.00    +0.018 C 
ATOM     11  C   UNL     1      17.893  -0.998  23.744  0.00  0.00    +0.114 C 
ATOM     12  C   UNL     1      18.041  -3.059  22.253  0.00  0.00    +0.130 C 
ATOM     13  C   UNL     1      16.946  -2.339  25.576  0.00  0.00    +0.119 C 
ATOM     14  C   UNL     1      17.243  -4.433  24.212  0.00  0.00    +0.034 A 
ATOM     15  C   UNL     1      17.286  -5.584  24.936  0.00  0.00    -0.005 A 
ATOM     16  C   UNL     1      19.068  -5.206  22.740  0.00  0.00    +0.252 A 
ATOM     17  C   UNL     1      19.451  -1.755  25.525  0.00  0.00    +0.307 C 
ATOM     18  C   UNL     1      18.258  -6.598  24.559  0.00  0.00    +0.015 A 
ATOM     19  C   UNL     1      19.108  -6.446  23.544  0.00  0.00    +0.071 A 
ATOM     35  H   UNL     1      18.921  -3.267  26.845  0.00  0.00    +0.156 HD
ENDROOT
BRANCH   7  22
ATOM     22  C   UNL     1      20.563  -2.379  27.698  0.00  0.00    +0.077 A 
ATOM     24  C   UNL     1      21.727  -3.143  27.648  0.00  0.00    +0.141 A 
ATOM     25  C   UNL     1      20.358  -1.477  28.739  0.00  0.00    +0.027 A 
ATOM     28  C   UNL     1      22.691  -3.003  28.647  0.00  0.00    +0.047 A 
ATOM     29  C   UNL     1      21.323  -1.338  29.738  0.00  0.00    +0.002 A 
ATOM     30  C   UNL     1      22.489  -2.101  29.692  0.00  0.00    +0.004 A 
BRANCH  24   4
ATOM      4  O   UNL     1      21.943  -4.030  26.637  0.00  0.00    -0.493 OA
ATOM     34  C   UNL     1      23.048  -3.771  25.774  0.00  0.00    +0.277 C 
ENDBRANCH  24   4
ENDBRANCH   7  22
BRANCH  15  20
ATOM     20  C   UNL     1      16.432  -5.827  26.086  0.00  0.00    +0.010 C 
ATOM     21  C   UNL     1      16.921  -6.085  27.297  0.00  0.00    +0.008 C 
BRANCH  21  23
ATOM      1 CL   UNL     1      13.583  -7.147  32.127  0.00  0.00    -0.084 Cl
ATOM     23  C   UNL     1      16.097  -6.348  28.490  0.00  0.00    -0.025 A 
ATOM     26  C   UNL     1      15.388  -7.535  28.578  0.00  0.00    +0.009 A 
ATOM     27  C   UNL     1      16.046  -5.402  29.502  0.00  0.00    +0.009 A 
ATOM     31  C   UNL     1      14.608  -7.783  29.707  0.00  0.00    +0.020 A 
ATOM     32  C   UNL     1      15.265  -5.650  30.632  0.00  0.00    +0.020 A 
ATOM     33  C   UNL     1      14.546  -6.840  30.734  0.00  0.00    +0.041 A 
ENDBRANCH  21  23
ENDBRANCH  15  20
TORSDOF 4
ENDMDL
