REMARK  Name = 45783382
REMARK  8 active torsions:
REMARK  status: ('A' for Active; 'I' for Inactive)
REMARK    1  A    between atoms: O_2  and  C_30
REMARK    2  A    between atoms: O_2  and  C_31
REMARK    3  A    between atoms: N_3  and  C_13
REMARK    4  A    between atoms: N_7  and  C_28
REMARK    5  A    between atoms: C_9  and  C_14
REMARK    6  A    between atoms: C_13  and  C_15
REMARK    7  A    between atoms: C_19  and  C_22
REMARK    8  A    between atoms: C_28  and  C_30
REMARK                            x       y       z     vdW  Elec       q    Type
REMARK                         _______ _______ _______ _____ _____    ______ ____
ROOT
ATOM      1  O   UNL     1      -0.831   0.507   3.068  0.00  0.00    -0.336 OA
ATOM      4  N   UNL     1      -0.194  -0.245   1.057  0.00  0.00    -0.190 NA
ATOM      6  N   UNL     1       0.568   0.580   3.050  0.00  0.00    -0.056 NA
ATOM     14  C   UNL     1      -1.197   0.011   1.857  0.00  0.00    +0.245 A 
ATOM     19  C   UNL     1       0.869   0.119   1.832  0.00  0.00    +0.205 A 
ENDROOT
BRANCH  19  22
ATOM      7  N   UNL     1       1.649  -1.869  -0.040  0.00  0.00    -0.326 N 
ATOM      8  N   UNL     1       3.881  -1.082  -0.015  0.00  0.00    -0.240 NA
ATOM     22  C   UNL     1       2.219   0.009   1.360  0.00  0.00    +0.062 A 
ATOM     25  C   UNL     1       2.617  -0.954   0.448  0.00  0.00    +0.130 A 
ATOM     26  C   UNL     1       3.179   0.899   1.829  0.00  0.00    +0.016 A 
ATOM     27  C   UNL     1       4.490   0.799   1.376  0.00  0.00    +0.020 A 
ATOM     29  C   UNL     1       4.787  -0.199   0.463  0.00  0.00    +0.113 A 
ATOM     33  H   UNL     1       0.839  -2.019   0.552  0.00  0.00    +0.148 HD
BRANCH   7  28
ATOM     28  C   UNL     1       1.965  -2.894  -0.980  0.00  0.00    +0.131 C 
BRANCH  28  30
ATOM     30  C   UNL     1       0.714  -3.682  -1.329  0.00  0.00    +0.178 C 
BRANCH  30   2
ATOM      2  O   UNL     1      -0.267  -2.802  -1.863  0.00  0.00    -0.381 OA
ATOM     31  C   UNL     1      -1.460  -3.495  -2.200  0.00  0.00    +0.194 C 
ENDBRANCH  30   2
ENDBRANCH  28  30
ENDBRANCH   7  28
ENDBRANCH  19  22
BRANCH  14   9
ATOM      3  N   UNL     1      -3.046  -0.071   0.193  0.00  0.00    -0.287 NA
ATOM      9  C   UNL     1      -2.683  -0.164   1.621  0.00  0.00    +0.146 C 
ATOM     10  C   UNL     1      -3.196  -1.546   2.066  0.00  0.00    +0.030 C 
ATOM     11  C   UNL     1      -4.233  -0.907   0.013  0.00  0.00    +0.085 C 
ATOM     12  C   UNL     1      -3.885  -2.128   0.840  0.00  0.00    +0.017 C 
BRANCH   3  13
ATOM     13  C   UNL     1      -3.266   1.298  -0.256  0.00  0.00    +0.122 C 
BRANCH  13  15
ATOM      5  N   UNL     1      -0.326   3.503  -0.436  0.00  0.00    -0.360 N 
ATOM     15  C   UNL     1      -1.970   2.014  -0.527  0.00  0.00    -0.008 A 
ATOM     16  C   UNL     1      -0.962   1.622  -1.452  0.00  0.00    +0.004 A 
ATOM     17  C   UNL     1      -1.550   3.174   0.082  0.00  0.00    +0.088 A 
ATOM     18  C   UNL     1       0.058   2.572  -1.375  0.00  0.00    +0.047 A 
ATOM     20  C   UNL     1      -0.820   0.546  -2.351  0.00  0.00    +0.010 A 
ATOM     21  C   UNL     1       1.217   2.501  -2.155  0.00  0.00    +0.026 A 
ATOM     23  C   UNL     1       0.335   0.461  -3.137  0.00  0.00    +0.001 A 
ATOM     24  C   UNL     1       1.336   1.424  -3.039  0.00  0.00    +0.002 A 
ATOM     32  H   UNL     1       0.219   4.311  -0.167  0.00  0.00    +0.165 HD
ENDBRANCH  13  15
ENDBRANCH   3  13
ENDBRANCH  14   9
TORSDOF 7
