MODEL 1
REMARK VINA RESULT:      -7.6      0.000      0.000
REMARK  Name = 7663767
REMARK  5 active torsions:
REMARK  status: ('A' for Active; 'I' for Inactive)
REMARK    1  A    between atoms: O_4  and  C_23
REMARK    2  A    between atoms: O_4  and  C_31
REMARK    3  A    between atoms: N_7  and  C_21
REMARK    4  A    between atoms: C_18  and  C_20
REMARK    5  A    between atoms: C_22  and  C_25
REMARK                            x       y       z     vdW  Elec       q    Type
REMARK                         _______ _______ _______ _____ _____    ______ ____
ROOT
ATOM      2  O   UNL     1      13.838   6.246   7.510  0.00  0.00    -0.267 OA
ATOM      3  O   UNL     1      10.452   4.084   4.129  0.00  0.00    -0.252 OA
ATOM      5  N   UNL     1       9.657   6.166   4.751  0.00  0.00    -0.284 N 
ATOM      6  N   UNL     1      11.939   7.309   6.674  0.00  0.00    -0.311 N 
ATOM      7  N   UNL     1      10.729   5.865   2.670  0.00  0.00    -0.266 N 
ATOM      8  C   UNL     1       9.568   6.518   7.225  0.00  0.00    +0.027 C 
ATOM      9  C   UNL     1       9.894   8.442   5.734  0.00  0.00    +0.054 C 
ATOM     10  C   UNL     1       9.177   7.971   6.996  0.00  0.00    +0.018 C 
ATOM     11  C   UNL     1       9.145   5.654   6.025  0.00  0.00    +0.114 C 
ATOM     12  C   UNL     1      11.076   6.441   7.487  0.00  0.00    +0.130 C 
ATOM     13  C   UNL     1       9.431   7.606   4.524  0.00  0.00    +0.119 C 
ATOM     14  C   UNL     1      11.401   8.330   5.888  0.00  0.00    +0.027 A 
ATOM     15  C   UNL     1      12.213   9.184   5.246  0.00  0.00    +0.022 A 
ATOM     16  C   UNL     1      13.330   7.125   6.811  0.00  0.00    +0.259 A 
ATOM     17  C   UNL     1      10.303   5.279   3.861  0.00  0.00    +0.307 C 
ATOM     18  C   UNL     1      14.215   8.081   6.056  0.00  0.00    +0.040 A 
ATOM     19  C   UNL     1      13.639   9.053   5.335  0.00  0.00    +0.015 A 
ATOM     35  H   UNL     1      10.221   6.669   2.321  0.00  0.00    +0.156 HD
ENDROOT
BRANCH   7  21
ATOM     21  C   UNL     1      11.785   5.430   1.831  0.00  0.00    +0.077 A 
ATOM     23  C   UNL     1      11.512   4.773   0.634  0.00  0.00    +0.141 A 
ATOM     24  C   UNL     1      13.102   5.668   2.218  0.00  0.00    +0.027 A 
ATOM     26  C   UNL     1      12.563   4.352  -0.182  0.00  0.00    +0.047 A 
ATOM     27  C   UNL     1      14.152   5.247   1.402  0.00  0.00    +0.002 A 
ATOM     28  C   UNL     1      13.882   4.589   0.202  0.00  0.00    +0.004 A 
BRANCH  23   4
ATOM      4  O   UNL     1      10.230   4.532   0.241  0.00  0.00    -0.493 OA
ATOM     31  C   UNL     1       9.758   5.241  -0.903  0.00  0.00    +0.277 C 
ENDBRANCH  23   4
ENDBRANCH   7  21
BRANCH  18  20
ATOM     20  C   UNL     1      15.649   7.947   6.131  0.00  0.00    +0.014 C 
ATOM     22  C   UNL     1      16.483   8.577   5.295  0.00  0.00    +0.008 C 
BRANCH  22  25
ATOM      1 CL   UNL     1      22.429   8.118   5.424  0.00  0.00    -0.084 Cl
ATOM     25  C   UNL     1      17.952   8.464   5.327  0.00  0.00    -0.025 A 
ATOM     29  C   UNL     1      18.626   8.066   4.184  0.00  0.00    +0.009 A 
ATOM     30  C   UNL     1      18.629   8.757   6.499  0.00  0.00    +0.009 A 
ATOM     32  C   UNL     1      20.016   7.958   4.215  0.00  0.00    +0.020 A 
ATOM     33  C   UNL     1      20.019   8.650   6.529  0.00  0.00    +0.020 A 
ATOM     34  C   UNL     1      20.713   8.251   5.387  0.00  0.00    +0.041 A 
ENDBRANCH  22  25
ENDBRANCH  18  20
TORSDOF 4
ENDMDL
MODEL 2
REMARK VINA RESULT:      -7.3      3.898      8.196
REMARK  Name = 7663767
REMARK  5 active torsions:
REMARK  status: ('A' for Active; 'I' for Inactive)
REMARK    1  A    between atoms: O_4  and  C_23
REMARK    2  A    between atoms: O_4  and  C_31
REMARK    3  A    between atoms: N_7  and  C_21
REMARK    4  A    between atoms: C_18  and  C_20
REMARK    5  A    between atoms: C_22  and  C_25
REMARK                            x       y       z     vdW  Elec       q    Type
REMARK                         _______ _______ _______ _____ _____    ______ ____
ROOT
ATOM      2  O   UNL     1      11.974   2.865   2.203  0.00  0.00    -0.267 OA
ATOM      3  O   UNL     1      16.301   4.940   0.070  0.00  0.00    -0.252 OA
ATOM      5  N   UNL     1      14.470   5.568  -1.198  0.00  0.00    -0.284 N 
ATOM      6  N   UNL     1      11.988   4.309   0.373  0.00  0.00    -0.311 N 
ATOM      7  N   UNL     1      15.440   7.076   0.337  0.00  0.00    -0.266 N 
ATOM      8  C   UNL     1      13.009   3.658  -1.883  0.00  0.00    +0.027 C 
ATOM      9  C   UNL     1      12.031   5.892  -1.587  0.00  0.00    +0.054 C 
ATOM     10  C   UNL     1      12.006   4.644  -2.466  0.00  0.00    +0.018 C 
ATOM     11  C   UNL     1      14.420   4.270  -1.875  0.00  0.00    +0.114 C 
ATOM     12  C   UNL     1      12.550   3.251  -0.478  0.00  0.00    +0.130 C 
ATOM     13  C   UNL     1      13.435   6.530  -1.621  0.00  0.00    +0.119 C 
ATOM     14  C   UNL     1      11.654   5.558  -0.154  0.00  0.00    +0.027 A 
ATOM     15  C   UNL     1      11.035   6.468   0.613  0.00  0.00    +0.022 A 
ATOM     16  C   UNL     1      11.710   3.964   1.711  0.00  0.00    +0.259 A 
ATOM     17  C   UNL     1      15.470   5.802  -0.227  0.00  0.00    +0.307 C 
ATOM     18  C   UNL     1      11.040   5.016   2.555  0.00  0.00    +0.040 A 
ATOM     19  C   UNL     1      10.727   6.188   1.986  0.00  0.00    +0.015 A 
ATOM     35  H   UNL     1      15.070   7.840  -0.218  0.00  0.00    +0.156 HD
ENDROOT
BRANCH   7  21
ATOM     21  C   UNL     1      15.930   7.461   1.609  0.00  0.00    +0.077 A 
ATOM     23  C   UNL     1      17.116   8.182   1.722  0.00  0.00    +0.141 A 
ATOM     24  C   UNL     1      15.208   7.112   2.749  0.00  0.00    +0.027 A 
ATOM     26  C   UNL     1      17.584   8.556   2.983  0.00  0.00    +0.047 A 
ATOM     27  C   UNL     1      15.677   7.485   4.009  0.00  0.00    +0.002 A 
ATOM     28  C   UNL     1      16.865   8.207   4.125  0.00  0.00    +0.004 A 
BRANCH  23   4
ATOM      4  O   UNL     1      17.834   8.532   0.618  0.00  0.00    -0.493 OA
ATOM     31  C   UNL     1      19.043   7.815   0.379  0.00  0.00    +0.277 C 
ENDBRANCH  23   4
ENDBRANCH   7  21
BRANCH  18  20
ATOM     20  C   UNL     1      10.738   4.745   3.939  0.00  0.00    +0.014 C 
ATOM     22  C   UNL     1      10.207   5.659   4.759  0.00  0.00    +0.008 C 
BRANCH  22  25
ATOM      1 CL   UNL     1       8.929   4.740  10.513  0.00  0.00    -0.084 Cl
ATOM     25  C   UNL     1       9.891   5.432   6.180  0.00  0.00    -0.025 A 
ATOM     29  C   UNL     1       9.538   6.509   6.978  0.00  0.00    +0.009 A 
ATOM     30  C   UNL     1       9.953   4.145   6.692  0.00  0.00    +0.009 A 
ATOM     32  C   UNL     1       9.240   6.294   8.323  0.00  0.00    +0.020 A 
ATOM     33  C   UNL     1       9.654   3.931   8.037  0.00  0.00    +0.020 A 
ATOM     34  C   UNL     1       9.298   5.005   8.852  0.00  0.00    +0.041 A 
ENDBRANCH  22  25
ENDBRANCH  18  20
TORSDOF 4
ENDMDL
MODEL 3
REMARK VINA RESULT:      -7.1      3.395      7.191
REMARK  Name = 7663767
REMARK  5 active torsions:
REMARK  status: ('A' for Active; 'I' for Inactive)
REMARK    1  A    between atoms: O_4  and  C_23
REMARK    2  A    between atoms: O_4  and  C_31
REMARK    3  A    between atoms: N_7  and  C_21
REMARK    4  A    between atoms: C_18  and  C_20
REMARK    5  A    between atoms: C_22  and  C_25
REMARK                            x       y       z     vdW  Elec       q    Type
REMARK                         _______ _______ _______ _____ _____    ______ ____
ROOT
ATOM      2  O   UNL     1       9.184   7.722   2.398  0.00  0.00    -0.267 OA
ATOM      3  O   UNL     1      12.233   9.993   6.020  0.00  0.00    -0.252 OA
ATOM      5  N   UNL     1      11.017   8.301   7.025  0.00  0.00    -0.284 N 
ATOM      6  N   UNL     1       9.371   7.008   4.610  0.00  0.00    -0.311 N 
ATOM      7  N   UNL     1      13.280   7.969   6.447  0.00  0.00    -0.266 N 
ATOM      8  C   UNL     1       8.558   8.422   6.583  0.00  0.00    +0.027 C 
ATOM      9  C   UNL     1       9.613   6.243   6.998  0.00  0.00    +0.054 C 
ATOM     10  C   UNL     1       8.374   7.085   7.288  0.00  0.00    +0.018 C 
ATOM     11  C   UNL     1       9.815   9.136   7.109  0.00  0.00    +0.114 C 
ATOM     12  C   UNL     1       8.621   8.185   5.070  0.00  0.00    +0.130 C 
ATOM     13  C   UNL     1      10.866   6.939   7.570  0.00  0.00    +0.119 C 
ATOM     14  C   UNL     1       9.787   6.022   5.506  0.00  0.00    +0.027 A 
ATOM     15  C   UNL     1      10.367   4.901   5.051  0.00  0.00    +0.022 A 
ATOM     16  C   UNL     1       9.554   6.880   3.218  0.00  0.00    +0.259 A 
ATOM     17  C   UNL     1      12.192   8.839   6.455  0.00  0.00    +0.307 C 
ATOM     18  C   UNL     1      10.233   5.624   2.739  0.00  0.00    +0.040 A 
ATOM     19  C   UNL     1      10.591   4.704   3.647  0.00  0.00    +0.015 A 
ATOM     35  H   UNL     1      13.334   7.259   7.169  0.00  0.00    +0.156 HD
ENDROOT
BRANCH   7  21
ATOM     21  C   UNL     1      14.386   7.987   5.560  0.00  0.00    +0.077 A 
ATOM     23  C   UNL     1      14.197   7.822   4.190  0.00  0.00    +0.141 A 
ATOM     24  C   UNL     1      15.666   8.175   6.076  0.00  0.00    +0.027 A 
ATOM     26  C   UNL     1      15.296   7.844   3.331  0.00  0.00    +0.047 A 
ATOM     27  C   UNL     1      16.764   8.198   5.216  0.00  0.00    +0.002 A 
ATOM     28  C   UNL     1      16.579   8.032   3.843  0.00  0.00    +0.004 A 
BRANCH  23   4
ATOM      4  O   UNL     1      12.952   7.636   3.670  0.00  0.00    -0.493 OA
ATOM     31  C   UNL     1      12.560   8.498   2.603  0.00  0.00    +0.277 C 
ENDBRANCH  23   4
ENDBRANCH   7  21
BRANCH  18  20
ATOM     20  C   UNL     1      10.473   5.426   1.331  0.00  0.00    +0.014 C 
ATOM     22  C   UNL     1      11.040   4.319   0.839  0.00  0.00    +0.008 C 
BRANCH  22  25
ATOM      1 CL   UNL     1      12.145   3.337  -4.940  0.00  0.00    -0.084 Cl
ATOM     25  C   UNL     1      11.313   4.075  -0.589  0.00  0.00    -0.025 A 
ATOM     29  C   UNL     1      12.378   3.266  -0.948  0.00  0.00    +0.009 A 
ATOM     30  C   UNL     1      10.498   4.662  -1.544  0.00  0.00    +0.009 A 
ATOM     32  C   UNL     1      12.637   3.038  -2.299  0.00  0.00    +0.020 A 
ATOM     33  C   UNL     1      10.756   4.432  -2.895  0.00  0.00    +0.020 A 
ATOM     34  C   UNL     1      11.826   3.620  -3.272  0.00  0.00    +0.041 A 
ENDBRANCH  22  25
ENDBRANCH  18  20
TORSDOF 4
ENDMDL
MODEL 4
REMARK VINA RESULT:      -7.0     26.066     30.159
REMARK  Name = 7663767
REMARK  5 active torsions:
REMARK  status: ('A' for Active; 'I' for Inactive)
REMARK    1  A    between atoms: O_4  and  C_23
REMARK    2  A    between atoms: O_4  and  C_31
REMARK    3  A    between atoms: N_7  and  C_21
REMARK    4  A    between atoms: C_18  and  C_20
REMARK    5  A    between atoms: C_22  and  C_25
REMARK                            x       y       z     vdW  Elec       q    Type
REMARK                         _______ _______ _______ _____ _____    ______ ____
ROOT
ATOM      2  O   UNL     1      -6.610 -10.029  13.967  0.00  0.00    -0.267 OA
ATOM      3  O   UNL     1      -4.384 -14.607  12.674  0.00  0.00    -0.252 OA
ATOM      5  N   UNL     1      -2.716 -13.069  13.130  0.00  0.00    -0.284 N 
ATOM      6  N   UNL     1      -4.317 -10.448  14.013  0.00  0.00    -0.311 N 
ATOM      7  N   UNL     1      -3.315 -14.698  14.729  0.00  0.00    -0.266 N 
ATOM      8  C   UNL     1      -2.962 -10.911  11.891  0.00  0.00    +0.027 C 
ATOM      9  C   UNL     1      -1.846 -10.936  14.079  0.00  0.00    +0.054 C 
ATOM     10  C   UNL     1      -1.792 -10.336  12.677  0.00  0.00    +0.018 C 
ATOM     11  C   UNL     1      -2.852 -12.443  11.812  0.00  0.00    +0.114 C 
ATOM     12  C   UNL     1      -4.273 -10.460  12.544  0.00  0.00    +0.130 C 
ATOM     13  C   UNL     1      -1.687 -12.469  13.999  0.00  0.00    +0.119 C 
ATOM     14  C   UNL     1      -3.153 -10.593  14.771  0.00  0.00    +0.027 A 
ATOM     15  C   UNL     1      -3.199 -10.462  16.105  0.00  0.00    +0.022 A 
ATOM     16  C   UNL     1      -5.567 -10.181  14.607  0.00  0.00    +0.259 A 
ATOM     17  C   UNL     1      -3.544 -14.164  13.463  0.00  0.00    +0.307 C 
ATOM     18  C   UNL     1      -5.592 -10.067  16.108  0.00  0.00    +0.040 A 
ATOM     19  C   UNL     1      -4.438 -10.196  16.778  0.00  0.00    +0.015 A 
ATOM     35  H   UNL     1      -2.386 -14.613  15.126  0.00  0.00    +0.156 HD
ENDROOT
BRANCH   7  21
ATOM     21  C   UNL     1      -4.232 -15.416  15.536  0.00  0.00    +0.077 A 
ATOM     23  C   UNL     1      -5.451 -14.848  15.898  0.00  0.00    +0.141 A 
ATOM     24  C   UNL     1      -3.902 -16.701  15.960  0.00  0.00    +0.027 A 
ATOM     26  C   UNL     1      -6.344 -15.569  16.691  0.00  0.00    +0.047 A 
ATOM     27  C   UNL     1      -4.795 -17.421  16.753  0.00  0.00    +0.002 A 
ATOM     28  C   UNL     1      -6.017 -16.855  17.119  0.00  0.00    +0.004 A 
BRANCH  23   4
ATOM      4  O   UNL     1      -5.789 -13.592  15.492  0.00  0.00    -0.493 OA
ATOM     31  C   UNL     1      -7.089 -13.422  14.930  0.00  0.00    +0.277 C 
ENDBRANCH  23   4
ENDBRANCH   7  21
BRANCH  18  20
ATOM     20  C   UNL     1      -6.836  -9.812  16.791  0.00  0.00    +0.014 C 
ATOM     22  C   UNL     1      -7.443 -10.724  17.559  0.00  0.00    +0.008 C 
BRANCH  22  25
ATOM      1 CL   UNL     1     -12.604  -9.871  20.427  0.00  0.00    -0.084 Cl
ATOM     25  C   UNL     1      -8.718 -10.513  18.268  0.00  0.00    -0.025 A 
ATOM     29  C   UNL     1      -8.977 -11.227  19.426  0.00  0.00    +0.009 A 
ATOM     30  C   UNL     1      -9.633  -9.604  17.761  0.00  0.00    +0.009 A 
ATOM     32  C   UNL     1     -10.184 -11.028  20.096  0.00  0.00    +0.020 A 
ATOM     33  C   UNL     1     -10.840  -9.404  18.432  0.00  0.00    +0.020 A 
ATOM     34  C   UNL     1     -11.115 -10.117  19.600  0.00  0.00    +0.041 A 
ENDBRANCH  22  25
ENDBRANCH  18  20
TORSDOF 4
ENDMDL
MODEL 5
REMARK VINA RESULT:      -7.0      5.254      8.465
REMARK  Name = 7663767
REMARK  5 active torsions:
REMARK  status: ('A' for Active; 'I' for Inactive)
REMARK    1  A    between atoms: O_4  and  C_23
REMARK    2  A    between atoms: O_4  and  C_31
REMARK    3  A    between atoms: N_7  and  C_21
REMARK    4  A    between atoms: C_18  and  C_20
REMARK    5  A    between atoms: C_22  and  C_25
REMARK                            x       y       z     vdW  Elec       q    Type
REMARK                         _______ _______ _______ _____ _____    ______ ____
ROOT
ATOM      2  O   UNL     1      12.277   7.840   2.484  0.00  0.00    -0.267 OA
ATOM      3  O   UNL     1      12.995   5.895  -2.341  0.00  0.00    -0.252 OA
ATOM      5  N   UNL     1      13.421   4.228  -0.795  0.00  0.00    -0.284 N 
ATOM      6  N   UNL     1      12.785   5.613   2.014  0.00  0.00    -0.311 N 
ATOM      7  N   UNL     1      11.371   4.284  -1.962  0.00  0.00    -0.266 N 
ATOM      8  C   UNL     1      15.026   4.900   1.002  0.00  0.00    +0.027 C 
ATOM      9  C   UNL     1      13.308   3.208   1.476  0.00  0.00    +0.054 C 
ATOM     10  C   UNL     1      14.770   3.578   1.714  0.00  0.00    +0.018 C 
ATOM     11  C   UNL     1      14.757   4.757  -0.506  0.00  0.00    +0.114 C 
ATOM     12  C   UNL     1      14.156   5.988   1.642  0.00  0.00    +0.130 C 
ATOM     13  C   UNL     1      13.055   3.019  -0.034  0.00  0.00    +0.119 C 
ATOM     14  C   UNL     1      12.378   4.277   2.021  0.00  0.00    +0.027 A 
ATOM     15  C   UNL     1      11.160   3.947   2.475  0.00  0.00    +0.022 A 
ATOM     16  C   UNL     1      11.943   6.653   2.459  0.00  0.00    +0.259 A 
ATOM     17  C   UNL     1      12.611   4.884  -1.747  0.00  0.00    +0.307 C 
ATOM     18  C   UNL     1      10.572   6.255   2.937  0.00  0.00    +0.040 A 
ATOM     19  C   UNL     1      10.248   4.954   2.938  0.00  0.00    +0.015 A 
ATOM     35  H   UNL     1      11.289   3.284  -1.814  0.00  0.00    +0.156 HD
ENDROOT
BRANCH   7  21
ATOM     21  C   UNL     1      10.188   4.906  -2.432  0.00  0.00    +0.077 A 
ATOM     23  C   UNL     1       9.527   4.413  -3.554  0.00  0.00    +0.141 A 
ATOM     24  C   UNL     1       9.691   6.017  -1.754  0.00  0.00    +0.027 A 
ATOM     26  C   UNL     1       8.362   5.036  -4.002  0.00  0.00    +0.047 A 
ATOM     27  C   UNL     1       8.526   6.639  -2.203  0.00  0.00    +0.002 A 
ATOM     28  C   UNL     1       7.861   6.149  -3.328  0.00  0.00    +0.004 A 
BRANCH  23   4
ATOM      4  O   UNL     1      10.000   3.327  -4.228  0.00  0.00    -0.493 OA
ATOM     31  C   UNL     1       9.418   2.064  -3.911  0.00  0.00    +0.277 C 
ENDBRANCH  23   4
ENDBRANCH   7  21
BRANCH  18  20
ATOM     20  C   UNL     1       9.647   7.263   3.392  0.00  0.00    +0.014 C 
ATOM     22  C   UNL     1       8.723   7.814   2.596  0.00  0.00    +0.008 C 
BRANCH  22  25
ATOM      1 CL   UNL     1       4.838  12.015   4.280  0.00  0.00    -0.084 Cl
ATOM     25  C   UNL     1       7.763   8.852   3.012  0.00  0.00    -0.025 A 
ATOM     29  C   UNL     1       7.713   9.236   4.342  0.00  0.00    +0.009 A 
ATOM     30  C   UNL     1       6.929   9.423   2.064  0.00  0.00    +0.009 A 
ATOM     32  C   UNL     1       6.805  10.218   4.736  0.00  0.00    +0.020 A 
ATOM     33  C   UNL     1       6.021  10.406   2.458  0.00  0.00    +0.020 A 
ATOM     34  C   UNL     1       5.959  10.803   3.794  0.00  0.00    +0.041 A 
ENDBRANCH  22  25
ENDBRANCH  18  20
TORSDOF 4
ENDMDL
MODEL 6
REMARK VINA RESULT:      -7.0     32.262     34.844
REMARK  Name = 7663767
REMARK  5 active torsions:
REMARK  status: ('A' for Active; 'I' for Inactive)
REMARK    1  A    between atoms: O_4  and  C_23
REMARK    2  A    between atoms: O_4  and  C_31
REMARK    3  A    between atoms: N_7  and  C_21
REMARK    4  A    between atoms: C_18  and  C_20
REMARK    5  A    between atoms: C_22  and  C_25
REMARK                            x       y       z     vdW  Elec       q    Type
REMARK                         _______ _______ _______ _____ _____    ______ ____
ROOT
ATOM      2  O   UNL     1       9.000 -10.720  32.198  0.00  0.00    -0.267 OA
ATOM      3  O   UNL     1       7.033  -9.716  36.963  0.00  0.00    -0.252 OA
ATOM      5  N   UNL     1       7.420  -7.710  35.878  0.00  0.00    -0.284 N 
ATOM      6  N   UNL     1       8.468  -8.593  32.992  0.00  0.00    -0.311 N 
ATOM      7  N   UNL     1       5.237  -8.597  36.014  0.00  0.00    -0.266 N 
ATOM      8  C   UNL     1       9.726  -7.498  34.934  0.00  0.00    +0.027 C 
ATOM      9  C   UNL     1       7.860  -6.310  33.865  0.00  0.00    +0.054 C 
ATOM     10  C   UNL     1       9.325  -6.186  34.272  0.00  0.00    +0.018 C 
ATOM     11  C   UNL     1       8.854  -7.760  36.174  0.00  0.00    +0.114 C 
ATOM     12  C   UNL     1       9.619  -8.629  33.905  0.00  0.00    +0.130 C 
ATOM     13  C   UNL     1       6.984  -6.525  35.117  0.00  0.00    +0.119 C 
ATOM     14  C   UNL     1       7.658  -7.461  32.895  0.00  0.00    +0.027 A 
ATOM     15  C   UNL     1       6.685  -7.406  31.973  0.00  0.00    +0.022 A 
ATOM     16  C   UNL     1       8.292  -9.712  32.152  0.00  0.00    +0.259 A 
ATOM     17  C   UNL     1       6.586  -8.757  36.329  0.00  0.00    +0.307 C 
ATOM     18  C   UNL     1       7.175  -9.633  31.146  0.00  0.00    +0.040 A 
ATOM     19  C   UNL     1       6.444  -8.511  31.089  0.00  0.00    +0.015 A 
ATOM     35  H   UNL     1       4.876  -7.655  35.912  0.00  0.00    +0.156 HD
ENDROOT
BRANCH   7  21
ATOM     21  C   UNL     1       4.264  -9.617  35.870  0.00  0.00    +0.077 A 
ATOM     23  C   UNL     1       4.449 -10.645  34.949  0.00  0.00    +0.141 A 
ATOM     24  C   UNL     1       3.120  -9.580  36.664  0.00  0.00    +0.027 A 
ATOM     26  C   UNL     1       3.482 -11.643  34.820  0.00  0.00    +0.047 A 
ATOM     27  C   UNL     1       2.154 -10.578  36.534  0.00  0.00    +0.002 A 
ATOM     28  C   UNL     1       2.334 -11.609  35.612  0.00  0.00    +0.004 A 
BRANCH  23   4
ATOM      4  O   UNL     1       5.562 -10.695  34.165  0.00  0.00    -0.493 OA
ATOM     31  C   UNL     1       6.370 -11.866  34.262  0.00  0.00    +0.277 C 
ENDBRANCH  23   4
ENDBRANCH   7  21
BRANCH  18  20
ATOM     20  C   UNL     1       6.920 -10.744  30.264  0.00  0.00    +0.014 C 
ATOM     22  C   UNL     1       6.336 -11.877  30.671  0.00  0.00    +0.008 C 
BRANCH  22  25
ATOM      1 CL   UNL     1       5.236 -16.591  27.185  0.00  0.00    -0.084 Cl
ATOM     25  C   UNL     1       6.064 -13.042  29.810  0.00  0.00    -0.025 A 
ATOM     29  C   UNL     1       4.802 -13.613  29.819  0.00  0.00    +0.009 A 
ATOM     30  C   UNL     1       7.077 -13.543  29.007  0.00  0.00    +0.009 A 
ATOM     32  C   UNL     1       4.545 -14.715  29.004  0.00  0.00    +0.020 A 
ATOM     33  C   UNL     1       6.819 -14.645  28.192  0.00  0.00    +0.020 A 
ATOM     34  C   UNL     1       5.553 -15.231  28.191  0.00  0.00    +0.041 A 
ENDBRANCH  22  25
ENDBRANCH  18  20
TORSDOF 4
ENDMDL
MODEL 7
REMARK VINA RESULT:      -6.9     26.056     29.899
REMARK  Name = 7663767
REMARK  5 active torsions:
REMARK  status: ('A' for Active; 'I' for Inactive)
REMARK    1  A    between atoms: O_4  and  C_23
REMARK    2  A    between atoms: O_4  and  C_31
REMARK    3  A    between atoms: N_7  and  C_21
REMARK    4  A    between atoms: C_18  and  C_20
REMARK    5  A    between atoms: C_22  and  C_25
REMARK                            x       y       z     vdW  Elec       q    Type
REMARK                         _______ _______ _______ _____ _____    ______ ____
ROOT
ATOM      2  O   UNL     1      -8.373  -8.325  17.124  0.00  0.00    -0.267 OA
ATOM      3  O   UNL     1      -3.534 -10.335  16.775  0.00  0.00    -0.252 OA
ATOM      5  N   UNL     1      -4.976 -11.988  17.511  0.00  0.00    -0.284 N 
ATOM      6  N   UNL     1      -7.837 -10.563  17.502  0.00  0.00    -0.311 N 
ATOM      7  N   UNL     1      -4.275 -11.925  15.258  0.00  0.00    -0.266 N 
ATOM      8  C   UNL     1      -6.378 -11.311  19.468  0.00  0.00    +0.027 C 
ATOM      9  C   UNL     1      -7.232 -12.979  17.880  0.00  0.00    +0.054 C 
ATOM     10  C   UNL     1      -7.146 -12.621  19.361  0.00  0.00    +0.018 C 
ATOM     11  C   UNL     1      -4.965 -11.469  18.881  0.00  0.00    +0.114 C 
ATOM     12  C   UNL     1      -7.174 -10.206  18.765  0.00  0.00    +0.130 C 
ATOM     13  C   UNL     1      -5.815 -13.184  17.307  0.00  0.00    +0.119 C 
ATOM     14  C   UNL     1      -7.949 -11.894  17.097  0.00  0.00    +0.027 A 
ATOM     15  C   UNL     1      -8.659 -12.205  16.002  0.00  0.00    +0.022 A 
ATOM     16  C   UNL     1      -8.438  -9.509  16.784  0.00  0.00    +0.259 A 
ATOM     17  C   UNL     1      -4.211 -11.335  16.519  0.00  0.00    +0.307 C 
ATOM     18  C   UNL     1      -9.204  -9.886  15.544  0.00  0.00    +0.040 A 
ATOM     19  C   UNL     1      -9.293 -11.184  15.218  0.00  0.00    +0.015 A 
ATOM     35  H   UNL     1      -4.452 -12.922  15.202  0.00  0.00    +0.156 HD
ENDROOT
BRANCH   7  21
ATOM     21  C   UNL     1      -4.062 -11.296  14.006  0.00  0.00    +0.077 A 
ATOM     23  C   UNL     1      -2.798 -11.292  13.423  0.00  0.00    +0.141 A 
ATOM     24  C   UNL     1      -5.135 -10.683  13.363  0.00  0.00    +0.027 A 
ATOM     26  C   UNL     1      -2.605 -10.670  12.189  0.00  0.00    +0.047 A 
ATOM     27  C   UNL     1      -4.942 -10.061  12.130  0.00  0.00    +0.002 A 
ATOM     28  C   UNL     1      -3.676 -10.054  11.543  0.00  0.00    +0.004 A 
BRANCH  23   4
ATOM      4  O   UNL     1      -1.738 -11.886  14.039  0.00  0.00    -0.493 OA
ATOM     31  C   UNL     1      -1.393 -13.201  13.608  0.00  0.00    +0.277 C 
ENDBRANCH  23   4
ENDBRANCH   7  21
BRANCH  18  20
ATOM     20  C   UNL     1      -9.832  -8.864  14.746  0.00  0.00    +0.014 C 
ATOM     22  C   UNL     1     -11.074  -8.423  14.976  0.00  0.00    +0.008 C 
BRANCH  22  25
ATOM      1 CL   UNL     1     -13.853  -4.233  11.765  0.00  0.00    -0.084 Cl
ATOM     25  C   UNL     1     -11.761  -7.388  14.183  0.00  0.00    -0.025 A 
ATOM     29  C   UNL     1     -12.278  -7.717  12.940  0.00  0.00    +0.009 A 
ATOM     30  C   UNL     1     -11.876  -6.106  14.695  0.00  0.00    +0.009 A 
ATOM     32  C   UNL     1     -12.927  -6.737  12.190  0.00  0.00    +0.020 A 
ATOM     33  C   UNL     1     -12.526  -5.126  13.945  0.00  0.00    +0.020 A 
ATOM     34  C   UNL     1     -13.052  -5.442  12.692  0.00  0.00    +0.041 A 
ENDBRANCH  22  25
ENDBRANCH  18  20
TORSDOF 4
ENDMDL
MODEL 8
REMARK VINA RESULT:      -6.9     16.099     20.160
REMARK  Name = 7663767
REMARK  5 active torsions:
REMARK  status: ('A' for Active; 'I' for Inactive)
REMARK    1  A    between atoms: O_4  and  C_23
REMARK    2  A    between atoms: O_4  and  C_31
REMARK    3  A    between atoms: N_7  and  C_21
REMARK    4  A    between atoms: C_18  and  C_20
REMARK    5  A    between atoms: C_22  and  C_25
REMARK                            x       y       z     vdW  Elec       q    Type
REMARK                         _______ _______ _______ _____ _____    ______ ____
ROOT
ATOM      2  O   UNL     1      -6.287  10.122   5.807  0.00  0.00    -0.267 OA
ATOM      3  O   UNL     1      -2.629  12.336   2.759  0.00  0.00    -0.252 OA
ATOM      5  N   UNL     1      -1.592  10.886   4.234  0.00  0.00    -0.284 N 
ATOM      6  N   UNL     1      -4.019   9.584   5.855  0.00  0.00    -0.311 N 
ATOM      7  N   UNL     1      -1.967  10.251   1.992  0.00  0.00    -0.266 N 
ATOM      8  C   UNL     1      -2.230  11.247   6.625  0.00  0.00    +0.027 C 
ATOM      9  C   UNL     1      -1.567   9.006   5.868  0.00  0.00    +0.054 C 
ATOM     10  C   UNL     1      -1.440  10.005   7.014  0.00  0.00    +0.018 C 
ATOM     11  C   UNL     1      -1.666  11.856   5.330  0.00  0.00    +0.114 C 
ATOM     12  C   UNL     1      -3.711  10.874   6.489  0.00  0.00    +0.130 C 
ATOM     13  C   UNL     1      -0.956   9.602   4.583  0.00  0.00    +0.119 C 
ATOM     14  C   UNL     1      -3.019   8.638   5.622  0.00  0.00    +0.027 A 
ATOM     15  C   UNL     1      -3.340   7.424   5.150  0.00  0.00    +0.022 A 
ATOM     16  C   UNL     1      -5.378   9.316   5.595  0.00  0.00    +0.259 A 
ATOM     17  C   UNL     1      -2.110  11.236   2.967  0.00  0.00    +0.307 C 
ATOM     18  C   UNL     1      -5.704   7.955   5.040  0.00  0.00    +0.040 A 
ATOM     19  C   UNL     1      -4.703   7.083   4.857  0.00  0.00    +0.015 A 
ATOM     35  H   UNL     1      -1.190   9.604   2.072  0.00  0.00    +0.156 HD
ENDROOT
BRANCH   7  21
ATOM     21  C   UNL     1      -2.764  10.067   0.835  0.00  0.00    +0.077 A 
ATOM     23  C   UNL     1      -2.171   9.815  -0.400  0.00  0.00    +0.141 A 
ATOM     24  C   UNL     1      -4.151  10.141   0.948  0.00  0.00    +0.027 A 
ATOM     26  C   UNL     1      -2.971   9.635  -1.529  0.00  0.00    +0.047 A 
ATOM     27  C   UNL     1      -4.949   9.960  -0.182  0.00  0.00    +0.002 A 
ATOM     28  C   UNL     1      -4.359   9.708  -1.421  0.00  0.00    +0.004 A 
BRANCH  23   4
ATOM      4  O   UNL     1      -0.817   9.741  -0.527  0.00  0.00    -0.493 OA
ATOM     31  C   UNL     1      -0.164  10.842  -1.154  0.00  0.00    +0.277 C 
ENDBRANCH  23   4
ENDBRANCH   7  21
BRANCH  18  20
ATOM     20  C   UNL     1      -7.070   7.611   4.732  0.00  0.00    +0.014 C 
ATOM     22  C   UNL     1      -7.847   6.907   5.563  0.00  0.00    +0.008 C 
BRANCH  22  25
ATOM      1 CL   UNL     1     -13.498   5.352   4.451  0.00  0.00    -0.084 Cl
ATOM     25  C   UNL     1      -9.243   6.523   5.288  0.00  0.00    -0.025 A 
ATOM     29  C   UNL     1     -10.273   7.305   5.785  0.00  0.00    +0.009 A 
ATOM     30  C   UNL     1      -9.499   5.386   4.538  0.00  0.00    +0.009 A 
ATOM     32  C   UNL     1     -11.594   6.941   5.526  0.00  0.00    +0.020 A 
ATOM     33  C   UNL     1     -10.820   5.023   4.278  0.00  0.00    +0.020 A 
ATOM     34  C   UNL     1     -11.867   5.801   4.772  0.00  0.00    +0.041 A 
ENDBRANCH  22  25
ENDBRANCH  18  20
TORSDOF 4
ENDMDL
MODEL 9
REMARK VINA RESULT:      -6.8     24.240     27.113
REMARK  Name = 7663767
REMARK  5 active torsions:
REMARK  status: ('A' for Active; 'I' for Inactive)
REMARK    1  A    between atoms: O_4  and  C_23
REMARK    2  A    between atoms: O_4  and  C_31
REMARK    3  A    between atoms: N_7  and  C_21
REMARK    4  A    between atoms: C_18  and  C_20
REMARK    5  A    between atoms: C_22  and  C_25
REMARK                            x       y       z     vdW  Elec       q    Type
REMARK                         _______ _______ _______ _____ _____    ______ ____
ROOT
ATOM      2  O   UNL     1      18.563  -6.084  29.114  0.00  0.00    -0.267 OA
ATOM      3  O   UNL     1      20.852  -3.816  24.967  0.00  0.00    -0.252 OA
ATOM      5  N   UNL     1      20.476  -6.047  24.483  0.00  0.00    -0.284 N 
ATOM      6  N   UNL     1      18.970  -7.146  27.079  0.00  0.00    -0.311 N 
ATOM      7  N   UNL     1      19.044  -4.378  23.628  0.00  0.00    -0.266 N 
ATOM      8  C   UNL     1      21.337  -7.620  26.227  0.00  0.00    +0.027 C 
ATOM      9  C   UNL     1      19.399  -8.261  24.861  0.00  0.00    +0.054 C 
ATOM     10  C   UNL     1      20.690  -8.782  25.486  0.00  0.00    +0.018 C 
ATOM     11  C   UNL     1      21.649  -6.471  25.252  0.00  0.00    +0.114 C 
ATOM     12  C   UNL     1      20.412  -7.175  27.364  0.00  0.00    +0.130 C 
ATOM     13  C   UNL     1      19.721  -7.143  23.848  0.00  0.00    +0.119 C 
ATOM     14  C   UNL     1      18.451  -7.733  25.923  0.00  0.00    +0.027 A 
ATOM     15  C   UNL     1      17.124  -7.798  25.740  0.00  0.00    +0.022 A 
ATOM     16  C   UNL     1      18.139  -6.593  28.074  0.00  0.00    +0.259 A 
ATOM     17  C   UNL     1      20.165  -4.671  24.403  0.00  0.00    +0.307 C 
ATOM     18  C   UNL     1      16.655  -6.656  27.827  0.00  0.00    +0.040 A 
ATOM     19  C   UNL     1      16.218  -7.250  26.708  0.00  0.00    +0.015 A 
ATOM     35  H   UNL     1      18.805  -5.007  22.870  0.00  0.00    +0.156 HD
ENDROOT
BRANCH   7  21
ATOM     21  C   UNL     1      18.202  -3.243  23.735  0.00  0.00    +0.077 A 
ATOM     23  C   UNL     1      17.547  -2.958  24.931  0.00  0.00    +0.141 A 
ATOM     24  C   UNL     1      18.039  -2.412  22.629  0.00  0.00    +0.027 A 
ATOM     26  C   UNL     1      16.723  -1.836  25.020  0.00  0.00    +0.047 A 
ATOM     27  C   UNL     1      17.215  -1.290  22.719  0.00  0.00    +0.002 A 
ATOM     28  C   UNL     1      16.556  -1.002  23.915  0.00  0.00    +0.004 A 
BRANCH  23   4
ATOM      4  O   UNL     1      17.695  -3.761  26.021  0.00  0.00    -0.493 OA
ATOM     31  C   UNL     1      18.031  -3.125  27.253  0.00  0.00    +0.277 C 
ENDBRANCH  23   4
ENDBRANCH   7  21
BRANCH  18  20
ATOM     20  C   UNL     1      15.740  -6.096  28.790  0.00  0.00    +0.014 C 
ATOM     22  C   UNL     1      14.794  -6.819  29.400  0.00  0.00    +0.008 C 
BRANCH  22  25
ATOM      1 CL   UNL     1      10.897  -4.675  33.376  0.00  0.00    -0.084 Cl
ATOM     25  C   UNL     1      13.831  -6.290  30.382  0.00  0.00    -0.025 A 
ATOM     29  C   UNL     1      12.589  -6.890  30.507  0.00  0.00    +0.009 A 
ATOM     30  C   UNL     1      14.187  -5.201  31.162  0.00  0.00    +0.009 A 
ATOM     32  C   UNL     1      11.678  -6.389  31.436  0.00  0.00    +0.020 A 
ATOM     33  C   UNL     1      13.276  -4.700  32.092  0.00  0.00    +0.020 A 
ATOM     34  C   UNL     1      12.022  -5.294  32.229  0.00  0.00    +0.041 A 
ENDBRANCH  22  25
ENDBRANCH  18  20
TORSDOF 4
ENDMDL
MODEL 10
REMARK VINA RESULT:      -6.8     25.380     28.039
REMARK  Name = 7663767
REMARK  5 active torsions:
REMARK  status: ('A' for Active; 'I' for Inactive)
REMARK    1  A    between atoms: O_4  and  C_23
REMARK    2  A    between atoms: O_4  and  C_31
REMARK    3  A    between atoms: N_7  and  C_21
REMARK    4  A    between atoms: C_18  and  C_20
REMARK    5  A    between atoms: C_22  and  C_25
REMARK                            x       y       z     vdW  Elec       q    Type
REMARK                         _______ _______ _______ _____ _____    ______ ____
ROOT
ATOM      2  O   UNL     1      -4.286 -12.953   9.674  0.00  0.00    -0.267 OA
ATOM      3  O   UNL     1      -6.036 -13.670  14.573  0.00  0.00    -0.252 OA
ATOM      5  N   UNL     1      -3.804 -13.067  14.659  0.00  0.00    -0.284 N 
ATOM      6  N   UNL     1      -3.032 -12.561  11.600  0.00  0.00    -0.311 N 
ATOM      7  N   UNL     1      -5.492 -11.482  15.116  0.00  0.00    -0.266 N 
ATOM      8  C   UNL     1      -2.326 -14.443  13.185  0.00  0.00    +0.027 C 
ATOM      9  C   UNL     1      -1.709 -12.121  13.698  0.00  0.00    +0.054 C 
ATOM     10  C   UNL     1      -1.154 -13.532  13.523  0.00  0.00    +0.018 C 
ATOM     11  C   UNL     1      -3.365 -14.422  14.319  0.00  0.00    +0.114 C 
ATOM     12  C   UNL     1      -2.927 -14.006  11.844  0.00  0.00    +0.130 C 
ATOM     13  C   UNL     1      -2.715 -12.095  14.868  0.00  0.00    +0.119 C 
ATOM     14  C   UNL     1      -2.389 -11.640  12.429  0.00  0.00    +0.027 A 
ATOM     15  C   UNL     1      -2.401 -10.334  12.120  0.00  0.00    +0.022 A 
ATOM     16  C   UNL     1      -3.723 -12.165  10.436  0.00  0.00    +0.259 A 
ATOM     17  C   UNL     1      -5.187 -12.796  14.764  0.00  0.00    +0.307 C 
ATOM     18  C   UNL     1      -3.744 -10.691  10.131  0.00  0.00    +0.040 A 
ATOM     19  C   UNL     1      -3.090  -9.859  10.954  0.00  0.00    +0.015 A 
ATOM     35  H   UNL     1      -4.820 -10.964  15.670  0.00  0.00    +0.156 HD
ENDROOT
BRANCH   7  21
ATOM     21  C   UNL     1      -6.688 -10.776  14.833  0.00  0.00    +0.077 A 
ATOM     23  C   UNL     1      -7.636 -10.563  15.831  0.00  0.00    +0.141 A 
ATOM     24  C   UNL     1      -6.904 -10.295  13.544  0.00  0.00    +0.027 A 
ATOM     26  C   UNL     1      -8.808  -9.865  15.538  0.00  0.00    +0.047 A 
ATOM     27  C   UNL     1      -8.075  -9.596  13.251  0.00  0.00    +0.002 A 
ATOM     28  C   UNL     1      -9.028  -9.382  14.248  0.00  0.00    +0.004 A 
BRANCH  23   4
ATOM      4  O   UNL     1      -7.441 -11.028  17.097  0.00  0.00    -0.493 OA
ATOM     31  C   UNL     1      -7.199 -10.058  18.113  0.00  0.00    +0.277 C 
ENDBRANCH  23   4
ENDBRANCH   7  21
BRANCH  18  20
ATOM     20  C   UNL     1      -4.444 -10.205   8.969  0.00  0.00    +0.014 C 
ATOM     22  C   UNL     1      -5.671  -9.674   9.028  0.00  0.00    +0.008 C 
BRANCH  22  25
ATOM      1 CL   UNL     1      -8.740  -7.647   4.332  0.00  0.00    -0.084 Cl
ATOM     25  C   UNL     1      -6.429  -9.174   7.868  0.00  0.00    -0.025 A 
ATOM     29  C   UNL     1      -6.126  -9.649   6.603  0.00  0.00    +0.009 A 
ATOM     30  C   UNL     1      -7.431  -8.236   8.066  0.00  0.00    +0.009 A 
ATOM     32  C   UNL     1      -6.843  -9.175   5.505  0.00  0.00    +0.020 A 
ATOM     33  C   UNL     1      -8.148  -7.762   6.968  0.00  0.00    +0.020 A 
ATOM     34  C   UNL     1      -7.855  -8.232   5.687  0.00  0.00    +0.041 A 
ENDBRANCH  22  25
ENDBRANCH  18  20
TORSDOF 4
ENDMDL
