MODEL 1
REMARK VINA RESULT:      -7.0      0.000      0.000
REMARK  Name = 28959933
REMARK  8 active torsions:
REMARK  status: ('A' for Active; 'I' for Inactive)
REMARK    1  A    between atoms: O_3  and  C_27
REMARK    2  A    between atoms: N_6  and  C_16
REMARK    3  A    between atoms: N_7  and  C_28
REMARK    4  A    between atoms: C_8  and  C_12
REMARK    5  A    between atoms: C_9  and  C_15
REMARK    6  A    between atoms: C_12  and  C_16
REMARK    7  A    between atoms: C_14  and  C_17
REMARK    8  A    between atoms: C_15  and  C_27
REMARK                            x       y       z     vdW  Elec       q    Type
REMARK                         _______ _______ _______ _____ _____    ______ ____
ROOT
ATOM      2  O   UNL     1      11.257   7.338  20.605  0.00  0.00    -0.275 OA
ATOM      5  N   UNL     1      11.513   9.569  21.200  0.00  0.00    -0.301 N 
ATOM      8  C   UNL     1      12.773  11.404  22.303  0.00  0.00    +0.011 C 
ATOM      9  C   UNL     1      11.750  11.357  23.467  0.00  0.00    +0.006 C 
ATOM     10  C   UNL     1      12.115  10.894  21.008  0.00  0.00    +0.111 C 
ATOM     11  C   UNL     1      11.107   9.966  23.599  0.00  0.00    +0.023 C 
ATOM     13  C   UNL     1      10.518   9.499  22.270  0.00  0.00    +0.108 C 
ATOM     17  C   UNL     1      11.797   8.435  20.440  0.00  0.00    +0.219 C 
ENDROOT
BRANCH  17  14
ATOM     14  C   UNL     1      12.829   8.587  19.365  0.00  0.00    +0.075 C 
ATOM     18  C   UNL     1      13.691   7.327  19.288  0.00  0.00    +0.013 C 
ATOM     19  C   UNL     1      12.132   8.872  18.034  0.00  0.00    +0.013 C 
ATOM     20  C   UNL     1      14.690   7.401  18.136  0.00  0.00    +0.001 C 
ATOM     21  C   UNL     1      13.131   8.941  16.881  0.00  0.00    +0.001 C 
ATOM     22  C   UNL     1      13.993   7.684  16.808  0.00  0.00    +0.000 C 
ENDBRANCH  17  14
BRANCH   8  12
ATOM     12  C   UNL     1      14.069  10.632  22.582  0.00  0.00    +0.020 C 
BRANCH  12  16
ATOM     16  C   UNL     1      15.263  11.325  21.939  0.00  0.00    +0.085 C 
BRANCH  16   6
ATOM      6  N   UNL     1      16.201  10.327  21.429  0.00  0.00    -0.299 NA
ATOM      7  N   UNL     1      18.126   8.224  21.612  0.00  0.00    -0.327 N 
ATOM     23  C   UNL     1      15.791   8.979  21.838  0.00  0.00    +0.103 C 
ATOM     24  C   UNL     1      17.560  10.605  21.911  0.00  0.00    +0.103 C 
ATOM     25  C   UNL     1      16.735   7.918  21.264  0.00  0.00    +0.120 C 
ATOM     26  C   UNL     1      18.561   9.599  21.338  0.00  0.00    +0.120 C 
BRANCH   7  28
ATOM      1  F   UNL     1      21.931   4.216  21.478  0.00  0.00    -0.205 F 
ATOM     28  C   UNL     1      19.089   7.210  21.577  0.00  0.00    +0.030 A 
ATOM     29  C   UNL     1      20.005   7.082  22.622  0.00  0.00    +0.026 A 
ATOM     30  C   UNL     1      19.134   6.327  20.498  0.00  0.00    +0.026 A 
ATOM     31  C   UNL     1      20.964   6.071  22.588  0.00  0.00    +0.040 A 
ATOM     32  C   UNL     1      20.094   5.315  20.465  0.00  0.00    +0.040 A 
ATOM     33  C   UNL     1      21.010   5.188  21.510  0.00  0.00    +0.124 A 
ENDBRANCH   7  28
ENDBRANCH  16   6
ENDBRANCH  12  16
ENDBRANCH   8  12
BRANCH   9  15
ATOM     15  C   UNL     1      12.339  11.807  24.803  0.00  0.00    +0.124 C 
BRANCH  15  27
ATOM      4  O   UNL     1      11.734  14.102  25.363  0.00  0.00    -0.251 OA
ATOM     27  C   UNL     1      11.519  12.901  25.430  0.00  0.00    +0.305 C 
BRANCH  27   3
ATOM      3  O   UNL     1      10.471  12.358  26.103  0.00  0.00    -0.481 OA
ATOM     34  H   UNL     1      10.675  12.228  27.054  0.00  0.00    +0.295 HD
ENDBRANCH  27   3
ENDBRANCH  15  27
ENDBRANCH   9  15
TORSDOF 8
ENDMDL
MODEL 2
REMARK VINA RESULT:      -6.9     27.718     30.729
REMARK  Name = 28959933
REMARK  8 active torsions:
REMARK  status: ('A' for Active; 'I' for Inactive)
REMARK    1  A    between atoms: O_3  and  C_27
REMARK    2  A    between atoms: N_6  and  C_16
REMARK    3  A    between atoms: N_7  and  C_28
REMARK    4  A    between atoms: C_8  and  C_12
REMARK    5  A    between atoms: C_9  and  C_15
REMARK    6  A    between atoms: C_12  and  C_16
REMARK    7  A    between atoms: C_14  and  C_17
REMARK    8  A    between atoms: C_15  and  C_27
REMARK                            x       y       z     vdW  Elec       q    Type
REMARK                         _______ _______ _______ _____ _____    ______ ____
ROOT
ATOM      2  O   UNL     1      -1.418 -10.063  12.092  0.00  0.00    -0.275 OA
ATOM      5  N   UNL     1      -2.769 -11.245  13.567  0.00  0.00    -0.301 N 
ATOM      8  C   UNL     1      -4.638 -11.364  15.199  0.00  0.00    +0.011 C 
ATOM      9  C   UNL     1      -3.589 -11.415  16.340  0.00  0.00    +0.006 C 
ATOM     10  C   UNL     1      -4.027 -11.924  13.902  0.00  0.00    +0.111 C 
ATOM     11  C   UNL     1      -2.272 -10.738  15.928  0.00  0.00    +0.023 C 
ATOM     13  C   UNL     1      -1.746 -11.303  14.611  0.00  0.00    +0.108 C 
ATOM     17  C   UNL     1      -2.494 -10.604  12.360  0.00  0.00    +0.219 C 
ENDROOT
BRANCH  17  14
ATOM     14  C   UNL     1      -3.594 -10.585  11.343  0.00  0.00    +0.075 C 
ATOM     18  C   UNL     1      -3.498  -9.316  10.496  0.00  0.00    +0.013 C 
ATOM     19  C   UNL     1      -3.503 -11.843  10.479  0.00  0.00    +0.013 C 
ATOM     20  C   UNL     1      -4.540  -9.307   9.380  0.00  0.00    +0.001 C 
ATOM     21  C   UNL     1      -4.542 -11.832   9.360  0.00  0.00    +0.001 C 
ATOM     22  C   UNL     1      -4.448 -10.563   8.518  0.00  0.00    +0.000 C 
ENDBRANCH  17  14
BRANCH   8  12
ATOM     12  C   UNL     1      -5.223  -9.968  14.953  0.00  0.00    +0.020 C 
BRANCH  12  16
ATOM     16  C   UNL     1      -6.625 -10.062  14.368  0.00  0.00    +0.085 C 
BRANCH  16   6
ATOM      6  N   UNL     1      -7.576 -10.432  15.415  0.00  0.00    -0.299 NA
ATOM      7  N   UNL     1      -9.779 -10.045  17.192  0.00  0.00    -0.327 N 
ATOM     23  C   UNL     1      -8.950 -10.395  14.898  0.00  0.00    +0.103 C 
ATOM     24  C   UNL     1      -7.451  -9.530  16.566  0.00  0.00    +0.103 C 
ATOM     25  C   UNL     1      -9.952 -10.835  15.970  0.00  0.00    +0.120 C 
ATOM     26  C   UNL     1      -8.402  -9.942  17.692  0.00  0.00    +0.120 C 
BRANCH   7  28
ATOM      1  F   UNL     1     -13.903  -9.721  20.859  0.00  0.00    -0.205 F 
ATOM     28  C   UNL     1     -10.823  -9.964  18.120  0.00  0.00    +0.030 A 
ATOM     29  C   UNL     1     -10.579 -10.223  19.469  0.00  0.00    +0.026 A 
ATOM     30  C   UNL     1     -12.107  -9.623  17.696  0.00  0.00    +0.026 A 
ATOM     31  C   UNL     1     -11.620 -10.140  20.394  0.00  0.00    +0.040 A 
ATOM     32  C   UNL     1     -13.149  -9.541  18.622  0.00  0.00    +0.040 A 
ATOM     33  C   UNL     1     -12.904  -9.800  19.970  0.00  0.00    +0.124 A 
ENDBRANCH   7  28
ENDBRANCH  16   6
ENDBRANCH  12  16
ENDBRANCH   8  12
BRANCH   9  15
ATOM     15  C   UNL     1      -4.105 -10.834  17.656  0.00  0.00    +0.124 C 
BRANCH  15  27
ATOM      4  O   UNL     1      -5.282 -12.525  18.960  0.00  0.00    -0.251 OA
ATOM     27  C   UNL     1      -4.264 -11.899  18.707  0.00  0.00    +0.305 C 
BRANCH  27   3
ATOM      3  O   UNL     1      -3.086 -12.078  19.359  0.00  0.00    -0.481 OA
ATOM     34  H   UNL     1      -2.784 -13.010  19.319  0.00  0.00    +0.295 HD
ENDBRANCH  27   3
ENDBRANCH  15  27
ENDBRANCH   9  15
TORSDOF 8
ENDMDL
MODEL 3
REMARK VINA RESULT:      -6.7     27.686     30.663
REMARK  Name = 28959933
REMARK  8 active torsions:
REMARK  status: ('A' for Active; 'I' for Inactive)
REMARK    1  A    between atoms: O_3  and  C_27
REMARK    2  A    between atoms: N_6  and  C_16
REMARK    3  A    between atoms: N_7  and  C_28
REMARK    4  A    between atoms: C_8  and  C_12
REMARK    5  A    between atoms: C_9  and  C_15
REMARK    6  A    between atoms: C_12  and  C_16
REMARK    7  A    between atoms: C_14  and  C_17
REMARK    8  A    between atoms: C_15  and  C_27
REMARK                            x       y       z     vdW  Elec       q    Type
REMARK                         _______ _______ _______ _____ _____    ______ ____
ROOT
ATOM      2  O   UNL     1      -1.431  -9.983  12.313  0.00  0.00    -0.275 OA
ATOM      5  N   UNL     1      -2.720 -11.286  13.740  0.00  0.00    -0.301 N 
ATOM      8  C   UNL     1      -4.623 -11.578  15.310  0.00  0.00    +0.011 C 
ATOM      9  C   UNL     1      -3.611 -11.544  16.484  0.00  0.00    +0.006 C 
ATOM     10  C   UNL     1      -3.924 -12.074  14.032  0.00  0.00    +0.111 C 
ATOM     11  C   UNL     1      -2.345 -10.752  16.117  0.00  0.00    +0.023 C 
ATOM     13  C   UNL     1      -1.730 -11.262  14.816  0.00  0.00    +0.108 C 
ATOM     17  C   UNL     1      -2.464 -10.617  12.544  0.00  0.00    +0.219 C 
ENDROOT
BRANCH  17  14
ATOM     14  C   UNL     1      -3.528 -10.688  11.492  0.00  0.00    +0.075 C 
ATOM     18  C   UNL     1      -3.380  -9.516  10.522  0.00  0.00    +0.013 C 
ATOM     19  C   UNL     1      -3.431 -12.031  10.767  0.00  0.00    +0.013 C 
ATOM     20  C   UNL     1      -4.384  -9.608   9.375  0.00  0.00    +0.001 C 
ATOM     21  C   UNL     1      -4.431 -12.121   9.617  0.00  0.00    +0.001 C 
ATOM     22  C   UNL     1      -4.286 -10.948   8.652  0.00  0.00    +0.000 C 
ENDBRANCH  17  14
BRANCH   8  12
ATOM     12  C   UNL     1      -5.319 -10.236  15.049  0.00  0.00    +0.020 C 
BRANCH  12  16
ATOM     16  C   UNL     1      -6.830 -10.373  15.181  0.00  0.00    +0.085 C 
BRANCH  16   6
ATOM      6  N   UNL     1      -7.459 -10.218  13.870  0.00  0.00    -0.299 NA
ATOM      7  N   UNL     1      -7.708 -10.541  11.043  0.00  0.00    -0.327 N 
ATOM     23  C   UNL     1      -7.787 -11.530  13.298  0.00  0.00    +0.103 C 
ATOM     24  C   UNL     1      -6.574  -9.482  12.959  0.00  0.00    +0.103 C 
ATOM     25  C   UNL     1      -8.496 -11.380  11.949  0.00  0.00    +0.120 C 
ATOM     26  C   UNL     1      -7.245  -9.264  11.600  0.00  0.00    +0.120 C 
BRANCH   7  28
ATOM      1  F   UNL     1      -8.569 -10.839   5.590  0.00  0.00    -0.205 F 
ATOM     28  C   UNL     1      -7.925 -10.616   9.663  0.00  0.00    +0.030 A 
ATOM     29  C   UNL     1      -8.061 -11.859   9.045  0.00  0.00    +0.026 A 
ATOM     30  C   UNL     1      -8.005  -9.448   8.905  0.00  0.00    +0.026 A 
ATOM     31  C   UNL     1      -8.279 -11.934   7.669  0.00  0.00    +0.040 A 
ATOM     32  C   UNL     1      -8.223  -9.523   7.528  0.00  0.00    +0.040 A 
ATOM     33  C   UNL     1      -8.359 -10.767   6.911  0.00  0.00    +0.124 A 
ENDBRANCH   7  28
ENDBRANCH  16   6
ENDBRANCH  12  16
ENDBRANCH   8  12
BRANCH   9  15
ATOM     15  C   UNL     1      -4.217 -11.018  17.784  0.00  0.00    +0.124 C 
BRANCH  15  27
ATOM      4  O   UNL     1      -3.331 -12.145  19.756  0.00  0.00    -0.251 OA
ATOM     27  C   UNL     1      -4.173 -12.052  18.875  0.00  0.00    +0.305 C 
BRANCH  27   3
ATOM      3  O   UNL     1      -5.228 -12.898  18.747  0.00  0.00    -0.481 OA
ATOM     34  H   UNL     1      -4.945 -13.838  18.738  0.00  0.00    +0.295 HD
ENDBRANCH  27   3
ENDBRANCH  15  27
ENDBRANCH   9  15
TORSDOF 8
ENDMDL
MODEL 4
REMARK VINA RESULT:      -6.5     29.240     32.482
REMARK  Name = 28959933
REMARK  8 active torsions:
REMARK  status: ('A' for Active; 'I' for Inactive)
REMARK    1  A    between atoms: O_3  and  C_27
REMARK    2  A    between atoms: N_6  and  C_16
REMARK    3  A    between atoms: N_7  and  C_28
REMARK    4  A    between atoms: C_8  and  C_12
REMARK    5  A    between atoms: C_9  and  C_15
REMARK    6  A    between atoms: C_12  and  C_16
REMARK    7  A    between atoms: C_14  and  C_17
REMARK    8  A    between atoms: C_15  and  C_27
REMARK                            x       y       z     vdW  Elec       q    Type
REMARK                         _______ _______ _______ _____ _____    ______ ____
ROOT
ATOM      2  O   UNL     1      -7.087 -12.020  20.356  0.00  0.00    -0.275 OA
ATOM      5  N   UNL     1      -8.969 -11.905  18.998  0.00  0.00    -0.301 N 
ATOM      8  C   UNL     1     -10.594 -10.627  17.621  0.00  0.00    +0.011 C 
ATOM      9  C   UNL     1     -11.613 -10.741  18.784  0.00  0.00    +0.006 C 
ATOM     10  C   UNL     1      -9.602 -11.803  17.678  0.00  0.00    +0.111 C 
ATOM     11  C   UNL     1     -10.907 -10.898  20.141  0.00  0.00    +0.023 C 
ATOM     13  C   UNL     1      -9.903 -12.048  20.115  0.00  0.00    +0.108 C 
ATOM     17  C   UNL     1      -7.595 -11.905  19.238  0.00  0.00    +0.219 C 
ENDROOT
BRANCH  17  14
ATOM     14  C   UNL     1      -6.705 -11.753  18.043  0.00  0.00    +0.075 C 
ATOM     18  C   UNL     1      -6.235 -10.303  17.926  0.00  0.00    +0.013 C 
ATOM     19  C   UNL     1      -5.523 -12.716  18.168  0.00  0.00    +0.013 C 
ATOM     20  C   UNL     1      -5.242 -10.126  16.779  0.00  0.00    +0.001 C 
ATOM     21  C   UNL     1      -4.529 -12.536  17.024  0.00  0.00    +0.001 C 
ATOM     22  C   UNL     1      -4.064 -11.087  16.906  0.00  0.00    +0.000 C 
ENDBRANCH  17  14
BRANCH   8  12
ATOM     12  C   UNL     1      -9.836  -9.293  17.585  0.00  0.00    +0.020 C 
BRANCH  12  16
ATOM     16  C   UNL     1      -9.586  -8.849  16.151  0.00  0.00    +0.085 C 
BRANCH  16   6
ATOM      6  N   UNL     1     -10.724  -8.068  15.668  0.00  0.00    -0.299 NA
ATOM      7  N   UNL     1     -12.053  -6.116  14.061  0.00  0.00    -0.327 N 
ATOM     23  C   UNL     1     -10.941  -8.308  14.236  0.00  0.00    +0.103 C 
ATOM     24  C   UNL     1     -10.506  -6.637  15.908  0.00  0.00    +0.103 C 
ATOM     25  C   UNL     1     -12.165  -7.539  13.729  0.00  0.00    +0.120 C 
ATOM     26  C   UNL     1     -11.715  -5.814  15.458  0.00  0.00    +0.120 C 
BRANCH   7  28
ATOM      1  F   UNL     1     -15.025  -2.400  11.247  0.00  0.00    -0.205 F 
ATOM     28  C   UNL     1     -12.805  -5.176  13.348  0.00  0.00    +0.030 A 
ATOM     29  C   UNL     1     -14.167  -5.025  13.614  0.00  0.00    +0.026 A 
ATOM     30  C   UNL     1     -12.194  -4.389  12.371  0.00  0.00    +0.026 A 
ATOM     31  C   UNL     1     -14.916  -4.087  12.904  0.00  0.00    +0.040 A 
ATOM     32  C   UNL     1     -12.945  -3.451  11.661  0.00  0.00    +0.040 A 
ATOM     33  C   UNL     1     -14.306  -3.301  11.928  0.00  0.00    +0.124 A 
ENDBRANCH   7  28
ENDBRANCH  16   6
ENDBRANCH  12  16
ENDBRANCH   8  12
BRANCH   9  15
ATOM     15  C   UNL     1     -12.609  -9.583  18.825  0.00  0.00    +0.124 C 
BRANCH  15  27
ATOM      4  O   UNL     1     -14.513 -10.550  17.649  0.00  0.00    -0.251 OA
ATOM     27  C   UNL     1     -13.640  -9.700  17.737  0.00  0.00    +0.305 C 
BRANCH  27   3
ATOM      3  O   UNL     1     -13.466  -8.701  16.832  0.00  0.00    -0.481 OA
ATOM     34  H   UNL     1     -12.756  -8.081  17.104  0.00  0.00    +0.295 HD
ENDBRANCH  27   3
ENDBRANCH  15  27
ENDBRANCH   9  15
TORSDOF 8
ENDMDL
MODEL 5
REMARK VINA RESULT:      -6.4     27.396     30.606
REMARK  Name = 28959933
REMARK  8 active torsions:
REMARK  status: ('A' for Active; 'I' for Inactive)
REMARK    1  A    between atoms: O_3  and  C_27
REMARK    2  A    between atoms: N_6  and  C_16
REMARK    3  A    between atoms: N_7  and  C_28
REMARK    4  A    between atoms: C_8  and  C_12
REMARK    5  A    between atoms: C_9  and  C_15
REMARK    6  A    between atoms: C_12  and  C_16
REMARK    7  A    between atoms: C_14  and  C_17
REMARK    8  A    between atoms: C_15  and  C_27
REMARK                            x       y       z     vdW  Elec       q    Type
REMARK                         _______ _______ _______ _____ _____    ______ ____
ROOT
ATOM      2  O   UNL     1      -3.364 -11.994  18.628  0.00  0.00    -0.275 OA
ATOM      5  N   UNL     1      -3.575 -10.821  16.634  0.00  0.00    -0.301 N 
ATOM      8  C   UNL     1      -4.057 -10.722  14.199  0.00  0.00    +0.011 C 
ATOM      9  C   UNL     1      -2.533 -10.612  13.939  0.00  0.00    +0.006 C 
ATOM     10  C   UNL     1      -4.390 -10.173  15.598  0.00  0.00    +0.111 C 
ATOM     11  C   UNL     1      -1.718 -11.258  15.072  0.00  0.00    +0.023 C 
ATOM     13  C   UNL     1      -2.130 -10.707  16.435  0.00  0.00    +0.108 C 
ATOM     17  C   UNL     1      -4.071 -11.481  17.757  0.00  0.00    +0.219 C 
ENDROOT
BRANCH  17  14
ATOM     14  C   UNL     1      -5.562 -11.557  17.887  0.00  0.00    +0.075 C 
ATOM     18  C   UNL     1      -6.013 -13.017  17.851  0.00  0.00    +0.013 C 
ATOM     19  C   UNL     1      -5.990 -10.870  19.185  0.00  0.00    +0.013 C 
ATOM     20  C   UNL     1      -7.516 -13.145  18.084  0.00  0.00    +0.001 C 
ATOM     21  C   UNL     1      -7.493 -11.002  19.420  0.00  0.00    +0.001 C 
ATOM     22  C   UNL     1      -7.943 -12.459  19.380  0.00  0.00    +0.000 C 
ENDBRANCH  17  14
BRANCH   8  12
ATOM     12  C   UNL     1      -4.616 -12.141  14.037  0.00  0.00    +0.020 C 
BRANCH  12  16
ATOM     16  C   UNL     1      -5.967 -12.116  13.335  0.00  0.00    +0.085 C 
BRANCH  16   6
ATOM      6  N   UNL     1      -5.912 -11.219  12.183  0.00  0.00    -0.299 NA
ATOM      7  N   UNL     1      -6.946  -9.807   9.925  0.00  0.00    -0.327 N 
ATOM     23  C   UNL     1      -6.822 -10.083  12.370  0.00  0.00    +0.103 C 
ATOM     24  C   UNL     1      -6.259 -11.940  10.952  0.00  0.00    +0.103 C 
ATOM     25  C   UNL     1      -6.733  -9.106  11.194  0.00  0.00    +0.120 C 
ATOM     26  C   UNL     1      -6.149 -11.024   9.730  0.00  0.00    +0.120 C 
BRANCH   7  28
ATOM      1  F   UNL     1      -8.477  -6.959   5.441  0.00  0.00    -0.205 F 
ATOM     28  C   UNL     1      -7.333  -9.085   8.791  0.00  0.00    +0.030 A 
ATOM     29  C   UNL     1      -7.014  -9.562   7.518  0.00  0.00    +0.026 A 
ATOM     30  C   UNL     1      -8.038  -7.890   8.930  0.00  0.00    +0.026 A 
ATOM     31  C   UNL     1      -7.401  -8.843   6.388  0.00  0.00    +0.040 A 
ATOM     32  C   UNL     1      -8.424  -7.171   7.798  0.00  0.00    +0.040 A 
ATOM     33  C   UNL     1      -8.105  -7.648   6.527  0.00  0.00    +0.124 A 
ENDBRANCH   7  28
ENDBRANCH  16   6
ENDBRANCH  12  16
ENDBRANCH   8  12
BRANCH   9  15
ATOM     15  C   UNL     1      -2.113 -11.178  12.583  0.00  0.00    +0.124 C 
BRANCH  15  27
ATOM      4  O   UNL     1      -1.076  -9.364  11.326  0.00  0.00    -0.251 OA
ATOM     27  C   UNL     1      -2.027 -10.102  11.536  0.00  0.00    +0.305 C 
BRANCH  27   3
ATOM      3  O   UNL     1      -3.186 -10.058  10.829  0.00  0.00    -0.481 OA
ATOM     34  H   UNL     1      -3.876 -10.636  11.220  0.00  0.00    +0.295 HD
ENDBRANCH  27   3
ENDBRANCH  15  27
ENDBRANCH   9  15
TORSDOF 8
ENDMDL
MODEL 6
REMARK VINA RESULT:      -6.3     27.980     30.318
REMARK  Name = 28959933
REMARK  8 active torsions:
REMARK  status: ('A' for Active; 'I' for Inactive)
REMARK    1  A    between atoms: O_3  and  C_27
REMARK    2  A    between atoms: N_6  and  C_16
REMARK    3  A    between atoms: N_7  and  C_28
REMARK    4  A    between atoms: C_8  and  C_12
REMARK    5  A    between atoms: C_9  and  C_15
REMARK    6  A    between atoms: C_12  and  C_16
REMARK    7  A    between atoms: C_14  and  C_17
REMARK    8  A    between atoms: C_15  and  C_27
REMARK                            x       y       z     vdW  Elec       q    Type
REMARK                         _______ _______ _______ _____ _____    ______ ____
ROOT
ATOM      2  O   UNL     1      -2.398 -10.963  16.716  0.00  0.00    -0.275 OA
ATOM      5  N   UNL     1      -4.574 -11.749  16.927  0.00  0.00    -0.301 N 
ATOM      8  C   UNL     1      -7.033 -11.444  16.751  0.00  0.00    +0.011 C 
ATOM      9  C   UNL     1      -7.088 -11.294  18.293  0.00  0.00    +0.006 C 
ATOM     10  C   UNL     1      -5.811 -12.291  16.351  0.00  0.00    +0.111 C 
ATOM     11  C   UNL     1      -5.756 -10.773  18.858  0.00  0.00    +0.023 C 
ATOM     13  C   UNL     1      -4.581 -11.626  18.384  0.00  0.00    +0.108 C 
ATOM     17  C   UNL     1      -3.436 -11.391  16.205  0.00  0.00    +0.219 C 
ENDROOT
BRANCH  17  14
ATOM     14  C   UNL     1      -3.509 -11.543  14.717  0.00  0.00    +0.075 C 
ATOM     18  C   UNL     1      -2.807 -10.367  14.038  0.00  0.00    +0.013 C 
ATOM     19  C   UNL     1      -2.879 -12.878  14.316  0.00  0.00    +0.013 C 
ATOM     20  C   UNL     1      -2.769 -10.537  12.522  0.00  0.00    +0.001 C 
ATOM     21  C   UNL     1      -2.837 -13.046  12.799  0.00  0.00    +0.001 C 
ATOM     22  C   UNL     1      -2.140 -11.869  12.122  0.00  0.00    +0.000 C 
ENDBRANCH  17  14
BRANCH   8  12
ATOM     12  C   UNL     1      -7.026 -10.109  15.995  0.00  0.00    +0.020 C 
BRANCH  12  16
ATOM     16  C   UNL     1      -8.284  -9.957  15.150  0.00  0.00    +0.085 C 
BRANCH  16   6
ATOM      6  N   UNL     1      -7.922  -9.834  13.739  0.00  0.00    -0.299 NA
ATOM      7  N   UNL     1      -6.545 -10.516  11.331  0.00  0.00    -0.327 N 
ATOM     23  C   UNL     1      -8.262 -11.062  13.011  0.00  0.00    +0.103 C 
ATOM     24  C   UNL     1      -6.488  -9.550  13.598  0.00  0.00    +0.103 C 
ATOM     25  C   UNL     1      -7.939 -10.926  11.520  0.00  0.00    +0.120 C 
ATOM     26  C   UNL     1      -6.108  -9.362  12.128  0.00  0.00    +0.120 C 
BRANCH   7  28
ATOM      1  F   UNL     1      -4.061 -11.414   6.475  0.00  0.00    -0.205 F 
ATOM     28  C   UNL     1      -5.916 -10.742  10.102  0.00  0.00    +0.030 A 
ATOM     29  C   UNL     1      -5.196 -11.919   9.894  0.00  0.00    +0.026 A 
ATOM     30  C   UNL     1      -6.008  -9.792   9.085  0.00  0.00    +0.026 A 
ATOM     31  C   UNL     1      -4.570 -12.146   8.668  0.00  0.00    +0.040 A 
ATOM     32  C   UNL     1      -5.381 -10.019   7.859  0.00  0.00    +0.040 A 
ATOM     33  C   UNL     1      -4.661 -11.196   7.652  0.00  0.00    +0.124 A 
ENDBRANCH   7  28
ENDBRANCH  16   6
ENDBRANCH  12  16
ENDBRANCH   8  12
BRANCH   9  15
ATOM     15  C   UNL     1      -8.252 -10.427  18.771  0.00  0.00    +0.124 C 
BRANCH  15  27
ATOM      4  O   UNL     1      -9.281 -12.390  19.787  0.00  0.00    -0.251 OA
ATOM     27  C   UNL     1      -9.150 -11.177  19.715  0.00  0.00    +0.305 C 
BRANCH  27   3
ATOM      3  O   UNL     1      -9.820 -10.298  20.505  0.00  0.00    -0.481 OA
ATOM     34  H   UNL     1     -10.777 -10.268  20.290  0.00  0.00    +0.295 HD
ENDBRANCH  27   3
ENDBRANCH  15  27
ENDBRANCH   9  15
TORSDOF 8
ENDMDL
MODEL 7
REMARK VINA RESULT:      -6.3     16.579     20.795
REMARK  Name = 28959933
REMARK  8 active torsions:
REMARK  status: ('A' for Active; 'I' for Inactive)
REMARK    1  A    between atoms: O_3  and  C_27
REMARK    2  A    between atoms: N_6  and  C_16
REMARK    3  A    between atoms: N_7  and  C_28
REMARK    4  A    between atoms: C_8  and  C_12
REMARK    5  A    between atoms: C_9  and  C_15
REMARK    6  A    between atoms: C_12  and  C_16
REMARK    7  A    between atoms: C_14  and  C_17
REMARK    8  A    between atoms: C_15  and  C_27
REMARK                            x       y       z     vdW  Elec       q    Type
REMARK                         _______ _______ _______ _____ _____    ______ ____
ROOT
ATOM      2  O   UNL     1      10.795   4.370  -0.229  0.00  0.00    -0.275 OA
ATOM      5  N   UNL     1      13.014   4.150   0.423  0.00  0.00    -0.301 N 
ATOM      8  C   UNL     1      15.266   5.102   0.862  0.00  0.00    +0.011 C 
ATOM      9  C   UNL     1      15.746   4.490  -0.479  0.00  0.00    +0.006 C 
ATOM     10  C   UNL     1      14.086   4.284   1.417  0.00  0.00    +0.111 C 
ATOM     11  C   UNL     1      14.583   4.320  -1.471  0.00  0.00    +0.023 C 
ATOM     13  C   UNL     1      13.427   3.545  -0.843  0.00  0.00    +0.108 C 
ATOM     17  C   UNL     1      11.683   4.519   0.614  0.00  0.00    +0.219 C 
ENDROOT
BRANCH  17  14
ATOM     14  C   UNL     1      11.340   5.134   1.937  0.00  0.00    +0.075 C 
ATOM     18  C   UNL     1      10.173   6.107   1.771  0.00  0.00    +0.013 C 
ATOM     19  C   UNL     1      11.008   4.025   2.937  0.00  0.00    +0.013 C 
ATOM     20  C   UNL     1       9.725   6.678   3.114  0.00  0.00    +0.001 C 
ATOM     21  C   UNL     1      10.556   4.597   4.278  0.00  0.00    +0.001 C 
ATOM     22  C   UNL     1       9.394   5.571   4.111  0.00  0.00    +0.000 C 
ENDBRANCH  17  14
BRANCH   8  12
ATOM     12  C   UNL     1      14.889   6.586   0.771  0.00  0.00    +0.020 C 
BRANCH  12  16
ATOM     16  C   UNL     1      15.739   7.422   1.718  0.00  0.00    +0.085 C 
BRANCH  16   6
ATOM      6  N   UNL     1      14.912   7.926   2.813  0.00  0.00    -0.299 NA
ATOM      7  N   UNL     1      12.802   7.846   4.738  0.00  0.00    -0.327 N 
ATOM     23  C   UNL     1      15.002   7.038   3.978  0.00  0.00    +0.103 C 
ATOM     24  C   UNL     1      13.512   8.049   2.386  0.00  0.00    +0.103 C 
ATOM     25  C   UNL     1      14.184   7.584   5.151  0.00  0.00    +0.120 C 
ATOM     26  C   UNL     1      12.646   8.630   3.506  0.00  0.00    +0.120 C 
BRANCH   7  28
ATOM      1  F   UNL     1       8.816   8.176   8.554  0.00  0.00    -0.205 F 
ATOM     28  C   UNL     1      11.793   7.930   5.703  0.00  0.00    +0.030 A 
ATOM     29  C   UNL     1      11.685   6.945   6.686  0.00  0.00    +0.026 A 
ATOM     30  C   UNL     1      10.895   8.997   5.683  0.00  0.00    +0.026 A 
ATOM     31  C   UNL     1      10.680   7.029   7.649  0.00  0.00    +0.040 A 
ATOM     32  C   UNL     1       9.888   9.080   6.646  0.00  0.00    +0.040 A 
ATOM     33  C   UNL     1       9.781   8.095   7.629  0.00  0.00    +0.124 A 
ENDBRANCH   7  28
ENDBRANCH  16   6
ENDBRANCH  12  16
ENDBRANCH   8  12
BRANCH   9  15
ATOM     15  C   UNL     1      16.891   5.272  -1.120  0.00  0.00    +0.124 C 
BRANCH  15  27
ATOM      4  O   UNL     1      17.723   4.458  -3.263  0.00  0.00    -0.251 OA
ATOM     27  C   UNL     1      17.706   4.407  -2.042  0.00  0.00    +0.305 C 
BRANCH  27   3
ATOM      3  O   UNL     1      18.446   3.531  -1.313  0.00  0.00    -0.481 OA
ATOM     34  H   UNL     1      18.117   3.452  -0.392  0.00  0.00    +0.295 HD
ENDBRANCH  27   3
ENDBRANCH  15  27
ENDBRANCH   9  15
TORSDOF 8
ENDMDL
MODEL 8
REMARK VINA RESULT:      -6.2     16.074     18.782
REMARK  Name = 28959933
REMARK  8 active torsions:
REMARK  status: ('A' for Active; 'I' for Inactive)
REMARK    1  A    between atoms: O_3  and  C_27
REMARK    2  A    between atoms: N_6  and  C_16
REMARK    3  A    between atoms: N_7  and  C_28
REMARK    4  A    between atoms: C_8  and  C_12
REMARK    5  A    between atoms: C_9  and  C_15
REMARK    6  A    between atoms: C_12  and  C_16
REMARK    7  A    between atoms: C_14  and  C_17
REMARK    8  A    between atoms: C_15  and  C_27
REMARK                            x       y       z     vdW  Elec       q    Type
REMARK                         _______ _______ _______ _____ _____    ______ ____
ROOT
ATOM      2  O   UNL     1      12.820   2.522   1.714  0.00  0.00    -0.275 OA
ATOM      5  N   UNL     1      11.561   4.460   1.949  0.00  0.00    -0.301 N 
ATOM      8  C   UNL     1      11.212   6.738   2.876  0.00  0.00    +0.011 C 
ATOM      9  C   UNL     1      10.209   6.131   3.891  0.00  0.00    +0.006 C 
ATOM     10  C   UNL     1      11.273   5.860   1.613  0.00  0.00    +0.111 C 
ATOM     11  C   UNL     1      10.517   4.651   4.174  0.00  0.00    +0.023 C 
ATOM     13  C   UNL     1      10.613   3.847   2.880  0.00  0.00    +0.108 C 
ATOM     17  C   UNL     1      12.616   3.706   1.436  0.00  0.00    +0.219 C 
ENDROOT
BRANCH  17  14
ATOM     14  C   UNL     1      13.544   4.406   0.491  0.00  0.00    +0.075 C 
ATOM     18  C   UNL     1      14.965   4.397   1.055  0.00  0.00    +0.013 C 
ATOM     19  C   UNL     1      13.480   3.724  -0.877  0.00  0.00    +0.013 C 
ATOM     20  C   UNL     1      15.961   5.010   0.074  0.00  0.00    +0.001 C 
ATOM     21  C   UNL     1      14.479   4.334  -1.856  0.00  0.00    +0.001 C 
ATOM     22  C   UNL     1      15.896   4.328  -1.290  0.00  0.00    +0.000 C 
ENDBRANCH  17  14
BRANCH   8  12
ATOM     12  C   UNL     1      12.620   6.953   3.445  0.00  0.00    +0.020 C 
BRANCH  12  16
ATOM     16  C   UNL     1      13.534   7.590   2.407  0.00  0.00    +0.085 C 
BRANCH  16   6
ATOM      6  N   UNL     1      14.716   8.148   3.061  0.00  0.00    -0.299 NA
ATOM      7  N   UNL     1      17.333   8.095   4.205  0.00  0.00    -0.327 N 
ATOM     23  C   UNL     1      15.898   7.998   2.205  0.00  0.00    +0.103 C 
ATOM     24  C   UNL     1      14.947   7.491   4.353  0.00  0.00    +0.103 C 
ATOM     25  C   UNL     1      17.133   8.628   2.855  0.00  0.00    +0.120 C 
ATOM     26  C   UNL     1      16.149   8.106   5.074  0.00  0.00    +0.120 C 
BRANCH   7  28
ATOM      1  F   UNL     1      22.308   8.453   6.589  0.00  0.00    -0.205 F 
ATOM     28  C   UNL     1      18.592   8.186   4.808  0.00  0.00    +0.030 A 
ATOM     29  C   UNL     1      18.714   8.720   6.091  0.00  0.00    +0.026 A 
ATOM     30  C   UNL     1      19.725   7.743   4.126  0.00  0.00    +0.026 A 
ATOM     31  C   UNL     1      19.969   8.810   6.692  0.00  0.00    +0.040 A 
ATOM     32  C   UNL     1      20.981   7.833   4.729  0.00  0.00    +0.040 A 
ATOM     33  C   UNL     1      21.102   8.367   6.012  0.00  0.00    +0.124 A 
ENDBRANCH   7  28
ENDBRANCH  16   6
ENDBRANCH  12  16
ENDBRANCH   8  12
BRANCH   9  15
ATOM     15  C   UNL     1      10.122   6.923   5.195  0.00  0.00    +0.124 C 
BRANCH  15  27
ATOM      4  O   UNL     1       9.148   5.916   7.191  0.00  0.00    -0.251 OA
ATOM     27  C   UNL     1       9.019   6.411   6.081  0.00  0.00    +0.305 C 
BRANCH  27   3
ATOM      3  O   UNL     1       7.821   6.578   5.463  0.00  0.00    -0.481 OA
ATOM     34  H   UNL     1       7.323   5.735   5.396  0.00  0.00    +0.295 HD
ENDBRANCH  27   3
ENDBRANCH  15  27
ENDBRANCH   9  15
TORSDOF 8
ENDMDL
MODEL 9
REMARK VINA RESULT:      -6.0     14.592     16.569
REMARK  Name = 28959933
REMARK  8 active torsions:
REMARK  status: ('A' for Active; 'I' for Inactive)
REMARK    1  A    between atoms: O_3  and  C_27
REMARK    2  A    between atoms: N_6  and  C_16
REMARK    3  A    between atoms: N_7  and  C_28
REMARK    4  A    between atoms: C_8  and  C_12
REMARK    5  A    between atoms: C_9  and  C_15
REMARK    6  A    between atoms: C_12  and  C_16
REMARK    7  A    between atoms: C_14  and  C_17
REMARK    8  A    between atoms: C_15  and  C_27
REMARK                            x       y       z     vdW  Elec       q    Type
REMARK                         _______ _______ _______ _____ _____    ______ ____
ROOT
ATOM      2  O   UNL     1       8.627   7.504   2.864  0.00  0.00    -0.275 OA
ATOM      5  N   UNL     1       8.691   7.851   5.160  0.00  0.00    -0.301 N 
ATOM      8  C   UNL     1       9.917   7.975   7.317  0.00  0.00    +0.011 C 
ATOM      9  C   UNL     1       9.335   6.586   7.685  0.00  0.00    +0.006 C 
ATOM     10  C   UNL     1       8.977   8.691   6.330  0.00  0.00    +0.111 C 
ATOM     11  C   UNL     1       9.003   5.762   6.430  0.00  0.00    +0.023 C 
ATOM     13  C   UNL     1       8.109   6.546   5.472  0.00  0.00    +0.108 C 
ATOM     17  C   UNL     1       8.901   8.218   3.831  0.00  0.00    +0.219 C 
ENDROOT
BRANCH  17  14
ATOM     14  C   UNL     1       9.502   9.570   3.595  0.00  0.00    +0.075 C 
ATOM     18  C   UNL     1      10.979   9.425   3.228  0.00  0.00    +0.013 C 
ATOM     19  C   UNL     1       8.718  10.284   2.493  0.00  0.00    +0.013 C 
ATOM     20  C   UNL     1      11.604  10.774   2.878  0.00  0.00    +0.001 C 
ATOM     21  C   UNL     1       9.346  11.630   2.140  0.00  0.00    +0.001 C 
ATOM     22  C   UNL     1      10.821  11.486   1.778  0.00  0.00    +0.000 C 
ENDBRANCH  17  14
BRANCH   8  12
ATOM     12  C   UNL     1      11.343   7.924   6.752  0.00  0.00    +0.020 C 
BRANCH  12  16
ATOM     16  C   UNL     1      12.005   9.292   6.824  0.00  0.00    +0.085 C 
BRANCH  16   6
ATOM      6  N   UNL     1      13.457   9.138   6.900  0.00  0.00    -0.299 NA
ATOM      7  N   UNL     1      16.112   8.905   5.871  0.00  0.00    -0.327 N 
ATOM     23  C   UNL     1      14.130  10.302   6.311  0.00  0.00    +0.103 C 
ATOM     24  C   UNL     1      13.881   7.913   6.211  0.00  0.00    +0.103 C 
ATOM     25  C   UNL     1      15.651  10.178   6.433  0.00  0.00    +0.120 C 
ATOM     26  C   UNL     1      15.393   7.711   6.332  0.00  0.00    +0.120 C 
BRANCH   7  28
ATOM      1  F   UNL     1      21.393   8.334   4.340  0.00  0.00    -0.205 F 
ATOM     28  C   UNL     1      17.448   8.760   5.484  0.00  0.00    +0.030 A 
ATOM     29  C   UNL     1      17.759   8.198   4.245  0.00  0.00    +0.026 A 
ATOM     30  C   UNL     1      18.471   9.177   6.337  0.00  0.00    +0.026 A 
ATOM     31  C   UNL     1      19.091   8.055   3.860  0.00  0.00    +0.040 A 
ATOM     32  C   UNL     1      19.804   9.033   5.950  0.00  0.00    +0.040 A 
ATOM     33  C   UNL     1      20.113   8.471   4.711  0.00  0.00    +0.124 A 
ENDBRANCH   7  28
ENDBRANCH  16   6
ENDBRANCH  12  16
ENDBRANCH   8  12
BRANCH   9  15
ATOM     15  C   UNL     1      10.234   5.790   8.630  0.00  0.00    +0.124 C 
BRANCH  15  27
ATOM      4  O   UNL     1       8.582   4.916  10.195  0.00  0.00    -0.251 OA
ATOM     27  C   UNL     1       9.462   4.731   9.369  0.00  0.00    +0.305 C 
BRANCH  27   3
ATOM      3  O   UNL     1       9.888   3.500   8.981  0.00  0.00    -0.481 OA
ATOM     34  H   UNL     1       9.139   2.883   8.837  0.00  0.00    +0.295 HD
ENDBRANCH  27   3
ENDBRANCH  15  27
ENDBRANCH   9  15
TORSDOF 8
ENDMDL
MODEL 10
REMARK VINA RESULT:      -6.0     28.278     30.942
REMARK  Name = 28959933
REMARK  8 active torsions:
REMARK  status: ('A' for Active; 'I' for Inactive)
REMARK    1  A    between atoms: O_3  and  C_27
REMARK    2  A    between atoms: N_6  and  C_16
REMARK    3  A    between atoms: N_7  and  C_28
REMARK    4  A    between atoms: C_8  and  C_12
REMARK    5  A    between atoms: C_9  and  C_15
REMARK    6  A    between atoms: C_12  and  C_16
REMARK    7  A    between atoms: C_14  and  C_17
REMARK    8  A    between atoms: C_15  and  C_27
REMARK                            x       y       z     vdW  Elec       q    Type
REMARK                         _______ _______ _______ _____ _____    ______ ____
ROOT
ATOM      2  O   UNL     1      -8.465   9.625  35.224  0.00  0.00    -0.275 OA
ATOM      5  N   UNL     1     -10.579  10.263  34.501  0.00  0.00    -0.301 N 
ATOM      8  C   UNL     1     -12.818   9.734  33.563  0.00  0.00    +0.011 C 
ATOM      9  C   UNL     1     -12.337  10.292  32.198  0.00  0.00    +0.006 C 
ATOM     10  C   UNL     1     -12.026  10.396  34.706  0.00  0.00    +0.111 C 
ATOM     11  C   UNL     1     -10.810  10.179  32.048  0.00  0.00    +0.023 C 
ATOM     13  C   UNL     1     -10.088  10.809  33.236  0.00  0.00    +0.108 C 
ATOM     17  C   UNL     1      -9.682   9.701  35.409  0.00  0.00    +0.219 C 
ENDROOT
BRANCH  17  14
ATOM     14  C   UNL     1     -10.263   9.161  36.680  0.00  0.00    +0.075 C 
ATOM     18  C   UNL     1      -9.604   7.827  37.028  0.00  0.00    +0.013 C 
ATOM     19  C   UNL     1     -10.074  10.189  37.797  0.00  0.00    +0.013 C 
ATOM     20  C   UNL     1     -10.095   7.293  38.372  0.00  0.00    +0.001 C 
ATOM     21  C   UNL     1     -10.561   9.653  39.141  0.00  0.00    +0.001 C 
ATOM     22  C   UNL     1      -9.905   8.319  39.486  0.00  0.00    +0.000 C 
ENDBRANCH  17  14
BRANCH   8  12
ATOM     12  C   UNL     1     -12.738   8.206  33.675  0.00  0.00    +0.020 C 
BRANCH  12  16
ATOM     16  C   UNL     1     -13.890   7.662  34.508  0.00  0.00    +0.085 C 
BRANCH  16   6
ATOM      6  N   UNL     1     -14.404   6.435  33.902  0.00  0.00    -0.299 NA
ATOM      7  N   UNL     1     -14.230   3.894  32.609  0.00  0.00    -0.327 N 
ATOM     23  C   UNL     1     -13.926   5.258  34.638  0.00  0.00    +0.103 C 
ATOM     24  C   UNL     1     -13.995   6.345  32.495  0.00  0.00    +0.103 C 
ATOM     25  C   UNL     1     -14.502   3.968  34.047  0.00  0.00    +0.120 C 
ATOM     26  C   UNL     1     -14.575   5.092  31.834  0.00  0.00    +0.120 C 
BRANCH   7  28
ATOM      1  F   UNL     1     -14.391  -0.998  30.038  0.00  0.00    -0.205 F 
ATOM     28  C   UNL     1     -14.270   2.656  31.958  0.00  0.00    +0.030 A 
ATOM     29  C   UNL     1     -14.875   1.562  32.578  0.00  0.00    +0.026 A 
ATOM     30  C   UNL     1     -13.705   2.515  30.691  0.00  0.00    +0.026 A 
ATOM     31  C   UNL     1     -14.916   0.328  31.928  0.00  0.00    +0.040 A 
ATOM     32  C   UNL     1     -13.746   1.280  30.042  0.00  0.00    +0.040 A 
ATOM     33  C   UNL     1     -14.351   0.187  30.662  0.00  0.00    +0.124 A 
ENDBRANCH   7  28
ENDBRANCH  16   6
ENDBRANCH  12  16
ENDBRANCH   8  12
BRANCH   9  15
ATOM     15  C   UNL     1     -13.045   9.651  31.005  0.00  0.00    +0.124 C 
BRANCH  15  27
ATOM      4  O   UNL     1     -13.953  10.490  28.904  0.00  0.00    -0.251 OA
ATOM     27  C   UNL     1     -13.554  10.687  30.041  0.00  0.00    +0.305 C 
BRANCH  27   3
ATOM      3  O   UNL     1     -13.510  11.915  30.623  0.00  0.00    -0.481 OA
ATOM     34  H   UNL     1     -14.383  12.363  30.596  0.00  0.00    +0.295 HD
ENDBRANCH  27   3
ENDBRANCH  15  27
ENDBRANCH   9  15
TORSDOF 8
ENDMDL
