MODEL 1
REMARK VINA RESULT:      -7.0      0.000      0.000
REMARK  Name = 45783686
REMARK  8 active torsions:
REMARK  status: ('A' for Active; 'I' for Inactive)
REMARK    1  A    between atoms: O_5  and  C_23
REMARK    2  A    between atoms: O_5  and  C_29
REMARK    3  A    between atoms: O_6  and  C_28
REMARK    4  A    between atoms: O_6  and  C_30
REMARK    5  A    between atoms: N_7  and  C_15
REMARK    6  A    between atoms: C_11  and  C_16
REMARK    7  A    between atoms: C_15  and  C_17
REMARK    8  A    between atoms: C_20  and  C_24
REMARK                            x       y       z     vdW  Elec       q    Type
REMARK                         _______ _______ _______ _____ _____    ______ ____
ROOT
ATOM      7  N   UNL     1      12.564   8.738  18.536  0.00  0.00    -0.287 NA
ATOM     11  C   UNL     1      13.367   7.541  18.216  0.00  0.00    +0.146 C 
ATOM     12  C   UNL     1      13.945   7.820  16.816  0.00  0.00    +0.030 C 
ATOM     13  C   UNL     1      13.364   9.166  16.408  0.00  0.00    +0.017 C 
ATOM     14  C   UNL     1      12.115   9.289  17.257  0.00  0.00    +0.085 C 
ENDROOT
BRANCH  11  16
ATOM      4  O   UNL     1      14.023   6.757  20.436  0.00  0.00    -0.336 OA
ATOM      8  N   UNL     1      15.734   7.451  19.169  0.00  0.00    -0.190 NA
ATOM      9  N   UNL     1      15.175   6.592  21.214  0.00  0.00    -0.056 NA
ATOM     16  C   UNL     1      14.441   7.267  19.248  0.00  0.00    +0.245 A 
ATOM     20  C   UNL     1      16.143   7.023  20.399  0.00  0.00    +0.204 A 
BRANCH  20  24
ATOM     10  N   UNL     1      19.300   8.046  22.075  0.00  0.00    -0.221 NA
ATOM     24  C   UNL     1      17.525   7.037  20.781  0.00  0.00    +0.041 A 
ATOM     25  C   UNL     1      18.420   6.106  20.265  0.00  0.00    +0.018 A 
ATOM     26  C   UNL     1      18.011   7.977  21.675  0.00  0.00    +0.126 A 
ATOM     27  C   UNL     1      19.754   6.144  20.653  0.00  0.00    +0.068 A 
ATOM     28  C   UNL     1      20.140   7.125  21.552  0.00  0.00    +0.214 A 
BRANCH  28   6
ATOM      6  O   UNL     1      21.451   7.183  21.950  0.00  0.00    -0.480 OA
ATOM     30  C   UNL     1      22.125   8.420  21.754  0.00  0.00    +0.279 C 
ENDBRANCH  28   6
ENDBRANCH  20  24
ENDBRANCH  11  16
BRANCH   7  15
ATOM     15  C   UNL     1      11.451   8.460  19.434  0.00  0.00    +0.120 C 
BRANCH  15  17
ATOM     17  C   UNL     1      11.551   9.250  20.712  0.00  0.00    -0.033 A 
ATOM     18  C   UNL     1      12.424  10.335  20.796  0.00  0.00    +0.008 A 
ATOM     19  C   UNL     1      10.768   8.898  21.812  0.00  0.00    +0.008 A 
ATOM     21  C   UNL     1      12.516  11.067  21.979  0.00  0.00    +0.046 A 
ATOM     22  C   UNL     1      10.859   9.631  22.996  0.00  0.00    +0.046 A 
ATOM     23  C   UNL     1      11.733  10.715  23.080  0.00  0.00    +0.130 A 
BRANCH  23   5
ATOM      5  O   UNL     1      11.822  11.430  24.234  0.00  0.00    -0.406 OA
BRANCH   5  29
ATOM      1  F   UNL     1      10.180  12.694  23.338  0.00  0.00    -0.133 F 
ATOM      2  F   UNL     1      10.458  12.755  25.505  0.00  0.00    -0.133 F 
ATOM      3  F   UNL     1      11.928  13.714  24.162  0.00  0.00    -0.133 F 
ATOM     29  C   UNL     1      11.105  12.657  24.324  0.00  0.00    +0.575 C 
ENDBRANCH   5  29
ENDBRANCH  23   5
ENDBRANCH  15  17
ENDBRANCH   7  15
TORSDOF 7
ENDMDL
MODEL 2
REMARK VINA RESULT:      -6.9      5.058      8.265
REMARK  Name = 45783686
REMARK  8 active torsions:
REMARK  status: ('A' for Active; 'I' for Inactive)
REMARK    1  A    between atoms: O_5  and  C_23
REMARK    2  A    between atoms: O_5  and  C_29
REMARK    3  A    between atoms: O_6  and  C_28
REMARK    4  A    between atoms: O_6  and  C_30
REMARK    5  A    between atoms: N_7  and  C_15
REMARK    6  A    between atoms: C_11  and  C_16
REMARK    7  A    between atoms: C_15  and  C_17
REMARK    8  A    between atoms: C_20  and  C_24
REMARK                            x       y       z     vdW  Elec       q    Type
REMARK                         _______ _______ _______ _____ _____    ______ ____
ROOT
ATOM      7  N   UNL     1      13.434   7.803  20.549  0.00  0.00    -0.287 NA
ATOM     11  C   UNL     1      12.379   8.026  19.542  0.00  0.00    +0.146 C 
ATOM     12  C   UNL     1      11.441   9.067  20.181  0.00  0.00    +0.030 C 
ATOM     13  C   UNL     1      12.016   9.321  21.567  0.00  0.00    +0.017 C 
ATOM     14  C   UNL     1      12.826   8.072  21.853  0.00  0.00    +0.085 C 
ENDROOT
BRANCH  11  16
ATOM      4  O   UNL     1      13.159   7.511  17.283  0.00  0.00    -0.336 OA
ATOM      8  N   UNL     1      13.236   9.688  17.803  0.00  0.00    -0.190 NA
ATOM      9  N   UNL     1      13.664   8.163  16.152  0.00  0.00    -0.056 NA
ATOM     16  C   UNL     1      12.934   8.481  18.208  0.00  0.00    +0.245 A 
ATOM     20  C   UNL     1      13.680   9.444  16.536  0.00  0.00    +0.204 A 
BRANCH  20  24
ATOM     10  N   UNL     1      13.716  11.947  13.787  0.00  0.00    -0.221 NA
ATOM     24  C   UNL     1      14.132  10.500  15.678  0.00  0.00    +0.041 A 
ATOM     25  C   UNL     1      15.374  11.098  15.872  0.00  0.00    +0.018 A 
ATOM     26  C   UNL     1      13.349  10.958  14.632  0.00  0.00    +0.126 A 
ATOM     27  C   UNL     1      15.786  12.119  15.024  0.00  0.00    +0.068 A 
ATOM     28  C   UNL     1      14.928  12.504  14.006  0.00  0.00    +0.214 A 
BRANCH  28   6
ATOM      6  O   UNL     1      15.312  13.509  13.157  0.00  0.00    -0.480 OA
ATOM     30  C   UNL     1      14.958  13.360  11.787  0.00  0.00    +0.279 C 
ENDBRANCH  28   6
ENDBRANCH  20  24
ENDBRANCH  11  16
BRANCH   7  15
ATOM     15  C   UNL     1      14.019   6.470  20.483  0.00  0.00    +0.120 C 
BRANCH  15  17
ATOM     17  C   UNL     1      15.522   6.519  20.419  0.00  0.00    -0.033 A 
ATOM     18  C   UNL     1      16.185   6.138  19.252  0.00  0.00    +0.008 A 
ATOM     19  C   UNL     1      16.253   6.948  21.527  0.00  0.00    +0.008 A 
ATOM     21  C   UNL     1      17.577   6.184  19.192  0.00  0.00    +0.046 A 
ATOM     22  C   UNL     1      17.647   6.995  21.468  0.00  0.00    +0.046 A 
ATOM     23  C   UNL     1      18.309   6.613  20.301  0.00  0.00    +0.130 A 
BRANCH  23   5
ATOM      5  O   UNL     1      19.667   6.660  20.243  0.00  0.00    -0.406 OA
BRANCH   5  29
ATOM      1  F   UNL     1      20.450   5.417  21.956  0.00  0.00    -0.133 F 
ATOM      2  F   UNL     1      19.789   4.377  20.151  0.00  0.00    -0.133 F 
ATOM      3  F   UNL     1      21.664   5.548  20.144  0.00  0.00    -0.133 F 
ATOM     29  C   UNL     1      20.398   5.493  20.607  0.00  0.00    +0.575 C 
ENDBRANCH   5  29
ENDBRANCH  23   5
ENDBRANCH  15  17
ENDBRANCH   7  15
TORSDOF 7
ENDMDL
MODEL 3
REMARK VINA RESULT:      -6.8     27.203     30.749
REMARK  Name = 45783686
REMARK  8 active torsions:
REMARK  status: ('A' for Active; 'I' for Inactive)
REMARK    1  A    between atoms: O_5  and  C_23
REMARK    2  A    between atoms: O_5  and  C_29
REMARK    3  A    between atoms: O_6  and  C_28
REMARK    4  A    between atoms: O_6  and  C_30
REMARK    5  A    between atoms: N_7  and  C_15
REMARK    6  A    between atoms: C_11  and  C_16
REMARK    7  A    between atoms: C_15  and  C_17
REMARK    8  A    between atoms: C_20  and  C_24
REMARK                            x       y       z     vdW  Elec       q    Type
REMARK                         _______ _______ _______ _____ _____    ______ ____
ROOT
ATOM      7  N   UNL     1     -16.571   5.184  22.520  0.00  0.00    -0.287 NA
ATOM     11  C   UNL     1     -17.640   4.649  23.387  0.00  0.00    +0.146 C 
ATOM     12  C   UNL     1     -18.660   4.030  22.415  0.00  0.00    +0.030 C 
ATOM     13  C   UNL     1     -18.110   4.319  21.025  0.00  0.00    +0.017 C 
ATOM     14  C   UNL     1     -17.202   5.513  21.241  0.00  0.00    +0.085 C 
ENDROOT
BRANCH  11  16
ATOM      4  O   UNL     1     -16.714   2.450  23.919  0.00  0.00    -0.336 OA
ATOM      8  N   UNL     1     -17.003   3.775  25.700  0.00  0.00    -0.190 NA
ATOM      9  N   UNL     1     -16.284   1.711  25.027  0.00  0.00    -0.056 NA
ATOM     16  C   UNL     1     -17.121   3.653  24.403  0.00  0.00    +0.245 A 
ATOM     20  C   UNL     1     -16.486   2.559  26.040  0.00  0.00    +0.204 A 
BRANCH  20  24
ATOM     10  N   UNL     1     -16.192   0.582  29.176  0.00  0.00    -0.221 NA
ATOM     24  C   UNL     1     -16.181   2.223  27.400  0.00  0.00    +0.041 A 
ATOM     25  C   UNL     1     -15.600   3.155  28.255  0.00  0.00    +0.018 A 
ATOM     26  C   UNL     1     -16.454   0.963  27.905  0.00  0.00    +0.126 A 
ATOM     27  C   UNL     1     -15.316   2.801  29.569  0.00  0.00    +0.068 A 
ATOM     28  C   UNL     1     -15.628   1.514  29.977  0.00  0.00    +0.214 A 
BRANCH  28   6
ATOM      6  O   UNL     1     -15.358   1.141  31.268  0.00  0.00    -0.480 OA
ATOM     30  C   UNL     1     -14.255   1.779  31.900  0.00  0.00    +0.279 C 
ENDBRANCH  28   6
ENDBRANCH  20  24
ENDBRANCH  11  16
BRANCH   7  15
ATOM     15  C   UNL     1     -15.880   6.329  23.100  0.00  0.00    +0.120 C 
BRANCH  15  17
ATOM     17  C   UNL     1     -14.656   6.704  22.309  0.00  0.00    -0.033 A 
ATOM     18  C   UNL     1     -14.466   8.025  21.899  0.00  0.00    +0.008 A 
ATOM     19  C   UNL     1     -13.709   5.732  21.986  0.00  0.00    +0.008 A 
ATOM     21  C   UNL     1     -13.332   8.373  21.167  0.00  0.00    +0.046 A 
ATOM     22  C   UNL     1     -12.573   6.080  21.253  0.00  0.00    +0.046 A 
ATOM     23  C   UNL     1     -12.385   7.400  20.844  0.00  0.00    +0.130 A 
BRANCH  23   5
ATOM      5  O   UNL     1     -11.278   7.740  20.130  0.00  0.00    -0.406 OA
BRANCH   5  29
ATOM      1  F   UNL     1     -10.474   8.416  18.132  0.00  0.00    -0.133 F 
ATOM      2  F   UNL     1     -10.816   6.279  18.431  0.00  0.00    -0.133 F 
ATOM      3  F   UNL     1     -12.524   7.665  18.213  0.00  0.00    -0.133 F 
ATOM     29  C   UNL     1     -11.285   7.511  18.725  0.00  0.00    +0.575 C 
ENDBRANCH   5  29
ENDBRANCH  23   5
ENDBRANCH  15  17
ENDBRANCH   7  15
TORSDOF 7
ENDMDL
MODEL 4
REMARK VINA RESULT:      -6.7     27.720     30.441
REMARK  Name = 45783686
REMARK  8 active torsions:
REMARK  status: ('A' for Active; 'I' for Inactive)
REMARK    1  A    between atoms: O_5  and  C_23
REMARK    2  A    between atoms: O_5  and  C_29
REMARK    3  A    between atoms: O_6  and  C_28
REMARK    4  A    between atoms: O_6  and  C_30
REMARK    5  A    between atoms: N_7  and  C_15
REMARK    6  A    between atoms: C_11  and  C_16
REMARK    7  A    between atoms: C_15  and  C_17
REMARK    8  A    between atoms: C_20  and  C_24
REMARK                            x       y       z     vdW  Elec       q    Type
REMARK                         _______ _______ _______ _____ _____    ______ ____
ROOT
ATOM      7  N   UNL     1     -13.821   6.813  33.567  0.00  0.00    -0.287 NA
ATOM     11  C   UNL     1     -13.738   8.287  33.539  0.00  0.00    +0.146 C 
ATOM     12  C   UNL     1     -13.086   8.669  34.880  0.00  0.00    +0.030 C 
ATOM     13  C   UNL     1     -12.894   7.351  35.617  0.00  0.00    +0.017 C 
ATOM     14  C   UNL     1     -13.914   6.431  34.976  0.00  0.00    +0.085 C 
ENDROOT
BRANCH  11  16
ATOM      4  O   UNL     1     -11.630   8.549  32.330  0.00  0.00    -0.336 OA
ATOM      8  N   UNL     1     -13.392   9.473  31.304  0.00  0.00    -0.190 NA
ATOM      9  N   UNL     1     -11.138   9.116  31.148  0.00  0.00    -0.056 NA
ATOM     16  C   UNL     1     -12.964   8.804  32.344  0.00  0.00    +0.245 A 
ATOM     20  C   UNL     1     -12.237   9.642  30.598  0.00  0.00    +0.204 A 
BRANCH  20  24
ATOM     10  N   UNL     1     -13.147  12.051  27.916  0.00  0.00    -0.221 NA
ATOM     24  C   UNL     1     -12.213  10.340  29.345  0.00  0.00    +0.041 A 
ATOM     25  C   UNL     1     -11.283  10.015  28.363  0.00  0.00    +0.018 A 
ATOM     26  C   UNL     1     -13.114  11.356  29.074  0.00  0.00    +0.126 A 
ATOM     27  C   UNL     1     -11.285  10.708  27.158  0.00  0.00    +0.068 A 
ATOM     28  C   UNL     1     -12.228  11.708  26.985  0.00  0.00    +0.214 A 
BRANCH  28   6
ATOM      6  O   UNL     1     -12.250  12.405  25.805  0.00  0.00    -0.480 OA
ATOM     30  C   UNL     1     -12.072  11.651  24.612  0.00  0.00    +0.279 C 
ENDBRANCH  28   6
ENDBRANCH  20  24
ENDBRANCH  11  16
BRANCH   7  15
ATOM     15  C   UNL     1     -14.928   6.284  32.781  0.00  0.00    +0.120 C 
BRANCH  15  17
ATOM     17  C   UNL     1     -14.537   5.043  32.025  0.00  0.00    -0.033 A 
ATOM     18  C   UNL     1     -13.384   4.342  32.381  0.00  0.00    +0.008 A 
ATOM     19  C   UNL     1     -15.328   4.593  30.967  0.00  0.00    +0.008 A 
ATOM     21  C   UNL     1     -13.022   3.192  31.680  0.00  0.00    +0.046 A 
ATOM     22  C   UNL     1     -14.966   3.442  30.266  0.00  0.00    +0.046 A 
ATOM     23  C   UNL     1     -13.813   2.742  30.623  0.00  0.00    +0.130 A 
BRANCH  23   5
ATOM      5  O   UNL     1     -13.460   1.619  29.940  0.00  0.00    -0.406 OA
BRANCH   5  29
ATOM      1  F   UNL     1     -15.128   0.183  29.438  0.00  0.00    -0.133 F 
ATOM      2  F   UNL     1     -13.240  -0.647  30.163  0.00  0.00    -0.133 F 
ATOM      3  F   UNL     1     -14.588   0.436  31.541  0.00  0.00    -0.133 F 
ATOM     29  C   UNL     1     -14.094   0.392  30.285  0.00  0.00    +0.575 C 
ENDBRANCH   5  29
ENDBRANCH  23   5
ENDBRANCH  15  17
ENDBRANCH   7  15
TORSDOF 7
ENDMDL
MODEL 5
REMARK VINA RESULT:      -6.7     28.228     31.740
REMARK  Name = 45783686
REMARK  8 active torsions:
REMARK  status: ('A' for Active; 'I' for Inactive)
REMARK    1  A    between atoms: O_5  and  C_23
REMARK    2  A    between atoms: O_5  and  C_29
REMARK    3  A    between atoms: O_6  and  C_28
REMARK    4  A    between atoms: O_6  and  C_30
REMARK    5  A    between atoms: N_7  and  C_15
REMARK    6  A    between atoms: C_11  and  C_16
REMARK    7  A    between atoms: C_15  and  C_17
REMARK    8  A    between atoms: C_20  and  C_24
REMARK                            x       y       z     vdW  Elec       q    Type
REMARK                         _______ _______ _______ _____ _____    ______ ____
ROOT
ATOM      7  N   UNL     1     -17.390   2.466  27.277  0.00  0.00    -0.287 NA
ATOM     11  C   UNL     1     -18.098   2.320  25.990  0.00  0.00    +0.146 C 
ATOM     12  C   UNL     1     -19.407   3.111  26.171  0.00  0.00    +0.030 C 
ATOM     13  C   UNL     1     -19.373   3.611  27.607  0.00  0.00    +0.017 C 
ATOM     14  C   UNL     1     -18.422   2.654  28.297  0.00  0.00    +0.085 C 
ENDROOT
BRANCH  11  16
ATOM      4  O   UNL     1     -17.179   1.970  23.752  0.00  0.00    -0.336 OA
ATOM      8  N   UNL     1     -16.635   3.940  24.665  0.00  0.00    -0.190 NA
ATOM      9  N   UNL     1     -16.384   2.630  22.807  0.00  0.00    -0.056 NA
ATOM     16  C   UNL     1     -17.277   2.810  24.815  0.00  0.00    +0.245 A 
ATOM     20  C   UNL     1     -16.102   3.785  23.418  0.00  0.00    +0.204 A 
BRANCH  20  24
ATOM     10  N   UNL     1     -15.151   6.977  21.767  0.00  0.00    -0.221 NA
ATOM     24  C   UNL     1     -15.294   4.802  22.811  0.00  0.00    +0.041 A 
ATOM     25  C   UNL     1     -13.921   4.633  22.666  0.00  0.00    +0.018 A 
ATOM     26  C   UNL     1     -15.854   5.981  22.349  0.00  0.00    +0.126 A 
ATOM     27  C   UNL     1     -13.163   5.636  22.073  0.00  0.00    +0.068 A 
ATOM     28  C   UNL     1     -13.819   6.778  21.644  0.00  0.00    +0.214 A 
BRANCH  28   6
ATOM      6  O   UNL     1     -13.093   7.781  21.055  0.00  0.00    -0.480 OA
ATOM     30  C   UNL     1     -11.917   7.394  20.354  0.00  0.00    +0.279 C 
ENDBRANCH  28   6
ENDBRANCH  20  24
ENDBRANCH  11  16
BRANCH   7  15
ATOM     15  C   UNL     1     -16.516   1.340  27.582  0.00  0.00    +0.120 C 
BRANCH  15  17
ATOM     17  C   UNL     1     -15.786   1.534  28.884  0.00  0.00    -0.033 A 
ATOM     18  C   UNL     1     -15.751   0.505  29.826  0.00  0.00    +0.008 A 
ATOM     19  C   UNL     1     -15.142   2.743  29.149  0.00  0.00    +0.008 A 
ATOM     21  C   UNL     1     -15.075   0.684  31.031  0.00  0.00    +0.046 A 
ATOM     22  C   UNL     1     -14.464   2.923  30.355  0.00  0.00    +0.046 A 
ATOM     23  C   UNL     1     -14.431   1.893  31.296  0.00  0.00    +0.130 A 
BRANCH  23   5
ATOM      5  O   UNL     1     -13.769   2.068  32.473  0.00  0.00    -0.406 OA
BRANCH   5  29
ATOM      1  F   UNL     1     -14.082   3.614  34.087  0.00  0.00    -0.133 F 
ATOM      2  F   UNL     1     -15.836   2.557  33.324  0.00  0.00    -0.133 F 
ATOM      3  F   UNL     1     -14.371   1.512  34.609  0.00  0.00    -0.133 F 
ATOM     29  C   UNL     1     -14.526   2.423  33.625  0.00  0.00    +0.575 C 
ENDBRANCH   5  29
ENDBRANCH  23   5
ENDBRANCH  15  17
ENDBRANCH   7  15
TORSDOF 7
ENDMDL
MODEL 6
REMARK VINA RESULT:      -6.6      4.091      5.613
REMARK  Name = 45783686
REMARK  8 active torsions:
REMARK  status: ('A' for Active; 'I' for Inactive)
REMARK    1  A    between atoms: O_5  and  C_23
REMARK    2  A    between atoms: O_5  and  C_29
REMARK    3  A    between atoms: O_6  and  C_28
REMARK    4  A    between atoms: O_6  and  C_30
REMARK    5  A    between atoms: N_7  and  C_15
REMARK    6  A    between atoms: C_11  and  C_16
REMARK    7  A    between atoms: C_15  and  C_17
REMARK    8  A    between atoms: C_20  and  C_24
REMARK                            x       y       z     vdW  Elec       q    Type
REMARK                         _______ _______ _______ _____ _____    ______ ____
ROOT
ATOM      7  N   UNL     1      12.353   8.706  20.065  0.00  0.00    -0.287 NA
ATOM     11  C   UNL     1      13.160   8.209  21.197  0.00  0.00    +0.146 C 
ATOM     12  C   UNL     1      12.251   7.189  21.907  0.00  0.00    +0.030 C 
ATOM     13  C   UNL     1      10.937   7.226  21.141  0.00  0.00    +0.017 C 
ATOM     14  C   UNL     1      10.952   8.586  20.470  0.00  0.00    +0.085 C 
ENDROOT
BRANCH  11  16
ATOM      4  O   UNL     1      14.422   6.711  19.734  0.00  0.00    -0.336 OA
ATOM      8  N   UNL     1      15.684   7.823  21.211  0.00  0.00    -0.190 NA
ATOM      9  N   UNL     1      15.741   6.300  19.505  0.00  0.00    -0.056 NA
ATOM     16  C   UNL     1      14.477   7.608  20.753  0.00  0.00    +0.245 A 
ATOM     20  C   UNL     1      16.426   7.000  20.415  0.00  0.00    +0.204 A 
BRANCH  20  24
ATOM     10  N   UNL     1      19.927   7.878  21.307  0.00  0.00    -0.221 NA
ATOM     24  C   UNL     1      17.850   6.899  20.554  0.00  0.00    +0.041 A 
ATOM     25  C   UNL     1      18.535   5.779  20.094  0.00  0.00    +0.018 A 
ATOM     26  C   UNL     1      18.585   7.911  21.147  0.00  0.00    +0.126 A 
ATOM     27  C   UNL     1      19.916   5.709  20.240  0.00  0.00    +0.068 A 
ATOM     28  C   UNL     1      20.559   6.775  20.848  0.00  0.00    +0.214 A 
BRANCH  28   6
ATOM      6  O   UNL     1      21.920   6.729  21.004  0.00  0.00    -0.480 OA
ATOM     30  C   UNL     1      22.675   7.735  20.339  0.00  0.00    +0.279 C 
ENDBRANCH  28   6
ENDBRANCH  20  24
ENDBRANCH  11  16
BRANCH   7  15
ATOM     15  C   UNL     1      12.694  10.066  19.669  0.00  0.00    +0.120 C 
BRANCH  15  17
ATOM     17  C   UNL     1      13.365  10.108  18.322  0.00  0.00    -0.033 A 
ATOM     18  C   UNL     1      14.290  11.111  18.032  0.00  0.00    +0.008 A 
ATOM     19  C   UNL     1      13.062   9.141  17.363  0.00  0.00    +0.008 A 
ATOM     21  C   UNL     1      14.911  11.149  16.785  0.00  0.00    +0.046 A 
ATOM     22  C   UNL     1      13.684   9.178  16.114  0.00  0.00    +0.046 A 
ATOM     23  C   UNL     1      14.608  10.182  15.825  0.00  0.00    +0.130 A 
BRANCH  23   5
ATOM      5  O   UNL     1      15.215  10.218  14.608  0.00  0.00    -0.406 OA
BRANCH   5  29
ATOM      1  F   UNL     1      15.666  11.230  12.641  0.00  0.00    -0.133 F 
ATOM      2  F   UNL     1      14.015  12.009  13.842  0.00  0.00    -0.133 F 
ATOM      3  F   UNL     1      16.107  12.322  14.482  0.00  0.00    -0.133 F 
ATOM     29  C   UNL     1      15.246  11.457  13.906  0.00  0.00    +0.575 C 
ENDBRANCH   5  29
ENDBRANCH  23   5
ENDBRANCH  15  17
ENDBRANCH   7  15
TORSDOF 7
ENDMDL
MODEL 7
REMARK VINA RESULT:      -6.6     15.738     19.168
REMARK  Name = 45783686
REMARK  8 active torsions:
REMARK  status: ('A' for Active; 'I' for Inactive)
REMARK    1  A    between atoms: O_5  and  C_23
REMARK    2  A    between atoms: O_5  and  C_29
REMARK    3  A    between atoms: O_6  and  C_28
REMARK    4  A    between atoms: O_6  and  C_30
REMARK    5  A    between atoms: N_7  and  C_15
REMARK    6  A    between atoms: C_11  and  C_16
REMARK    7  A    between atoms: C_15  and  C_17
REMARK    8  A    between atoms: C_20  and  C_24
REMARK                            x       y       z     vdW  Elec       q    Type
REMARK                         _______ _______ _______ _____ _____    ______ ____
ROOT
ATOM      7  N   UNL     1      13.269   7.210   4.248  0.00  0.00    -0.287 NA
ATOM     11  C   UNL     1      13.997   7.306   2.967  0.00  0.00    +0.146 C 
ATOM     12  C   UNL     1      15.478   7.431   3.367  0.00  0.00    +0.030 C 
ATOM     13  C   UNL     1      15.478   7.458   4.889  0.00  0.00    +0.017 C 
ATOM     14  C   UNL     1      14.077   7.921   5.238  0.00  0.00    +0.085 C 
ENDROOT
BRANCH  11  16
ATOM      4  O   UNL     1      14.573   5.061   2.189  0.00  0.00    -0.336 OA
ATOM      8  N   UNL     1      12.808   5.963   1.149  0.00  0.00    -0.190 NA
ATOM      9  N   UNL     1      14.140   4.108   1.260  0.00  0.00    -0.056 NA
ATOM     16  C   UNL     1      13.735   6.123   2.059  0.00  0.00    +0.245 A 
ATOM     20  C   UNL     1      13.096   4.713   0.686  0.00  0.00    +0.204 A 
BRANCH  20  24
ATOM     10  N   UNL     1      10.225   3.929  -1.544  0.00  0.00    -0.221 NA
ATOM     24  C   UNL     1      12.321   4.095  -0.351  0.00  0.00    +0.041 A 
ATOM     25  C   UNL     1      12.866   3.097  -1.153  0.00  0.00    +0.018 A 
ATOM     26  C   UNL     1      11.010   4.472  -0.585  0.00  0.00    +0.126 A 
ATOM     27  C   UNL     1      12.091   2.516  -2.150  0.00  0.00    +0.068 A 
ATOM     28  C   UNL     1      10.788   2.963  -2.303  0.00  0.00    +0.214 A 
BRANCH  28   6
ATOM      6  O   UNL     1      10.004   2.404  -3.279  0.00  0.00    -0.480 OA
ATOM     30  C   UNL     1      10.115   2.958  -4.584  0.00  0.00    +0.279 C 
ENDBRANCH  28   6
ENDBRANCH  20  24
ENDBRANCH  11  16
BRANCH   7  15
ATOM     15  C   UNL     1      11.909   7.728   4.176  0.00  0.00    +0.120 C 
BRANCH  15  17
ATOM     17  C   UNL     1      11.057   7.228   5.313  0.00  0.00    -0.033 A 
ATOM     18  C   UNL     1      10.740   5.873   5.404  0.00  0.00    +0.008 A 
ATOM     19  C   UNL     1      10.586   8.121   6.276  0.00  0.00    +0.008 A 
ATOM     21  C   UNL     1       9.951   5.410   6.457  0.00  0.00    +0.046 A 
ATOM     22  C   UNL     1       9.798   7.658   7.330  0.00  0.00    +0.046 A 
ATOM     23  C   UNL     1       9.480   6.303   7.421  0.00  0.00    +0.130 A 
BRANCH  23   5
ATOM      5  O   UNL     1       8.712   5.851   8.449  0.00  0.00    -0.406 OA
BRANCH   5  29
ATOM      1  F   UNL     1       8.549   4.986  10.527  0.00  0.00    -0.133 F 
ATOM      2  F   UNL     1       9.378   3.721   8.949  0.00  0.00    -0.133 F 
ATOM      3  F   UNL     1      10.544   5.419   9.749  0.00  0.00    -0.133 F 
ATOM     29  C   UNL     1       9.311   4.989   9.410  0.00  0.00    +0.575 C 
ENDBRANCH   5  29
ENDBRANCH  23   5
ENDBRANCH  15  17
ENDBRANCH   7  15
TORSDOF 7
ENDMDL
MODEL 8
REMARK VINA RESULT:      -6.6     26.852     29.643
REMARK  Name = 45783686
REMARK  8 active torsions:
REMARK  status: ('A' for Active; 'I' for Inactive)
REMARK    1  A    between atoms: O_5  and  C_23
REMARK    2  A    between atoms: O_5  and  C_29
REMARK    3  A    between atoms: O_6  and  C_28
REMARK    4  A    between atoms: O_6  and  C_30
REMARK    5  A    between atoms: N_7  and  C_15
REMARK    6  A    between atoms: C_11  and  C_16
REMARK    7  A    between atoms: C_15  and  C_17
REMARK    8  A    between atoms: C_20  and  C_24
REMARK                            x       y       z     vdW  Elec       q    Type
REMARK                         _______ _______ _______ _____ _____    ______ ____
ROOT
ATOM      7  N   UNL     1      -3.124 -10.567  14.392  0.00  0.00    -0.287 NA
ATOM     11  C   UNL     1      -3.027 -11.258  15.692  0.00  0.00    +0.146 C 
ATOM     12  C   UNL     1      -1.714 -10.746  16.311  0.00  0.00    +0.030 C 
ATOM     13  C   UNL     1      -1.115  -9.820  15.263  0.00  0.00    +0.017 C 
ATOM     14  C   UNL     1      -1.751 -10.287  13.968  0.00  0.00    +0.085 C 
ENDROOT
BRANCH  11  16
ATOM      4  O   UNL     1      -4.076 -11.277  17.900  0.00  0.00    -0.336 OA
ATOM      8  N   UNL     1      -5.416 -10.555  16.258  0.00  0.00    -0.190 NA
ATOM      9  N   UNL     1      -5.301 -10.969  18.504  0.00  0.00    -0.056 NA
ATOM     16  C   UNL     1      -4.229 -11.004  16.577  0.00  0.00    +0.245 A 
ATOM     20  C   UNL     1      -6.039 -10.550  17.471  0.00  0.00    +0.204 A 
BRANCH  20  24
ATOM     10  N   UNL     1      -9.540 -10.377  18.711  0.00  0.00    -0.221 NA
ATOM     24  C   UNL     1      -7.399 -10.120  17.620  0.00  0.00    +0.041 A 
ATOM     25  C   UNL     1      -7.904  -9.071  16.857  0.00  0.00    +0.018 A 
ATOM     26  C   UNL     1      -8.250 -10.733  18.524  0.00  0.00    +0.126 A 
ATOM     27  C   UNL     1      -9.227  -8.676  17.022  0.00  0.00    +0.068 A 
ATOM     28  C   UNL     1      -9.997  -9.355  17.953  0.00  0.00    +0.214 A 
BRANCH  28   6
ATOM      6  O   UNL     1     -11.304  -8.984  18.133  0.00  0.00    -0.480 OA
ATOM     30  C   UNL     1     -12.135  -9.893  18.843  0.00  0.00    +0.279 C 
ENDBRANCH  28   6
ENDBRANCH  20  24
ENDBRANCH  11  16
BRANCH   7  15
ATOM     15  C   UNL     1      -3.862 -11.326  13.390  0.00  0.00    +0.120 C 
BRANCH  15  17
ATOM     17  C   UNL     1      -4.457 -10.433  12.335  0.00  0.00    -0.033 A 
ATOM     18  C   UNL     1      -5.589  -9.669  12.624  0.00  0.00    +0.008 A 
ATOM     19  C   UNL     1      -3.877 -10.367  11.068  0.00  0.00    +0.008 A 
ATOM     21  C   UNL     1      -6.140  -8.841  11.647  0.00  0.00    +0.046 A 
ATOM     22  C   UNL     1      -4.428  -9.539  10.090  0.00  0.00    +0.046 A 
ATOM     23  C   UNL     1      -5.560  -8.776  10.380  0.00  0.00    +0.130 A 
BRANCH  23   5
ATOM      5  O   UNL     1      -6.097  -7.967   9.426  0.00  0.00    -0.406 OA
BRANCH   5  29
ATOM      1  F   UNL     1      -8.348  -7.832   9.509  0.00  0.00    -0.133 F 
ATOM      2  F   UNL     1      -7.396  -7.914   7.544  0.00  0.00    -0.133 F 
ATOM      3  F   UNL     1      -7.457  -9.709   8.833  0.00  0.00    -0.133 F 
ATOM     29  C   UNL     1      -7.319  -8.366   8.814  0.00  0.00    +0.575 C 
ENDBRANCH   5  29
ENDBRANCH  23   5
ENDBRANCH  15  17
ENDBRANCH   7  15
TORSDOF 7
ENDMDL
MODEL 9
REMARK VINA RESULT:      -6.6     26.807     29.599
REMARK  Name = 45783686
REMARK  8 active torsions:
REMARK  status: ('A' for Active; 'I' for Inactive)
REMARK    1  A    between atoms: O_5  and  C_23
REMARK    2  A    between atoms: O_5  and  C_29
REMARK    3  A    between atoms: O_6  and  C_28
REMARK    4  A    between atoms: O_6  and  C_30
REMARK    5  A    between atoms: N_7  and  C_15
REMARK    6  A    between atoms: C_11  and  C_16
REMARK    7  A    between atoms: C_15  and  C_17
REMARK    8  A    between atoms: C_20  and  C_24
REMARK                            x       y       z     vdW  Elec       q    Type
REMARK                         _______ _______ _______ _____ _____    ______ ____
ROOT
ATOM      7  N   UNL     1      -2.890 -10.544  14.009  0.00  0.00    -0.287 NA
ATOM     11  C   UNL     1      -3.258 -11.356  15.185  0.00  0.00    +0.146 C 
ATOM     12  C   UNL     1      -2.263 -10.931  16.281  0.00  0.00    +0.030 C 
ATOM     13  C   UNL     1      -1.340  -9.924  15.610  0.00  0.00    +0.017 C 
ATOM     14  C   UNL     1      -1.462 -10.255  14.136  0.00  0.00    +0.085 C 
ENDROOT
BRANCH  11  16
ATOM      4  O   UNL     1      -5.322 -12.234  16.156  0.00  0.00    -0.336 OA
ATOM      8  N   UNL     1      -5.458 -10.098  15.499  0.00  0.00    -0.190 NA
ATOM      9  N   UNL     1      -6.627 -11.818  16.451  0.00  0.00    -0.056 NA
ATOM     16  C   UNL     1      -4.702 -11.161  15.599  0.00  0.00    +0.245 A 
ATOM     20  C   UNL     1      -6.629 -10.548  16.034  0.00  0.00    +0.204 A 
BRANCH  20  24
ATOM     10  N   UNL     1      -9.690  -8.668  15.073  0.00  0.00    -0.221 NA
ATOM     24  C   UNL     1      -7.784  -9.704  16.139  0.00  0.00    +0.041 A 
ATOM     25  C   UNL     1      -8.129  -9.111  17.350  0.00  0.00    +0.018 A 
ATOM     26  C   UNL     1      -8.590  -9.454  15.042  0.00  0.00    +0.126 A 
ATOM     27  C   UNL     1      -9.253  -8.297  17.422  0.00  0.00    +0.068 A 
ATOM     28  C   UNL     1      -9.994  -8.109  16.266  0.00  0.00    +0.214 A 
BRANCH  28   6
ATOM      6  O   UNL     1     -11.107  -7.310  16.312  0.00  0.00    -0.480 OA
ATOM     30  C   UNL     1     -11.022  -6.055  15.649  0.00  0.00    +0.279 C 
ENDBRANCH  28   6
ENDBRANCH  20  24
ENDBRANCH  11  16
BRANCH   7  15
ATOM     15  C   UNL     1      -3.207 -11.191  12.742  0.00  0.00    +0.120 C 
BRANCH  15  17
ATOM     17  C   UNL     1      -3.957 -10.272  11.815  0.00  0.00    -0.033 A 
ATOM     18  C   UNL     1      -3.401  -9.912  10.587  0.00  0.00    +0.008 A 
ATOM     19  C   UNL     1      -5.210  -9.782  12.183  0.00  0.00    +0.008 A 
ATOM     21  C   UNL     1      -4.096  -9.062   9.728  0.00  0.00    +0.046 A 
ATOM     22  C   UNL     1      -5.906  -8.931  11.323  0.00  0.00    +0.046 A 
ATOM     23  C   UNL     1      -5.349  -8.571  10.096  0.00  0.00    +0.130 A 
BRANCH  23   5
ATOM      5  O   UNL     1      -6.027  -7.742   9.257  0.00  0.00    -0.406 OA
BRANCH   5  29
ATOM      1  F   UNL     1      -7.485  -7.534   7.547  0.00  0.00    -0.133 F 
ATOM      2  F   UNL     1      -7.188  -9.520   8.407  0.00  0.00    -0.133 F 
ATOM      3  F   UNL     1      -8.287  -7.968   9.533  0.00  0.00    -0.133 F 
ATOM     29  C   UNL     1      -7.253  -8.203   8.699  0.00  0.00    +0.575 C 
ENDBRANCH   5  29
ENDBRANCH  23   5
ENDBRANCH  15  17
ENDBRANCH   7  15
TORSDOF 7
ENDMDL
MODEL 10
REMARK VINA RESULT:      -6.6     25.993     27.833
REMARK  Name = 45783686
REMARK  8 active torsions:
REMARK  status: ('A' for Active; 'I' for Inactive)
REMARK    1  A    between atoms: O_5  and  C_23
REMARK    2  A    between atoms: O_5  and  C_29
REMARK    3  A    between atoms: O_6  and  C_28
REMARK    4  A    between atoms: O_6  and  C_30
REMARK    5  A    between atoms: N_7  and  C_15
REMARK    6  A    between atoms: C_11  and  C_16
REMARK    7  A    between atoms: C_15  and  C_17
REMARK    8  A    between atoms: C_20  and  C_24
REMARK                            x       y       z     vdW  Elec       q    Type
REMARK                         _______ _______ _______ _____ _____    ______ ____
ROOT
ATOM      7  N   UNL     1     -11.035   9.529  17.299  0.00  0.00    -0.287 NA
ATOM     11  C   UNL     1     -10.349  10.385  18.288  0.00  0.00    +0.146 C 
ATOM     12  C   UNL     1      -9.885  11.615  17.486  0.00  0.00    +0.030 C 
ATOM     13  C   UNL     1     -10.300  11.333  16.050  0.00  0.00    +0.017 C 
ATOM     14  C   UNL     1     -10.423   9.823  16.003  0.00  0.00    +0.085 C 
ENDROOT
BRANCH  11  16
ATOM      4  O   UNL     1     -12.221  11.657  19.211  0.00  0.00    -0.336 OA
ATOM      8  N   UNL     1     -11.205  10.321  20.693  0.00  0.00    -0.190 NA
ATOM      9  N   UNL     1     -12.900  11.833  20.423  0.00  0.00    -0.056 NA
ATOM     16  C   UNL     1     -11.239  10.751  19.457  0.00  0.00    +0.245 A 
ATOM     20  C   UNL     1     -12.242  11.012  21.248  0.00  0.00    +0.204 A 
BRANCH  20  24
ATOM     10  N   UNL     1     -14.069   9.901  24.290  0.00  0.00    -0.221 NA
ATOM     24  C   UNL     1     -12.598  10.859  22.629  0.00  0.00    +0.041 A 
ATOM     25  C   UNL     1     -11.863  11.487  23.630  0.00  0.00    +0.018 A 
ATOM     26  C   UNL     1     -13.681  10.085  23.008  0.00  0.00    +0.126 A 
ATOM     27  C   UNL     1     -12.231  11.322  24.960  0.00  0.00    +0.068 A 
ATOM     28  C   UNL     1     -13.332  10.526  25.235  0.00  0.00    +0.214 A 
BRANCH  28   6
ATOM      6  O   UNL     1     -13.715  10.348  26.539  0.00  0.00    -0.480 OA
ATOM     30  C   UNL     1     -12.687  10.405  27.521  0.00  0.00    +0.279 C 
ENDBRANCH  28   6
ENDBRANCH  20  24
ENDBRANCH  11  16
BRANCH   7  15
ATOM     15  C   UNL     1     -10.973   8.111  17.625  0.00  0.00    +0.120 C 
BRANCH  15  17
ATOM     17  C   UNL     1     -11.930   7.747  18.729  0.00  0.00    -0.033 A 
ATOM     18  C   UNL     1     -13.281   8.080  18.621  0.00  0.00    +0.008 A 
ATOM     19  C   UNL     1     -11.467   7.074  19.860  0.00  0.00    +0.008 A 
ATOM     21  C   UNL     1     -14.167   7.742  19.642  0.00  0.00    +0.046 A 
ATOM     22  C   UNL     1     -12.354   6.735  20.882  0.00  0.00    +0.046 A 
ATOM     23  C   UNL     1     -13.704   7.070  20.774  0.00  0.00    +0.130 A 
BRANCH  23   5
ATOM      5  O   UNL     1     -14.569   6.739  21.770  0.00  0.00    -0.406 OA
BRANCH   5  29
ATOM      1  F   UNL     1     -16.213   5.435  22.602  0.00  0.00    -0.133 F 
ATOM      2  F   UNL     1     -15.644   5.162  20.509  0.00  0.00    -0.133 F 
ATOM      3  F   UNL     1     -14.298   4.496  22.131  0.00  0.00    -0.133 F 
ATOM     29  C   UNL     1     -15.170   5.449  21.741  0.00  0.00    +0.575 C 
ENDBRANCH   5  29
ENDBRANCH  23   5
ENDBRANCH  15  17
ENDBRANCH   7  15
TORSDOF 7
ENDMDL
