REMARK  Name = 51137121
REMARK  3 active torsions:
REMARK  status: ('A' for Active; 'I' for Inactive)
REMARK    1  A    between atoms: N_1  and  C_11
REMARK    2  A    between atoms: C_6  and  C_10
REMARK    3  A    between atoms: C_11  and  C_12
REMARK                            x       y       z     vdW  Elec       q    Type
REMARK                         _______ _______ _______ _____ _____    ______ ____
ROOT
ATOM      1  N   UNL     1      -2.025  -0.236  -0.112  0.00  0.00    -0.295 NA
ATOM      6  C   UNL     1       0.177  -0.881   0.375  0.00  0.00    +0.070 C 
ATOM      7  C   UNL     1      -0.501  -0.358   1.653  0.00  0.00    +0.028 C 
ATOM      8  C   UNL     1      -0.726  -0.398  -0.769  0.00  0.00    +0.096 C 
ATOM      9  C   UNL     1      -1.724   0.409   1.166  0.00  0.00    +0.085 C 
ENDROOT
BRANCH   6  10
ATOM      2  N   UNL     1       2.621  -1.387   0.112  0.00  0.00    -0.342 N 
ATOM      3  N   UNL     1       2.076   0.767   0.125  0.00  0.00    -0.232 NA
ATOM     10  C   UNL     1       1.619  -0.462   0.204  0.00  0.00    +0.113 A 
ATOM     13  C   UNL     1       3.804  -0.710  -0.035  0.00  0.00    +0.066 A 
ATOM     14  C   UNL     1       3.437   0.633  -0.024  0.00  0.00    +0.089 A 
ATOM     15  C   UNL     1       5.123  -1.144  -0.173  0.00  0.00    +0.028 A 
ATOM     16  C   UNL     1       4.433   1.615  -0.157  0.00  0.00    +0.030 A 
ATOM     17  C   UNL     1       6.101  -0.152  -0.305  0.00  0.00    +0.002 A 
ATOM     19  C   UNL     1       5.764   1.203  -0.297  0.00  0.00    +0.002 A 
ATOM     21  H   UNL     1       2.513  -2.393   0.146  0.00  0.00    +0.167 HD
ENDBRANCH   6  10
BRANCH   1  11
ATOM     11  C   UNL     1      -2.961   0.537  -0.915  0.00  0.00    +0.158 C 
BRANCH  11  12
ATOM      4  N   UNL     1      -5.074  -0.803  -0.775  0.00  0.00    -0.347 N 
ATOM      5  N   UNL     1      -5.113   1.173   0.239  0.00  0.00    -0.239 NA
ATOM     12  C   UNL     1      -4.384   0.336  -0.466  0.00  0.00    +0.121 A 
ATOM     18  C   UNL     1      -6.323  -0.685  -0.233  0.00  0.00    +0.104 A 
ATOM     20  C   UNL     1      -6.323   0.542   0.388  0.00  0.00    +0.130 A 
ATOM     22  H   UNL     1      -4.726  -1.590  -1.306  0.00  0.00    +0.167 HD
ENDBRANCH  11  12
ENDBRANCH   1  11
TORSDOF 3
