REMARK  Name = 7051867
REMARK  8 active torsions:
REMARK  status: ('A' for Active; 'I' for Inactive)
REMARK    1  A    between atoms: N_3  and  C_15
REMARK    2  A    between atoms: N_5  and  C_26
REMARK    3  A    between atoms: N_6  and  C_19
REMARK    4  A    between atoms: N_7  and  C_30
REMARK    5  A    between atoms: N_7  and  C_31
REMARK    6  A    between atoms: N_7  and  C_32
REMARK    7  A    between atoms: C_15  and  C_18
REMARK    8  A    between atoms: C_27  and  C_30
REMARK                            x       y       z     vdW  Elec       q    Type
REMARK                         _______ _______ _______ _____ _____    ______ ____
ROOT
ATOM      1  O   UNL     1      -1.804   2.502  -1.771  0.00  0.00    -0.266 OA
ATOM      3  N   UNL     1       2.883   1.345  -0.420  0.00  0.00    -0.297 NA
ATOM      4  N   UNL     1      -0.104   2.439  -0.169  0.00  0.00    -0.310 N 
ATOM      8  C   UNL     1       2.098   3.726  -0.425  0.00  0.00    +0.024 C 
ATOM      9  C   UNL     1       1.725   2.338   1.558  0.00  0.00    +0.050 C 
ATOM     10  C   UNL     1       2.090   3.747   1.098  0.00  0.00    +0.017 C 
ATOM     11  C   UNL     1       3.130   2.698  -0.934  0.00  0.00    +0.090 C 
ATOM     12  C   UNL     1       2.786   1.337   1.047  0.00  0.00    +0.094 C 
ATOM     13  C   UNL     1       0.677   3.430  -0.923  0.00  0.00    +0.130 C 
ATOM     14  C   UNL     1       0.345   1.950   1.062  0.00  0.00    +0.026 A 
ATOM     16  C   UNL     1      -0.433   1.129   1.787  0.00  0.00    +0.024 A 
ATOM     17  C   UNL     1      -1.361   2.085  -0.700  0.00  0.00    +0.273 A 
ATOM     19  C   UNL     1      -2.187   1.150   0.128  0.00  0.00    +0.099 A 
ATOM     20  C   UNL     1      -1.724   0.722   1.307  0.00  0.00    +0.030 A 
ENDROOT
BRANCH  19   6
ATOM      2  O   UNL     1      -3.512  -1.336   0.623  0.00  0.00    -0.274 OA
ATOM      6  N   UNL     1      -3.405   0.773  -0.356  0.00  0.00    -0.280 N 
ATOM     27  C   UNL     1      -4.004  -0.449  -0.071  0.00  0.00    +0.231 C 
ATOM     33  H   UNL     1      -3.777   1.319  -1.130  0.00  0.00    +0.155 HD
BRANCH  27  30
ATOM     30  C   UNL     1      -5.351  -0.576  -0.753  0.00  0.00    +0.180 C 
BRANCH  30   7
ATOM      7  N   UNL     1      -6.207  -1.445   0.041  0.00  0.00    -0.300 NA
ATOM     31  C   UNL     1      -7.522  -1.593  -0.587  0.00  0.00    +0.105 C 
ATOM     32  C   UNL     1      -6.353  -0.925   1.403  0.00  0.00    +0.105 C 
ENDBRANCH  30   7
ENDBRANCH  27  30
ENDBRANCH  19   6
BRANCH   3  15
ATOM     15  C   UNL     1       3.910   0.413  -0.881  0.00  0.00    +0.121 C 
BRANCH  15  18
ATOM      5  N   UNL     1       3.874  -3.034   0.323  0.00  0.00    -0.349 N 
ATOM     18  C   UNL     1       3.616  -1.001  -0.456  0.00  0.00    -0.008 A 
ATOM     21  C   UNL     1       2.365  -1.638  -0.543  0.00  0.00    +0.004 A 
ATOM     22  C   UNL     1       4.529  -1.858   0.072  0.00  0.00    +0.091 A 
ATOM     23  C   UNL     1       2.551  -2.928  -0.043  0.00  0.00    +0.049 A 
ATOM     24  C   UNL     1       1.083  -1.263  -0.993  0.00  0.00    +0.010 A 
ATOM     25  C   UNL     1       1.516  -3.866   0.030  0.00  0.00    +0.026 A 
ATOM     26  C   UNL     1       4.498  -4.209   0.893  0.00  0.00    +0.149 C 
ATOM     28  C   UNL     1       0.038  -2.191  -0.926  0.00  0.00    +0.001 A 
ATOM     29  C   UNL     1       0.253  -3.472  -0.422  0.00  0.00    +0.002 A 
ENDBRANCH  15  18
ENDBRANCH   3  15
TORSDOF 5
