MODEL 1
REMARK VINA RESULT:      -6.3      0.000      0.000
REMARK  Name = 75368692
REMARK  4 active torsions:
REMARK  status: ('A' for Active; 'I' for Inactive)
REMARK    1  A    between atoms: N_3  and  C_11
REMARK    2  A    between atoms: N_4  and  C_12
REMARK    3  A    between atoms: C_11  and  C_13
REMARK    4  A    between atoms: C_18  and  C_19
REMARK                            x       y       z     vdW  Elec       q    Type
REMARK                         _______ _______ _______ _____ _____    ______ ____
ROOT
ATOM      1  O   UNL     1      13.248   7.018  17.065  0.00  0.00    -0.252 OA
ATOM      2  N   UNL     1      13.568   9.344  17.144  0.00  0.00    -0.278 N 
ATOM      3  N   UNL     1      14.030   8.143  18.985  0.00  0.00    -0.279 N 
ATOM      4  N   UNL     1      14.365  11.913  16.324  0.00  0.00    -0.302 NA
ATOM      5  C   UNL     1      13.895  10.332  18.151  0.00  0.00    +0.109 C 
ATOM      6  C   UNL     1      14.426   9.501  19.317  0.00  0.00    +0.133 C 
ATOM      7  C   UNL     1      14.882  11.356  17.590  0.00  0.00    +0.108 C 
ATOM      8  C   UNL     1      13.192   9.781  15.816  0.00  0.00    +0.125 C 
ATOM      9  C   UNL     1      14.172  10.847  15.320  0.00  0.00    +0.103 C 
ATOM     10  C   UNL     1      13.571   8.039  17.657  0.00  0.00    +0.305 C 
ATOM     12  C   UNL     1      15.274  12.938  15.810  0.00  0.00    +0.105 C 
ENDROOT
BRANCH   3  11
ATOM     11  C   UNL     1      14.246   7.037  19.893  0.00  0.00    +0.144 C 
BRANCH  11  13
ATOM     13  C   UNL     1      15.704   6.719  20.053  0.00  0.00    -0.030 A 
ATOM     14  C   UNL     1      16.359   7.030  21.244  0.00  0.00    +0.005 A 
ATOM     15  C   UNL     1      16.406   6.114  19.009  0.00  0.00    +0.005 A 
ATOM     16  C   UNL     1      17.715   6.737  21.393  0.00  0.00    +0.003 A 
ATOM     17  C   UNL     1      17.761   5.821  19.157  0.00  0.00    +0.003 A 
ATOM     18  C   UNL     1      18.416   6.133  20.349  0.00  0.00    -0.050 A 
ATOM     19  C   UNL     1      19.866   5.821  20.508  0.00  0.00    +0.044 C 
ENDBRANCH  11  13
ENDBRANCH   3  11
TORSDOF 2
ENDMDL
MODEL 2
REMARK VINA RESULT:      -6.1      4.432      5.535
REMARK  Name = 75368692
REMARK  4 active torsions:
REMARK  status: ('A' for Active; 'I' for Inactive)
REMARK    1  A    between atoms: N_3  and  C_11
REMARK    2  A    between atoms: N_4  and  C_12
REMARK    3  A    between atoms: C_11  and  C_13
REMARK    4  A    between atoms: C_18  and  C_19
REMARK                            x       y       z     vdW  Elec       q    Type
REMARK                         _______ _______ _______ _____ _____    ______ ____
ROOT
ATOM      1  O   UNL     1      10.673   8.396  22.920  0.00  0.00    -0.252 OA
ATOM      2  N   UNL     1      11.387  10.634  22.943  0.00  0.00    -0.278 N 
ATOM      3  N   UNL     1      11.667   9.446  21.057  0.00  0.00    -0.279 N 
ATOM      4  N   UNL     1      11.329  13.402  23.432  0.00  0.00    -0.302 NA
ATOM      5  C   UNL     1      12.121  11.518  22.062  0.00  0.00    +0.109 C 
ATOM      6  C   UNL     1      12.101  10.791  20.718  0.00  0.00    +0.133 C 
ATOM      7  C   UNL     1      11.482  12.907  22.050  0.00  0.00    +0.108 C 
ATOM      8  C   UNL     1      11.050  11.082  24.278  0.00  0.00    +0.125 C 
ATOM      9  C   UNL     1      10.471  12.497  24.224  0.00  0.00    +0.103 C 
ATOM     10  C   UNL     1      11.181   9.368  22.378  0.00  0.00    +0.305 C 
ATOM     12  C   UNL     1      10.774  14.756  23.430  0.00  0.00    +0.105 C 
ENDROOT
BRANCH   3  11
ATOM     11  C   UNL     1      11.615   8.387  20.074  0.00  0.00    +0.144 C 
BRANCH  11  13
ATOM     13  C   UNL     1      12.968   7.786  19.825  0.00  0.00    -0.030 A 
ATOM     14  C   UNL     1      13.622   7.094  20.844  0.00  0.00    +0.005 A 
ATOM     15  C   UNL     1      13.574   7.922  18.575  0.00  0.00    +0.005 A 
ATOM     16  C   UNL     1      14.881   6.538  20.615  0.00  0.00    +0.003 A 
ATOM     17  C   UNL     1      14.832   7.366  18.345  0.00  0.00    +0.003 A 
ATOM     18  C   UNL     1      15.486   6.674  19.365  0.00  0.00    -0.050 A 
ATOM     19  C   UNL     1      16.832   6.081  19.121  0.00  0.00    +0.044 C 
ENDBRANCH  11  13
ENDBRANCH   3  11
TORSDOF 2
ENDMDL
MODEL 3
REMARK VINA RESULT:      -5.9      2.027      3.078
REMARK  Name = 75368692
REMARK  4 active torsions:
REMARK  status: ('A' for Active; 'I' for Inactive)
REMARK    1  A    between atoms: N_3  and  C_11
REMARK    2  A    between atoms: N_4  and  C_12
REMARK    3  A    between atoms: C_11  and  C_13
REMARK    4  A    between atoms: C_18  and  C_19
REMARK                            x       y       z     vdW  Elec       q    Type
REMARK                         _______ _______ _______ _____ _____    ______ ____
ROOT
ATOM      1  O   UNL     1      15.994  10.080  19.972  0.00  0.00    -0.252 OA
ATOM      2  N   UNL     1      14.518   8.972  18.519  0.00  0.00    -0.278 N 
ATOM      3  N   UNL     1      15.368   7.823  20.251  0.00  0.00    -0.279 N 
ATOM      4  N   UNL     1      12.260   8.539  16.900  0.00  0.00    -0.302 NA
ATOM      5  C   UNL     1      14.042   7.618  18.327  0.00  0.00    +0.109 C 
ATOM      6  C   UNL     1      14.432   6.909  19.622  0.00  0.00    +0.133 C 
ATOM      7  C   UNL     1      12.544   7.620  18.021  0.00  0.00    +0.108 C 
ATOM      8  C   UNL     1      14.168   9.991  17.552  0.00  0.00    +0.125 C 
ATOM      9  C   UNL     1      12.674   9.918  17.231  0.00  0.00    +0.103 C 
ATOM     10  C   UNL     1      15.375   9.084  19.622  0.00  0.00    +0.305 C 
ATOM     12  C   UNL     1      10.837   8.503  16.560  0.00  0.00    +0.105 C 
ENDROOT
BRANCH   3  11
ATOM     11  C   UNL     1      16.073   7.482  21.468  0.00  0.00    +0.144 C 
BRANCH  11  13
ATOM     13  C   UNL     1      17.537   7.256  21.225  0.00  0.00    -0.030 A 
ATOM     14  C   UNL     1      18.475   8.156  21.730  0.00  0.00    +0.005 A 
ATOM     15  C   UNL     1      17.959   6.147  20.491  0.00  0.00    +0.005 A 
ATOM     16  C   UNL     1      19.835   7.948  21.501  0.00  0.00    +0.003 A 
ATOM     17  C   UNL     1      19.319   5.938  20.262  0.00  0.00    +0.003 A 
ATOM     18  C   UNL     1      20.257   6.839  20.767  0.00  0.00    -0.050 A 
ATOM     19  C   UNL     1      21.712   6.617  20.523  0.00  0.00    +0.044 C 
ENDBRANCH  11  13
ENDBRANCH   3  11
TORSDOF 2
ENDMDL
MODEL 4
REMARK VINA RESULT:      -5.6     26.171     27.696
REMARK  Name = 75368692
REMARK  4 active torsions:
REMARK  status: ('A' for Active; 'I' for Inactive)
REMARK    1  A    between atoms: N_3  and  C_11
REMARK    2  A    between atoms: N_4  and  C_12
REMARK    3  A    between atoms: C_11  and  C_13
REMARK    4  A    between atoms: C_18  and  C_19
REMARK                            x       y       z     vdW  Elec       q    Type
REMARK                         _______ _______ _______ _____ _____    ______ ____
ROOT
ATOM      1  O   UNL     1     -13.660  10.283  18.008  0.00  0.00    -0.252 OA
ATOM      2  N   UNL     1     -12.046   9.685  16.409  0.00  0.00    -0.278 N 
ATOM      3  N   UNL     1     -11.458   9.655  18.576  0.00  0.00    -0.279 N 
ATOM      4  N   UNL     1     -10.930   8.457  14.139  0.00  0.00    -0.302 NA
ATOM      5  C   UNL     1     -10.629   9.388  16.397  0.00  0.00    +0.109 C 
ATOM      6  C   UNL     1     -10.297   9.144  17.868  0.00  0.00    +0.133 C 
ATOM      7  C   UNL     1     -10.342   8.206  15.470  0.00  0.00    +0.108 C 
ATOM      8  C   UNL     1     -12.756   9.803  15.152  0.00  0.00    +0.125 C 
ATOM      9  C   UNL     1     -12.393   8.634  14.235  0.00  0.00    +0.103 C 
ATOM     10  C   UNL     1     -12.530   9.924  17.702  0.00  0.00    +0.305 C 
ATOM     12  C   UNL     1     -10.609   7.360  13.226  0.00  0.00    +0.105 C 
ENDROOT
BRANCH   3  11
ATOM     11  C   UNL     1     -11.510   9.717  20.020  0.00  0.00    +0.144 C 
BRANCH  11  13
ATOM     13  C   UNL     1     -12.186   8.513  20.610  0.00  0.00    -0.030 A 
ATOM     14  C   UNL     1     -11.522   7.286  20.640  0.00  0.00    +0.005 A 
ATOM     15  C   UNL     1     -13.477   8.620  21.126  0.00  0.00    +0.005 A 
ATOM     16  C   UNL     1     -12.150   6.167  21.185  0.00  0.00    +0.003 A 
ATOM     17  C   UNL     1     -14.106   7.501  21.671  0.00  0.00    +0.003 A 
ATOM     18  C   UNL     1     -13.443   6.274  21.700  0.00  0.00    -0.050 A 
ATOM     19  C   UNL     1     -14.114   5.076  22.282  0.00  0.00    +0.044 C 
ENDBRANCH  11  13
ENDBRANCH   3  11
TORSDOF 2
ENDMDL
MODEL 5
REMARK VINA RESULT:      -5.6     26.753     28.425
REMARK  Name = 75368692
REMARK  4 active torsions:
REMARK  status: ('A' for Active; 'I' for Inactive)
REMARK    1  A    between atoms: N_3  and  C_11
REMARK    2  A    between atoms: N_4  and  C_12
REMARK    3  A    between atoms: C_11  and  C_13
REMARK    4  A    between atoms: C_18  and  C_19
REMARK                            x       y       z     vdW  Elec       q    Type
REMARK                         _______ _______ _______ _____ _____    ______ ____
ROOT
ATOM      1  O   UNL     1      -3.550 -14.115  14.409  0.00  0.00    -0.252 OA
ATOM      2  N   UNL     1      -4.116 -12.499  16.017  0.00  0.00    -0.278 N 
ATOM      3  N   UNL     1      -2.664 -11.929  14.401  0.00  0.00    -0.279 N 
ATOM      4  N   UNL     1      -5.721 -10.956  17.735  0.00  0.00    -0.302 NA
ATOM      5  C   UNL     1      -3.682 -11.165  16.372  0.00  0.00    +0.109 C 
ATOM      6  C   UNL     1      -2.882 -10.707  15.154  0.00  0.00    +0.133 C 
ATOM      7  C   UNL     1      -4.887 -10.288  16.716  0.00  0.00    +0.108 C 
ATOM      8  C   UNL     1      -5.057 -13.191  16.873  0.00  0.00    +0.125 C 
ATOM      9  C   UNL     1      -6.214 -12.258  17.240  0.00  0.00    +0.103 C 
ATOM     10  C   UNL     1      -3.453 -12.992  14.885  0.00  0.00    +0.305 C 
ATOM     12  C   UNL     1      -6.844 -10.099  18.115  0.00  0.00    +0.105 C 
ENDROOT
BRANCH   3  11
ATOM     11  C   UNL     1      -1.842 -11.961  13.212  0.00  0.00    +0.144 C 
BRANCH  11  13
ATOM     13  C   UNL     1      -2.452 -11.178  12.086  0.00  0.00    -0.030 A 
ATOM     14  C   UNL     1      -1.864  -9.985  11.667  0.00  0.00    +0.005 A 
ATOM     15  C   UNL     1      -3.610 -11.642  11.460  0.00  0.00    +0.005 A 
ATOM     16  C   UNL     1      -2.432  -9.255  10.623  0.00  0.00    +0.003 A 
ATOM     17  C   UNL     1      -4.179 -10.913  10.417  0.00  0.00    +0.003 A 
ATOM     18  C   UNL     1      -3.590  -9.719   9.998  0.00  0.00    -0.050 A 
ATOM     19  C   UNL     1      -4.198  -8.938   8.883  0.00  0.00    +0.044 C 
ENDBRANCH  11  13
ENDBRANCH   3  11
TORSDOF 2
ENDMDL
MODEL 6
REMARK VINA RESULT:      -5.3     13.104     15.678
REMARK  Name = 75368692
REMARK  4 active torsions:
REMARK  status: ('A' for Active; 'I' for Inactive)
REMARK    1  A    between atoms: N_3  and  C_11
REMARK    2  A    between atoms: N_4  and  C_12
REMARK    3  A    between atoms: C_11  and  C_13
REMARK    4  A    between atoms: C_18  and  C_19
REMARK                            x       y       z     vdW  Elec       q    Type
REMARK                         _______ _______ _______ _____ _____    ______ ____
ROOT
ATOM      1  O   UNL     1      11.613   8.072   3.874  0.00  0.00    -0.252 OA
ATOM      2  N   UNL     1      12.275   6.110   2.764  0.00  0.00    -0.278 N 
ATOM      3  N   UNL     1      10.344   6.084   3.911  0.00  0.00    -0.279 N 
ATOM      4  N   UNL     1      13.268   4.464   0.712  0.00  0.00    -0.302 NA
ATOM      5  C   UNL     1      11.825   4.736   2.688  0.00  0.00    +0.109 C 
ATOM      6  C   UNL     1      10.413   4.784   3.267  0.00  0.00    +0.133 C 
ATOM      7  C   UNL     1      11.912   4.228   1.248  0.00  0.00    +0.108 C 
ATOM      8  C   UNL     1      13.526   6.484   2.137  0.00  0.00    +0.125 C 
ATOM      9  C   UNL     1      13.595   5.905   0.722  0.00  0.00    +0.103 C 
ATOM     10  C   UNL     1      11.436   6.903   3.559  0.00  0.00    +0.305 C 
ATOM     12  C   UNL     1      13.380   3.927  -0.644  0.00  0.00    +0.105 C 
ENDROOT
BRANCH   3  11
ATOM     11  C   UNL     1       9.196   6.496   4.688  0.00  0.00    +0.144 C 
BRANCH  11  13
ATOM     13  C   UNL     1       9.291   6.038   6.115  0.00  0.00    -0.030 A 
ATOM     14  C   UNL     1       9.737   4.749   6.405  0.00  0.00    +0.005 A 
ATOM     15  C   UNL     1       8.929   6.900   7.151  0.00  0.00    +0.005 A 
ATOM     16  C   UNL     1       9.823   4.322   7.731  0.00  0.00    +0.003 A 
ATOM     17  C   UNL     1       9.014   6.474   8.476  0.00  0.00    +0.003 A 
ATOM     18  C   UNL     1       9.461   5.185   8.766  0.00  0.00    -0.050 A 
ATOM     19  C   UNL     1       9.552   4.727  10.182  0.00  0.00    +0.044 C 
ENDBRANCH  11  13
ENDBRANCH   3  11
TORSDOF 2
ENDMDL
MODEL 7
REMARK VINA RESULT:      -5.0     13.168     15.923
REMARK  Name = 75368692
REMARK  4 active torsions:
REMARK  status: ('A' for Active; 'I' for Inactive)
REMARK    1  A    between atoms: N_3  and  C_11
REMARK    2  A    between atoms: N_4  and  C_12
REMARK    3  A    between atoms: C_11  and  C_13
REMARK    4  A    between atoms: C_18  and  C_19
REMARK                            x       y       z     vdW  Elec       q    Type
REMARK                         _______ _______ _______ _____ _____    ______ ____
ROOT
ATOM      1  O   UNL     1       9.021   8.568   3.903  0.00  0.00    -0.252 OA
ATOM      2  N   UNL     1       8.915   6.917   5.570  0.00  0.00    -0.278 N 
ATOM      3  N   UNL     1       9.671   6.330   3.538  0.00  0.00    -0.279 N 
ATOM      4  N   UNL     1       9.192   5.719   8.099  0.00  0.00    -0.302 NA
ATOM      5  C   UNL     1       9.101   5.483   5.651  0.00  0.00    +0.109 C 
ATOM      6  C   UNL     1       9.827   5.137   4.352  0.00  0.00    +0.133 C 
ATOM      7  C   UNL     1       9.859   5.117   6.927  0.00  0.00    +0.108 C 
ATOM      8  C   UNL     1       8.406   7.633   6.721  0.00  0.00    +0.125 C 
ATOM      9  C   UNL     1       9.151   7.192   7.983  0.00  0.00    +0.103 C 
ATOM     10  C   UNL     1       9.179   7.417   4.287  0.00  0.00    +0.305 C 
ATOM     12  C   UNL     1       9.874   5.325   9.332  0.00  0.00    +0.105 C 
ENDROOT
BRANCH   3  11
ATOM     11  C   UNL     1      10.126   6.387   2.166  0.00  0.00    +0.144 C 
BRANCH  11  13
ATOM     13  C   UNL     1      11.422   5.654   1.973  0.00  0.00    -0.030 A 
ATOM     14  C   UNL     1      12.632   6.298   2.231  0.00  0.00    +0.005 A 
ATOM     15  C   UNL     1      11.417   4.330   1.534  0.00  0.00    +0.005 A 
ATOM     16  C   UNL     1      13.837   5.619   2.049  0.00  0.00    +0.003 A 
ATOM     17  C   UNL     1      12.621   3.650   1.352  0.00  0.00    +0.003 A 
ATOM     18  C   UNL     1      13.831   4.294   1.609  0.00  0.00    -0.050 A 
ATOM     19  C   UNL     1      15.119   3.569   1.414  0.00  0.00    +0.044 C 
ENDBRANCH  11  13
ENDBRANCH   3  11
TORSDOF 2
ENDMDL
MODEL 8
REMARK VINA RESULT:      -4.9     16.043     18.675
REMARK  Name = 75368692
REMARK  4 active torsions:
REMARK  status: ('A' for Active; 'I' for Inactive)
REMARK    1  A    between atoms: N_3  and  C_11
REMARK    2  A    between atoms: N_4  and  C_12
REMARK    3  A    between atoms: C_11  and  C_13
REMARK    4  A    between atoms: C_18  and  C_19
REMARK                            x       y       z     vdW  Elec       q    Type
REMARK                         _______ _______ _______ _____ _____    ______ ____
ROOT
ATOM      1  O   UNL     1      13.721   6.476   1.759  0.00  0.00    -0.252 OA
ATOM      2  N   UNL     1      11.691   5.979   2.831  0.00  0.00    -0.278 N 
ATOM      3  N   UNL     1      12.787   4.310   1.802  0.00  0.00    -0.279 N 
ATOM      4  N   UNL     1       9.706   5.981   4.823  0.00  0.00    -0.302 NA
ATOM      5  C   UNL     1      10.803   4.841   2.937  0.00  0.00    +0.109 C 
ATOM      6  C   UNL     1      11.651   3.671   2.444  0.00  0.00    +0.133 C 
ATOM      7  C   UNL     1      10.287   4.702   4.370  0.00  0.00    +0.108 C 
ATOM      8  C   UNL     1      11.280   7.255   3.381  0.00  0.00    +0.125 C 
ATOM      9  C   UNL     1      10.716   7.059   4.790  0.00  0.00    +0.103 C 
ATOM     10  C   UNL     1      12.842   5.690   2.086  0.00  0.00    +0.305 C 
ATOM     12  C   UNL     1       9.155   5.842   6.171  0.00  0.00    +0.105 C 
ENDROOT
BRANCH   3  11
ATOM     11  C   UNL     1      13.795   3.552   1.095  0.00  0.00    +0.144 C 
BRANCH  11  13
ATOM     13  C   UNL     1      13.567   3.563  -0.389  0.00  0.00    -0.030 A 
ATOM     14  C   UNL     1      14.403   4.313  -1.217  0.00  0.00    +0.005 A 
ATOM     15  C   UNL     1      12.519   2.827  -0.940  0.00  0.00    +0.005 A 
ATOM     16  C   UNL     1      14.191   4.326  -2.596  0.00  0.00    +0.003 A 
ATOM     17  C   UNL     1      12.305   2.839  -2.319  0.00  0.00    +0.003 A 
ATOM     18  C   UNL     1      13.141   3.589  -3.146  0.00  0.00    -0.050 A 
ATOM     19  C   UNL     1      12.914   3.605  -4.620  0.00  0.00    +0.044 C 
ENDBRANCH  11  13
ENDBRANCH   3  11
TORSDOF 2
ENDMDL
MODEL 9
REMARK VINA RESULT:      -4.9     32.272     34.579
REMARK  Name = 75368692
REMARK  4 active torsions:
REMARK  status: ('A' for Active; 'I' for Inactive)
REMARK    1  A    between atoms: N_3  and  C_11
REMARK    2  A    between atoms: N_4  and  C_12
REMARK    3  A    between atoms: C_11  and  C_13
REMARK    4  A    between atoms: C_18  and  C_19
REMARK                            x       y       z     vdW  Elec       q    Type
REMARK                         _______ _______ _______ _____ _____    ______ ____
ROOT
ATOM      1  O   UNL     1      -6.052  -4.540  43.739  0.00  0.00    -0.252 OA
ATOM      2  N   UNL     1      -4.717  -5.618  42.134  0.00  0.00    -0.278 N 
ATOM      3  N   UNL     1      -6.949  -5.726  41.908  0.00  0.00    -0.279 N 
ATOM      4  N   UNL     1      -2.619  -6.015  40.304  0.00  0.00    -0.302 NA
ATOM      5  C   UNL     1      -4.927  -6.503  41.008  0.00  0.00    +0.109 C 
ATOM      6  C   UNL     1      -6.423  -6.384  40.725  0.00  0.00    +0.133 C 
ATOM      7  C   UNL     1      -4.019  -6.106  39.843  0.00  0.00    +0.108 C 
ATOM      8  C   UNL     1      -3.367  -5.338  42.576  0.00  0.00    +0.125 C 
ATOM      9  C   UNL     1      -2.481  -5.004  41.373  0.00  0.00    +0.103 C 
ATOM     10  C   UNL     1      -5.922  -5.212  42.724  0.00  0.00    +0.305 C 
ATOM     12  C   UNL     1      -1.734  -5.694  39.184  0.00  0.00    +0.105 C 
ENDROOT
BRANCH   3  11
ATOM     11  C   UNL     1      -8.367  -5.514  42.101  0.00  0.00    +0.144 C 
BRANCH  11  13
ATOM     13  C   UNL     1      -8.904  -4.446  41.192  0.00  0.00    -0.030 A 
ATOM     14  C   UNL     1      -9.655  -4.799  40.071  0.00  0.00    +0.005 A 
ATOM     15  C   UNL     1      -8.650  -3.103  41.468  0.00  0.00    +0.005 A 
ATOM     16  C   UNL     1     -10.152  -3.807  39.225  0.00  0.00    +0.003 A 
ATOM     17  C   UNL     1      -9.147  -2.111  40.622  0.00  0.00    +0.003 A 
ATOM     18  C   UNL     1      -9.898  -2.463  39.501  0.00  0.00    -0.050 A 
ATOM     19  C   UNL     1     -10.429  -1.404  38.594  0.00  0.00    +0.044 C 
ENDBRANCH  11  13
ENDBRANCH   3  11
TORSDOF 2
ENDMDL
MODEL 10
REMARK VINA RESULT:      -4.8     28.419     30.142
REMARK  Name = 75368692
REMARK  4 active torsions:
REMARK  status: ('A' for Active; 'I' for Inactive)
REMARK    1  A    between atoms: N_3  and  C_11
REMARK    2  A    between atoms: N_4  and  C_12
REMARK    3  A    between atoms: C_11  and  C_13
REMARK    4  A    between atoms: C_18  and  C_19
REMARK                            x       y       z     vdW  Elec       q    Type
REMARK                         _______ _______ _______ _____ _____    ______ ____
ROOT
ATOM      1  O   UNL     1      -7.418  -9.071  17.040  0.00  0.00    -0.252 OA
ATOM      2  N   UNL     1      -9.091 -10.328  18.109  0.00  0.00    -0.278 N 
ATOM      3  N   UNL     1      -6.947 -10.761  18.617  0.00  0.00    -0.279 N 
ATOM      4  N   UNL     1     -11.495 -10.888  19.457  0.00  0.00    -0.302 NA
ATOM      5  C   UNL     1      -9.151 -11.475  18.990  0.00  0.00    +0.109 C 
ATOM      6  C   UNL     1      -7.719 -11.612  19.505  0.00  0.00    +0.133 C 
ATOM      7  C   UNL     1     -10.206 -11.258  20.075  0.00  0.00    +0.108 C 
ATOM      8  C   UNL     1     -10.319  -9.786  17.564  0.00  0.00    +0.125 C 
ATOM      9  C   UNL     1     -11.364  -9.642  18.672  0.00  0.00    +0.103 C 
ATOM     10  C   UNL     1      -7.774  -9.945  17.820  0.00  0.00    +0.305 C 
ATOM     12  C   UNL     1     -12.527 -10.737  20.482  0.00  0.00    +0.105 C 
ENDROOT
BRANCH   3  11
ATOM     11  C   UNL     1      -5.504 -10.687  18.690  0.00  0.00    +0.144 C 
BRANCH  11  13
ATOM     13  C   UNL     1      -4.851 -11.233  17.453  0.00  0.00    -0.030 A 
ATOM     14  C   UNL     1      -5.091 -12.550  17.063  0.00  0.00    +0.005 A 
ATOM     15  C   UNL     1      -4.002 -10.425  16.696  0.00  0.00    +0.005 A 
ATOM     16  C   UNL     1      -4.482 -13.060  15.915  0.00  0.00    +0.003 A 
ATOM     17  C   UNL     1      -3.393 -10.934  15.549  0.00  0.00    +0.003 A 
ATOM     18  C   UNL     1      -3.633 -12.251  15.159  0.00  0.00    -0.050 A 
ATOM     19  C   UNL     1      -2.982 -12.797  13.933  0.00  0.00    +0.044 C 
ENDBRANCH  11  13
ENDBRANCH   3  11
TORSDOF 2
ENDMDL
