MODEL 1
REMARK VINA RESULT:      -7.2      0.000      0.000
REMARK  Name = 11865838
REMARK  10 active torsions:
REMARK  status: ('A' for Active; 'I' for Inactive)
REMARK    1  A    between atoms: N_8  and  C_12
REMARK    2  A    between atoms: N_9  and  C_18
REMARK    3  A    between atoms: N_10  and  C_25
REMARK    4  A    between atoms: C_13  and  C_16
REMARK    5  A    between atoms: C_17  and  C_20
REMARK    6  A    between atoms: C_18  and  C_21
REMARK    7  A    between atoms: C_18  and  C_22
REMARK    8  A    between atoms: C_21  and  C_24
REMARK    9  A    between atoms: C_23  and  C_26
REMARK   10  A    between atoms: C_23  and  C_27
REMARK                            x       y       z     vdW  Elec       q    Type
REMARK                         _______ _______ _______ _____ _____    ______ ____
ROOT
ATOM      4  O   UNL     1     -14.733  -0.207  29.558  0.00  0.00    -0.271 OA
ATOM      7  N   UNL     1     -15.883   1.619  28.724  0.00  0.00    -0.285 N 
ATOM     12  C   UNL     1     -17.052   3.072  27.250  0.00  0.00    +0.105 C 
ATOM     13  C   UNL     1     -16.043   3.039  28.402  0.00  0.00    +0.182 C 
ATOM     14  C   UNL     1     -17.889   1.812  27.476  0.00  0.00    +0.043 C 
ATOM     15  C   UNL     1     -16.888   0.813  28.039  0.00  0.00    +0.111 C 
ATOM     17  C   UNL     1     -14.868   1.011  29.443  0.00  0.00    +0.240 C 
ENDROOT
BRANCH  12   8
ATOM      5  O   UNL     1     -16.673   5.258  25.438  0.00  0.00    -0.252 OA
ATOM      8  N   UNL     1     -16.384   3.027  25.970  0.00  0.00    -0.294 N 
ATOM     10  N   UNL     1     -15.556   3.802  23.974  0.00  0.00    -0.267 N 
ATOM     19  C   UNL     1     -16.242   4.146  25.143  0.00  0.00    +0.304 C 
ATOM     38  H   UNL     1     -15.941   2.159  25.684  0.00  0.00    +0.151 HD
ATOM     40  H   UNL     1     -15.266   2.832  23.882  0.00  0.00    +0.156 HD
BRANCH  10  25
ATOM      1  F   UNL     1     -12.935   4.654  23.566  0.00  0.00    -0.203 F 
ATOM      2  F   UNL     1     -14.216   7.097  19.724  0.00  0.00    -0.205 F 
ATOM     25  C   UNL     1     -15.212   4.643  22.890  0.00  0.00    +0.070 A 
ATOM     30  C   UNL     1     -13.891   5.053  22.714  0.00  0.00    +0.147 A 
ATOM     31  C   UNL     1     -16.197   5.062  21.996  0.00  0.00    +0.029 A 
ATOM     35  C   UNL     1     -13.554   5.882  21.644  0.00  0.00    +0.078 A 
ATOM     36  C   UNL     1     -15.861   5.891  20.926  0.00  0.00    +0.040 A 
ATOM     37  C   UNL     1     -14.540   6.301  20.750  0.00  0.00    +0.126 A 
ENDBRANCH  10  25
ENDBRANCH  12   8
BRANCH  13  16
ATOM      3  O   UNL     1     -17.553   3.227  30.243  0.00  0.00    -0.274 OA
ATOM      9  N   UNL     1     -15.978   4.908  29.901  0.00  0.00    -0.302 N 
ATOM     16  C   UNL     1     -16.614   3.712  29.616  0.00  0.00    +0.236 C 
ATOM     39  H   UNL     1     -15.193   5.201  29.326  0.00  0.00    +0.150 HD
BRANCH   9  18
ATOM     18  C   UNL     1     -16.354   5.759  31.006  0.00  0.00    +0.163 C 
BRANCH  18  22
ATOM      6  O   UNL     1     -17.945   7.072  29.723  0.00  0.00    -0.274 OA
ATOM     11  N   UNL     1     -18.705   5.904  31.550  0.00  0.00    -0.328 N 
ATOM     22  C   UNL     1     -17.724   6.335  30.682  0.00  0.00    +0.231 C 
ATOM     41  H   UNL     1     -19.668   6.205  31.439  0.00  0.00    +0.145 HD
ATOM     42  H   UNL     1     -18.512   5.277  32.324  0.00  0.00    +0.145 HD
ENDBRANCH  18  22
BRANCH  18  21
ATOM     21  C   UNL     1     -16.397   4.998  32.336  0.00  0.00    +0.067 C 
BRANCH  21  24
ATOM     24  C   UNL     1     -15.370   5.493  33.325  0.00  0.00    -0.045 A 
ATOM     28  C   UNL     1     -14.666   6.671  33.069  0.00  0.00    +0.004 A 
ATOM     29  C   UNL     1     -15.124   4.774  34.495  0.00  0.00    +0.004 A 
ATOM     32  C   UNL     1     -13.717   7.128  33.984  0.00  0.00    +0.000 A 
ATOM     33  C   UNL     1     -14.175   5.232  35.409  0.00  0.00    +0.000 A 
ATOM     34  C   UNL     1     -13.472   6.409  35.154  0.00  0.00    +0.000 A 
ENDBRANCH  21  24
ENDBRANCH  18  21
ENDBRANCH   9  18
ENDBRANCH  13  16
BRANCH  17  20
ATOM     20  C   UNL     1     -13.892   1.895  30.109  0.00  0.00    +0.066 C 
ATOM     23  C   UNL     1     -13.898   2.193  31.419  0.00  0.00    -0.071 C 
ATOM     26  C   UNL     1     -14.960   1.606  32.315  0.00  0.00    +0.039 C 
ATOM     27  C   UNL     1     -12.923   3.086  32.134  0.00  0.00    +0.039 C 
ENDBRANCH  17  20
TORSDOF 8
ENDMDL
MODEL 2
REMARK VINA RESULT:      -6.9     30.881     33.613
REMARK  Name = 11865838
REMARK  10 active torsions:
REMARK  status: ('A' for Active; 'I' for Inactive)
REMARK    1  A    between atoms: N_8  and  C_12
REMARK    2  A    between atoms: N_9  and  C_18
REMARK    3  A    between atoms: N_10  and  C_25
REMARK    4  A    between atoms: C_13  and  C_16
REMARK    5  A    between atoms: C_17  and  C_20
REMARK    6  A    between atoms: C_18  and  C_21
REMARK    7  A    between atoms: C_18  and  C_22
REMARK    8  A    between atoms: C_21  and  C_24
REMARK    9  A    between atoms: C_23  and  C_26
REMARK   10  A    between atoms: C_23  and  C_27
REMARK                            x       y       z     vdW  Elec       q    Type
REMARK                         _______ _______ _______ _____ _____    ______ ____
ROOT
ATOM      4  O   UNL     1      15.491  12.713  21.860  0.00  0.00    -0.271 OA
ATOM      7  N   UNL     1      15.456  10.499  21.190  0.00  0.00    -0.285 N 
ATOM     12  C   UNL     1      15.790   8.146  21.147  0.00  0.00    +0.105 C 
ATOM     13  C   UNL     1      15.744   9.399  20.267  0.00  0.00    +0.182 C 
ATOM     14  C   UNL     1      14.862   8.497  22.311  0.00  0.00    +0.043 C 
ATOM     15  C   UNL     1      15.080   9.991  22.504  0.00  0.00    +0.111 C 
ATOM     17  C   UNL     1      15.631  11.857  20.988  0.00  0.00    +0.240 C 
ENDROOT
BRANCH  12   8
ATOM      5  O   UNL     1      17.815   6.644  19.787  0.00  0.00    -0.252 OA
ATOM      8  N   UNL     1      17.131   7.886  21.614  0.00  0.00    -0.294 N 
ATOM     10  N   UNL     1      19.270   7.052  21.585  0.00  0.00    -0.267 N 
ATOM     19  C   UNL     1      18.062   7.138  20.885  0.00  0.00    +0.304 C 
ATOM     38  H   UNL     1      17.435   8.316  22.482  0.00  0.00    +0.151 HD
ATOM     40  H   UNL     1      19.311   7.519  22.487  0.00  0.00    +0.156 HD
BRANCH  10  25
ATOM      1  F   UNL     1      21.511   8.463  20.719  0.00  0.00    -0.203 F 
ATOM      2  F   UNL     1      23.912   4.445  20.044  0.00  0.00    -0.205 F 
ATOM     25  C   UNL     1      20.456   6.389  21.191  0.00  0.00    +0.070 A 
ATOM     30  C   UNL     1      21.560   7.124  20.762  0.00  0.00    +0.147 A 
ATOM     31  C   UNL     1      20.519   4.996  21.234  0.00  0.00    +0.029 A 
ATOM     35  C   UNL     1      22.728   6.467  20.374  0.00  0.00    +0.078 A 
ATOM     36  C   UNL     1      21.687   4.339  20.846  0.00  0.00    +0.040 A 
ATOM     37  C   UNL     1      22.791   5.074  20.417  0.00  0.00    +0.126 A 
ENDBRANCH  10  25
ENDBRANCH  12   8
BRANCH  13  16
ATOM      3  O   UNL     1      14.709   9.699  18.135  0.00  0.00    -0.274 OA
ATOM      9  N   UNL     1      13.458   8.796  19.879  0.00  0.00    -0.302 N 
ATOM     16  C   UNL     1      14.601   9.317  19.298  0.00  0.00    +0.236 C 
ATOM     39  H   UNL     1      13.489   8.489  20.847  0.00  0.00    +0.150 HD
BRANCH   9  18
ATOM     18  C   UNL     1      12.212   8.633  19.165  0.00  0.00    +0.163 C 
BRANCH  18  22
ATOM      6  O   UNL     1      12.238   7.077  17.299  0.00  0.00    -0.274 OA
ATOM     11  N   UNL     1      12.330   6.233  19.434  0.00  0.00    -0.328 N 
ATOM     22  C   UNL     1      12.243   7.258  18.515  0.00  0.00    +0.231 C 
ATOM     41  H   UNL     1      12.370   5.266  19.133  0.00  0.00    +0.145 HD
ATOM     42  H   UNL     1      12.357   6.399  20.435  0.00  0.00    +0.145 HD
ENDBRANCH  18  22
BRANCH  18  21
ATOM     21  C   UNL     1      10.994   8.760  20.086  0.00  0.00    +0.067 C 
BRANCH  21  24
ATOM     24  C   UNL     1      11.215   9.739  21.213  0.00  0.00    -0.045 A 
ATOM     28  C   UNL     1      11.750  11.001  20.947  0.00  0.00    +0.004 A 
ATOM     29  C   UNL     1      10.884   9.384  22.521  0.00  0.00    +0.004 A 
ATOM     32  C   UNL     1      11.953  11.905  21.990  0.00  0.00    +0.000 A 
ATOM     33  C   UNL     1      11.087  10.289  23.562  0.00  0.00    +0.000 A 
ATOM     34  C   UNL     1      11.622  11.550  23.297  0.00  0.00    +0.000 A 
ENDBRANCH  21  24
ENDBRANCH  18  21
ENDBRANCH   9  18
ENDBRANCH  13  16
BRANCH  17  20
ATOM     20  C   UNL     1      16.010  12.293  19.629  0.00  0.00    +0.066 C 
ATOM     23  C   UNL     1      17.273  12.448  19.198  0.00  0.00    -0.071 C 
ATOM     26  C   UNL     1      18.422  12.170  20.134  0.00  0.00    +0.039 C 
ATOM     27  C   UNL     1      17.698  12.888  17.825  0.00  0.00    +0.039 C 
ENDBRANCH  17  20
TORSDOF 8
ENDMDL
MODEL 3
REMARK VINA RESULT:      -6.7     30.887     33.981
REMARK  Name = 11865838
REMARK  10 active torsions:
REMARK  status: ('A' for Active; 'I' for Inactive)
REMARK    1  A    between atoms: N_8  and  C_12
REMARK    2  A    between atoms: N_9  and  C_18
REMARK    3  A    between atoms: N_10  and  C_25
REMARK    4  A    between atoms: C_13  and  C_16
REMARK    5  A    between atoms: C_17  and  C_20
REMARK    6  A    between atoms: C_18  and  C_21
REMARK    7  A    between atoms: C_18  and  C_22
REMARK    8  A    between atoms: C_21  and  C_24
REMARK    9  A    between atoms: C_23  and  C_26
REMARK   10  A    between atoms: C_23  and  C_27
REMARK                            x       y       z     vdW  Elec       q    Type
REMARK                         _______ _______ _______ _____ _____    ______ ____
ROOT
ATOM      4  O   UNL     1      16.262  14.536  19.962  0.00  0.00    -0.271 OA
ATOM      7  N   UNL     1      15.768  12.279  20.092  0.00  0.00    -0.285 N 
ATOM     12  C   UNL     1      15.796   9.995  20.747  0.00  0.00    +0.105 C 
ATOM     13  C   UNL     1      15.634  10.928  19.543  0.00  0.00    +0.182 C 
ATOM     14  C   UNL     1      15.310  10.845  21.922  0.00  0.00    +0.043 C 
ATOM     15  C   UNL     1      15.749  12.254  21.550  0.00  0.00    +0.111 C 
ATOM     17  C   UNL     1      16.031  13.458  19.415  0.00  0.00    +0.240 C 
ENDROOT
BRANCH  12   8
ATOM      5  O   UNL     1      16.788   7.340  21.165  0.00  0.00    -0.252 OA
ATOM      8  N   UNL     1      17.176   9.607  20.924  0.00  0.00    -0.294 N 
ATOM     10  N   UNL     1      18.966   8.212  21.265  0.00  0.00    -0.267 N 
ATOM     19  C   UNL     1      17.577   8.282  21.125  0.00  0.00    +0.304 C 
ATOM     38  H   UNL     1      17.895  10.318  20.837  0.00  0.00    +0.151 HD
ATOM     40  H   UNL     1      19.478   9.088  21.207  0.00  0.00    +0.156 HD
BRANCH  10  25
ATOM      1  F   UNL     1      18.949   6.073  19.479  0.00  0.00    -0.203 F 
ATOM      2  F   UNL     1      22.078   3.705  22.118  0.00  0.00    -0.205 F 
ATOM     25  C   UNL     1      19.760   7.060  21.481  0.00  0.00    +0.070 A 
ATOM     30  C   UNL     1      19.727   6.007  20.568  0.00  0.00    +0.147 A 
ATOM     31  C   UNL     1      20.576   6.981  22.609  0.00  0.00    +0.029 A 
ATOM     35  C   UNL     1      20.511   4.873  20.783  0.00  0.00    +0.078 A 
ATOM     36  C   UNL     1      21.360   5.847  22.824  0.00  0.00    +0.040 A 
ATOM     37  C   UNL     1      21.327   4.793  21.912  0.00  0.00    +0.126 A 
ENDBRANCH  10  25
ENDBRANCH  12   8
BRANCH  13  16
ATOM      3  O   UNL     1      13.336  11.546  19.340  0.00  0.00    -0.274 OA
ATOM      9  N   UNL     1      14.150   9.794  18.041  0.00  0.00    -0.302 N 
ATOM     16  C   UNL     1      14.250  10.811  18.974  0.00  0.00    +0.236 C 
ATOM     39  H   UNL     1      14.981   9.262  17.797  0.00  0.00    +0.150 HD
BRANCH   9  18
ATOM     18  C   UNL     1      12.919   9.461  17.363  0.00  0.00    +0.163 C 
BRANCH  18  22
ATOM      6  O   UNL     1      13.315   8.569  15.139  0.00  0.00    -0.274 OA
ATOM     11  N   UNL     1      13.233  10.849  15.408  0.00  0.00    -0.328 N 
ATOM     22  C   UNL     1      13.191   9.550  15.869  0.00  0.00    +0.231 C 
ATOM     41  H   UNL     1      13.395  11.049  14.427  0.00  0.00    +0.145 HD
ATOM     42  H   UNL     1      13.105  11.649  16.020  0.00  0.00    +0.145 HD
ENDBRANCH  18  22
BRANCH  18  21
ATOM     21  C   UNL     1      12.413   8.062  17.731  0.00  0.00    +0.067 C 
BRANCH  21  24
ATOM     24  C   UNL     1      12.131   7.912  19.206  0.00  0.00    -0.045 A 
ATOM     28  C   UNL     1      11.097   8.641  19.796  0.00  0.00    +0.004 A 
ATOM     29  C   UNL     1      12.904   7.046  19.980  0.00  0.00    +0.004 A 
ATOM     32  C   UNL     1      10.837   8.501  21.160  0.00  0.00    +0.000 A 
ATOM     33  C   UNL     1      12.643   6.908  21.343  0.00  0.00    +0.000 A 
ATOM     34  C   UNL     1      11.609   7.635  21.933  0.00  0.00    +0.000 A 
ENDBRANCH  21  24
ENDBRANCH  18  21
ENDBRANCH   9  18
ENDBRANCH  13  16
BRANCH  17  20
ATOM     20  C   UNL     1      16.030  13.402  17.940  0.00  0.00    +0.066 C 
ATOM     23  C   UNL     1      17.121  13.205  17.180  0.00  0.00    -0.071 C 
ATOM     26  C   UNL     1      18.466  13.024  17.836  0.00  0.00    +0.039 C 
ATOM     27  C   UNL     1      17.161  13.142  15.679  0.00  0.00    +0.039 C 
ENDBRANCH  17  20
TORSDOF 8
ENDMDL
MODEL 4
REMARK VINA RESULT:      -6.5     19.582     23.306
REMARK  Name = 11865838
REMARK  10 active torsions:
REMARK  status: ('A' for Active; 'I' for Inactive)
REMARK    1  A    between atoms: N_8  and  C_12
REMARK    2  A    between atoms: N_9  and  C_18
REMARK    3  A    between atoms: N_10  and  C_25
REMARK    4  A    between atoms: C_13  and  C_16
REMARK    5  A    between atoms: C_17  and  C_20
REMARK    6  A    between atoms: C_18  and  C_21
REMARK    7  A    between atoms: C_18  and  C_22
REMARK    8  A    between atoms: C_21  and  C_24
REMARK    9  A    between atoms: C_23  and  C_26
REMARK   10  A    between atoms: C_23  and  C_27
REMARK                            x       y       z     vdW  Elec       q    Type
REMARK                         _______ _______ _______ _____ _____    ______ ____
ROOT
ATOM      4  O   UNL     1      -4.746 -14.869  16.876  0.00  0.00    -0.271 OA
ATOM      7  N   UNL     1      -5.403 -12.671  17.177  0.00  0.00    -0.285 N 
ATOM     12  C   UNL     1      -6.312 -10.695  18.137  0.00  0.00    +0.105 C 
ATOM     13  C   UNL     1      -6.141 -11.457  16.819  0.00  0.00    +0.182 C 
ATOM     14  C   UNL     1      -5.104 -11.142  18.963  0.00  0.00    +0.043 C 
ATOM     15  C   UNL     1      -4.899 -12.590  18.543  0.00  0.00    +0.111 C 
ATOM     17  C   UNL     1      -5.273 -13.841  16.450  0.00  0.00    +0.240 C 
ENDROOT
BRANCH  12   8
ATOM      5  O   UNL     1      -8.899  -9.566  17.650  0.00  0.00    -0.252 OA
ATOM      8  N   UNL     1      -7.548 -11.055  18.791  0.00  0.00    -0.294 N 
ATOM     10  N   UNL     1      -9.790 -11.000  19.281  0.00  0.00    -0.267 N 
ATOM     19  C   UNL     1      -8.774 -10.451  18.493  0.00  0.00    +0.304 C 
ATOM     38  H   UNL     1      -7.541 -11.825  19.452  0.00  0.00    +0.151 HD
ATOM     40  H   UNL     1      -9.518 -11.729  19.936  0.00  0.00    +0.156 HD
BRANCH  10  25
ATOM      1  F   UNL     1     -11.470 -11.724  17.180  0.00  0.00    -0.203 F 
ATOM      2  F   UNL     1     -15.173  -9.680  19.297  0.00  0.00    -0.205 F 
ATOM     25  C   UNL     1     -11.164 -10.664  19.283  0.00  0.00    +0.070 A 
ATOM     30  C   UNL     1     -11.978 -11.041  18.216  0.00  0.00    +0.147 A 
ATOM     31  C   UNL     1     -11.704  -9.956  20.356  0.00  0.00    +0.029 A 
ATOM     35  C   UNL     1     -13.333 -10.708  18.220  0.00  0.00    +0.078 A 
ATOM     36  C   UNL     1     -13.059  -9.623  20.361  0.00  0.00    +0.040 A 
ATOM     37  C   UNL     1     -13.873  -9.999  19.293  0.00  0.00    +0.126 A 
ENDBRANCH  10  25
ENDBRANCH  12   8
BRANCH  13  16
ATOM      3  O   UNL     1      -5.736  -9.752  15.197  0.00  0.00    -0.274 OA
ATOM      9  N   UNL     1      -3.975 -11.131  15.846  0.00  0.00    -0.302 N 
ATOM     16  C   UNL     1      -5.282 -10.674  15.870  0.00  0.00    +0.236 C 
ATOM     39  H   UNL     1      -3.704 -11.889  16.465  0.00  0.00    +0.150 HD
BRANCH   9  18
ATOM     18  C   UNL     1      -2.954 -10.560  14.998  0.00  0.00    +0.163 C 
BRANCH  18  22
ATOM      6  O   UNL     1      -0.679  -9.854  15.472  0.00  0.00    -0.274 OA
ATOM     11  N   UNL     1      -1.786 -11.118  17.040  0.00  0.00    -0.328 N 
ATOM     22  C   UNL     1      -1.681 -10.472  15.826  0.00  0.00    +0.231 C 
ATOM     41  H   UNL     1      -1.010 -11.125  17.694  0.00  0.00    +0.145 HD
ATOM     42  H   UNL     1      -2.628 -11.605  17.328  0.00  0.00    +0.145 HD
ENDBRANCH  18  22
BRANCH  18  21
ATOM     21  C   UNL     1      -2.713 -11.396  13.736  0.00  0.00    +0.067 C 
BRANCH  21  24
ATOM     24  C   UNL     1      -2.945 -10.616  12.466  0.00  0.00    -0.045 A 
ATOM     28  C   UNL     1      -1.878  -9.971  11.838  0.00  0.00    +0.004 A 
ATOM     29  C   UNL     1      -4.225 -10.539  11.917  0.00  0.00    +0.004 A 
ATOM     32  C   UNL     1      -2.093  -9.250  10.663  0.00  0.00    +0.000 A 
ATOM     33  C   UNL     1      -4.439  -9.818  10.743  0.00  0.00    +0.000 A 
ATOM     34  C   UNL     1      -3.373  -9.174  10.115  0.00  0.00    +0.000 A 
ENDBRANCH  21  24
ENDBRANCH  18  21
ENDBRANCH   9  18
ENDBRANCH  13  16
BRANCH  17  20
ATOM     20  C   UNL     1      -5.807 -13.842  15.074  0.00  0.00    +0.066 C 
ATOM     23  C   UNL     1      -5.112 -14.208  13.983  0.00  0.00    -0.071 C 
ATOM     26  C   UNL     1      -3.680 -14.657  14.124  0.00  0.00    +0.039 C 
ATOM     27  C   UNL     1      -5.619 -14.223  12.567  0.00  0.00    +0.039 C 
ENDBRANCH  17  20
TORSDOF 8
ENDMDL
MODEL 5
REMARK VINA RESULT:      -6.5     33.496     37.839
REMARK  Name = 11865838
REMARK  10 active torsions:
REMARK  status: ('A' for Active; 'I' for Inactive)
REMARK    1  A    between atoms: N_8  and  C_12
REMARK    2  A    between atoms: N_9  and  C_18
REMARK    3  A    between atoms: N_10  and  C_25
REMARK    4  A    between atoms: C_13  and  C_16
REMARK    5  A    between atoms: C_17  and  C_20
REMARK    6  A    between atoms: C_18  and  C_21
REMARK    7  A    between atoms: C_18  and  C_22
REMARK    8  A    between atoms: C_21  and  C_24
REMARK    9  A    between atoms: C_23  and  C_26
REMARK   10  A    between atoms: C_23  and  C_27
REMARK                            x       y       z     vdW  Elec       q    Type
REMARK                         _______ _______ _______ _____ _____    ______ ____
ROOT
ATOM      4  O   UNL     1      11.159   7.069   0.427  0.00  0.00    -0.271 OA
ATOM      7  N   UNL     1      11.695   7.272   2.668  0.00  0.00    -0.285 N 
ATOM     12  C   UNL     1      12.576   8.101   4.714  0.00  0.00    +0.105 C 
ATOM     13  C   UNL     1      12.300   6.818   3.923  0.00  0.00    +0.182 C 
ATOM     14  C   UNL     1      11.511   9.071   4.201  0.00  0.00    +0.043 C 
ATOM     15  C   UNL     1      11.356   8.689   2.736  0.00  0.00    +0.111 C 
ATOM     17  C   UNL     1      11.559   6.575   1.480  0.00  0.00    +0.240 C 
ENDROOT
BRANCH  12   8
ATOM      5  O   UNL     1      15.027   7.146   5.850  0.00  0.00    -0.252 OA
ATOM      8  N   UNL     1      13.904   8.602   4.448  0.00  0.00    -0.294 N 
ATOM     10  N   UNL     1      16.189   8.760   4.602  0.00  0.00    -0.267 N 
ATOM     19  C   UNL     1      15.054   8.077   5.049  0.00  0.00    +0.304 C 
ATOM     38  H   UNL     1      14.017   9.326   3.746  0.00  0.00    +0.151 HD
ATOM     40  H   UNL     1      16.039   9.512   3.934  0.00  0.00    +0.156 HD
BRANCH  10  25
ATOM      1  F   UNL     1      18.065   7.842   2.758  0.00  0.00    -0.203 F 
ATOM      2  F   UNL     1      21.468   7.878   6.042  0.00  0.00    -0.205 F 
ATOM     25  C   UNL     1      17.537   8.534   4.967  0.00  0.00    +0.070 A 
ATOM     30  C   UNL     1      18.451   8.074   4.021  0.00  0.00    +0.147 A 
ATOM     31  C   UNL     1      17.951   8.774   6.278  0.00  0.00    +0.029 A 
ATOM     35  C   UNL     1      19.780   7.852   4.384  0.00  0.00    +0.078 A 
ATOM     36  C   UNL     1      19.279   8.552   6.641  0.00  0.00    +0.040 A 
ATOM     37  C   UNL     1      20.193   8.091   5.694  0.00  0.00    +0.126 A 
ENDBRANCH  10  25
ENDBRANCH  12   8
BRANCH  13  16
ATOM      3  O   UNL     1      10.875   4.917   4.159  0.00  0.00    -0.274 OA
ATOM      9  N   UNL     1      10.866   6.545   5.824  0.00  0.00    -0.302 N 
ATOM     16  C   UNL     1      11.281   5.976   4.632  0.00  0.00    +0.236 C 
ATOM     39  H   UNL     1      11.289   7.417   6.130  0.00  0.00    +0.150 HD
BRANCH   9  18
ATOM     18  C   UNL     1       9.874   5.943   6.684  0.00  0.00    +0.163 C 
BRANCH  18  22
ATOM      6  O   UNL     1      11.483   5.829   8.501  0.00  0.00    -0.274 OA
ATOM     11  N   UNL     1      10.191   3.981   8.062  0.00  0.00    -0.328 N 
ATOM     22  C   UNL     1      10.620   5.270   7.827  0.00  0.00    +0.231 C 
ATOM     41  H   UNL     1      10.598   3.424   8.805  0.00  0.00    +0.145 HD
ATOM     42  H   UNL     1       9.460   3.540   7.512  0.00  0.00    +0.145 HD
ENDBRANCH  18  22
BRANCH  18  21
ATOM     21  C   UNL     1       8.878   6.971   7.230  0.00  0.00    +0.067 C 
BRANCH  21  24
ATOM     24  C   UNL     1       8.531   8.039   6.222  0.00  0.00    -0.045 A 
ATOM     28  C   UNL     1       8.754   9.384   6.525  0.00  0.00    +0.004 A 
ATOM     29  C   UNL     1       7.987   7.685   4.987  0.00  0.00    +0.004 A 
ATOM     32  C   UNL     1       8.432  10.371   5.593  0.00  0.00    +0.000 A 
ATOM     33  C   UNL     1       7.666   8.671   4.057  0.00  0.00    +0.000 A 
ATOM     34  C   UNL     1       7.889  10.015   4.359  0.00  0.00    +0.000 A 
ENDBRANCH  21  24
ENDBRANCH  18  21
ENDBRANCH   9  18
ENDBRANCH  13  16
BRANCH  17  20
ATOM     20  C   UNL     1      11.921   5.144   1.494  0.00  0.00    +0.066 C 
ATOM     23  C   UNL     1      13.153   4.663   1.257  0.00  0.00    -0.071 C 
ATOM     26  C   UNL     1      14.281   5.614   0.950  0.00  0.00    +0.039 C 
ATOM     27  C   UNL     1      13.560   3.215   1.262  0.00  0.00    +0.039 C 
ENDBRANCH  17  20
TORSDOF 8
ENDMDL
MODEL 6
REMARK VINA RESULT:      -6.4     18.886     22.602
REMARK  Name = 11865838
REMARK  10 active torsions:
REMARK  status: ('A' for Active; 'I' for Inactive)
REMARK    1  A    between atoms: N_8  and  C_12
REMARK    2  A    between atoms: N_9  and  C_18
REMARK    3  A    between atoms: N_10  and  C_25
REMARK    4  A    between atoms: C_13  and  C_16
REMARK    5  A    between atoms: C_17  and  C_20
REMARK    6  A    between atoms: C_18  and  C_21
REMARK    7  A    between atoms: C_18  and  C_22
REMARK    8  A    between atoms: C_21  and  C_24
REMARK    9  A    between atoms: C_23  and  C_26
REMARK   10  A    between atoms: C_23  and  C_27
REMARK                            x       y       z     vdW  Elec       q    Type
REMARK                         _______ _______ _______ _____ _____    ______ ____
ROOT
ATOM      4  O   UNL     1      -7.907 -14.633  17.820  0.00  0.00    -0.271 OA
ATOM      7  N   UNL     1      -6.901 -12.571  17.522  0.00  0.00    -0.285 N 
ATOM     12  C   UNL     1      -6.298 -10.289  17.805  0.00  0.00    +0.105 C 
ATOM     13  C   UNL     1      -6.559 -11.372  16.753  0.00  0.00    +0.182 C 
ATOM     14  C   UNL     1      -5.823 -11.085  19.022  0.00  0.00    +0.043 C 
ATOM     15  C   UNL     1      -6.627 -12.375  18.941  0.00  0.00    +0.111 C 
ATOM     17  C   UNL     1      -7.535 -13.720  17.083  0.00  0.00    +0.240 C 
ENDROOT
BRANCH  12   8
ATOM      5  O   UNL     1      -8.255  -9.366  15.926  0.00  0.00    -0.252 OA
ATOM      8  N   UNL     1      -7.503  -9.552  18.105  0.00  0.00    -0.294 N 
ATOM     10  N   UNL     1      -9.475  -8.447  17.709  0.00  0.00    -0.267 N 
ATOM     19  C   UNL     1      -8.409  -9.136  17.124  0.00  0.00    +0.304 C 
ATOM     38  H   UNL     1      -7.737  -9.381  19.078  0.00  0.00    +0.151 HD
ATOM     40  H   UNL     1      -9.453  -8.341  18.720  0.00  0.00    +0.156 HD
BRANCH  10  25
ATOM      1  F   UNL     1     -11.965  -9.699  17.709  0.00  0.00    -0.203 F 
ATOM      2  F   UNL     1     -13.854  -6.178  15.178  0.00  0.00    -0.205 F 
ATOM     25  C   UNL     1     -10.594  -7.869  17.064  0.00  0.00    +0.070 A 
ATOM     30  C   UNL     1     -11.826  -8.522  17.081  0.00  0.00    +0.147 A 
ATOM     31  C   UNL     1     -10.463  -6.644  16.410  0.00  0.00    +0.029 A 
ATOM     35  C   UNL     1     -12.928  -7.951  16.444  0.00  0.00    +0.078 A 
ATOM     36  C   UNL     1     -11.565  -6.073  15.773  0.00  0.00    +0.040 A 
ATOM     37  C   UNL     1     -12.797  -6.726  15.790  0.00  0.00    +0.126 A 
ENDBRANCH  10  25
ENDBRANCH  12   8
BRANCH  13  16
ATOM      3  O   UNL     1      -4.793 -12.790  15.997  0.00  0.00    -0.274 OA
ATOM      9  N   UNL     1      -4.814 -10.561  15.325  0.00  0.00    -0.302 N 
ATOM     16  C   UNL     1      -5.303 -11.672  15.988  0.00  0.00    +0.236 C 
ATOM     39  H   UNL     1      -5.334  -9.689  15.369  0.00  0.00    +0.150 HD
BRANCH   9  18
ATOM     18  C   UNL     1      -3.604 -10.581  14.535  0.00  0.00    +0.163 C 
BRANCH  18  22
ATOM      6  O   UNL     1      -2.137 -10.721  16.467  0.00  0.00    -0.274 OA
ATOM     11  N   UNL     1      -2.030 -12.382  14.884  0.00  0.00    -0.328 N 
ATOM     22  C   UNL     1      -2.515 -11.199  15.400  0.00  0.00    +0.231 C 
ATOM     41  H   UNL     1      -1.308 -12.904  15.368  0.00  0.00    +0.145 HD
ATOM     42  H   UNL     1      -2.368 -12.777  14.012  0.00  0.00    +0.145 HD
ENDBRANCH  18  22
BRANCH  18  21
ATOM     21  C   UNL     1      -3.772 -11.378  13.237  0.00  0.00    +0.067 C 
BRANCH  21  24
ATOM     24  C   UNL     1      -3.887 -10.494  12.020  0.00  0.00    -0.045 A 
ATOM     28  C   UNL     1      -5.144 -10.095  11.564  0.00  0.00    +0.004 A 
ATOM     29  C   UNL     1      -2.737 -10.074  11.350  0.00  0.00    +0.004 A 
ATOM     32  C   UNL     1      -5.250  -9.277  10.438  0.00  0.00    +0.000 A 
ATOM     33  C   UNL     1      -2.844  -9.257  10.226  0.00  0.00    +0.000 A 
ATOM     34  C   UNL     1      -4.100  -8.858   9.769  0.00  0.00    +0.000 A 
ENDBRANCH  21  24
ENDBRANCH  18  21
ENDBRANCH   9  18
ENDBRANCH  13  16
BRANCH  17  20
ATOM     20  C   UNL     1      -7.774 -13.845  15.632  0.00  0.00    +0.066 C 
ATOM     23  C   UNL     1      -8.874 -13.408  14.996  0.00  0.00    -0.071 C 
ATOM     26  C   UNL     1      -9.973 -12.736  15.779  0.00  0.00    +0.039 C 
ATOM     27  C   UNL     1      -9.154 -13.517  13.523  0.00  0.00    +0.039 C 
ENDBRANCH  17  20
TORSDOF 8
ENDMDL
MODEL 7
REMARK VINA RESULT:      -6.3      2.286      3.536
REMARK  Name = 11865838
REMARK  10 active torsions:
REMARK  status: ('A' for Active; 'I' for Inactive)
REMARK    1  A    between atoms: N_8  and  C_12
REMARK    2  A    between atoms: N_9  and  C_18
REMARK    3  A    between atoms: N_10  and  C_25
REMARK    4  A    between atoms: C_13  and  C_16
REMARK    5  A    between atoms: C_17  and  C_20
REMARK    6  A    between atoms: C_18  and  C_21
REMARK    7  A    between atoms: C_18  and  C_22
REMARK    8  A    between atoms: C_21  and  C_24
REMARK    9  A    between atoms: C_23  and  C_26
REMARK   10  A    between atoms: C_23  and  C_27
REMARK                            x       y       z     vdW  Elec       q    Type
REMARK                         _______ _______ _______ _____ _____    ______ ____
ROOT
ATOM      4  O   UNL     1     -17.819   0.111  25.084  0.00  0.00    -0.271 OA
ATOM      7  N   UNL     1     -17.638   2.416  25.019  0.00  0.00    -0.285 N 
ATOM     12  C   UNL     1     -17.443   4.645  24.218  0.00  0.00    +0.105 C 
ATOM     13  C   UNL     1     -16.996   3.695  25.333  0.00  0.00    +0.182 C 
ATOM     14  C   UNL     1     -18.798   4.079  23.792  0.00  0.00    +0.043 C 
ATOM     15  C   UNL     1     -18.626   2.576  23.958  0.00  0.00    +0.111 C 
ATOM     17  C   UNL     1     -17.319   1.157  25.497  0.00  0.00    +0.240 C 
ENDROOT
BRANCH  12   8
ATOM      5  O   UNL     1     -15.634   6.743  23.489  0.00  0.00    -0.252 OA
ATOM      8  N   UNL     1     -16.508   4.635  23.118  0.00  0.00    -0.294 N 
ATOM     10  N   UNL     1     -14.868   5.413  21.712  0.00  0.00    -0.267 N 
ATOM     19  C   UNL     1     -15.656   5.707  22.829  0.00  0.00    +0.304 C 
ATOM     38  H   UNL     1     -16.418   3.788  22.566  0.00  0.00    +0.151 HD
ATOM     40  H   UNL     1     -15.011   4.505  21.277  0.00  0.00    +0.156 HD
BRANCH  10  25
ATOM      1  F   UNL     1     -12.164   5.143  22.324  0.00  0.00    -0.203 F 
ATOM      2  F   UNL     1     -11.027   8.617  19.324  0.00  0.00    -0.205 F 
ATOM     25  C   UNL     1     -13.886   6.230  21.103  0.00  0.00    +0.070 A 
ATOM     30  C   UNL     1     -12.541   6.070  21.433  0.00  0.00    +0.147 A 
ATOM     31  C   UNL     1     -14.266   7.196  20.172  0.00  0.00    +0.029 A 
ATOM     35  C   UNL     1     -11.575   6.876  20.831  0.00  0.00    +0.078 A 
ATOM     36  C   UNL     1     -13.300   8.003  19.571  0.00  0.00    +0.040 A 
ATOM     37  C   UNL     1     -11.955   7.843  19.900  0.00  0.00    +0.126 A 
ENDBRANCH  10  25
ENDBRANCH  12   8
BRANCH  13  16
ATOM      3  O   UNL     1     -18.714   4.000  26.964  0.00  0.00    -0.274 OA
ATOM      9  N   UNL     1     -16.565   4.763  27.435  0.00  0.00    -0.302 N 
ATOM     16  C   UNL     1     -17.534   4.153  26.657  0.00  0.00    +0.236 C 
ATOM     39  H   UNL     1     -15.611   4.814  27.088  0.00  0.00    +0.150 HD
BRANCH   9  18
ATOM     18  C   UNL     1     -16.832   5.311  28.745  0.00  0.00    +0.163 C 
BRANCH  18  22
ATOM      6  O   UNL     1     -17.763   7.383  27.882  0.00  0.00    -0.274 OA
ATOM     11  N   UNL     1     -19.073   6.072  29.240  0.00  0.00    -0.328 N 
ATOM     22  C   UNL     1     -17.905   6.377  28.575  0.00  0.00    +0.231 C 
ATOM     41  H   UNL     1     -19.873   6.694  29.199  0.00  0.00    +0.145 HD
ATOM     42  H   UNL     1     -19.184   5.226  29.790  0.00  0.00    +0.145 HD
ENDBRANCH  18  22
BRANCH  18  21
ATOM     21  C   UNL     1     -17.298   4.240  29.737  0.00  0.00    +0.067 C 
BRANCH  21  24
ATOM     24  C   UNL     1     -16.325   4.034  30.872  0.00  0.00    -0.045 A 
ATOM     28  C   UNL     1     -16.792   3.951  32.185  0.00  0.00    +0.004 A 
ATOM     29  C   UNL     1     -14.959   3.926  30.611  0.00  0.00    +0.004 A 
ATOM     32  C   UNL     1     -15.892   3.760  33.234  0.00  0.00    +0.000 A 
ATOM     33  C   UNL     1     -14.061   3.735  31.659  0.00  0.00    +0.000 A 
ATOM     34  C   UNL     1     -14.527   3.652  32.972  0.00  0.00    +0.000 A 
ENDBRANCH  21  24
ENDBRANCH  18  21
ENDBRANCH   9  18
ENDBRANCH  13  16
BRANCH  17  20
ATOM     20  C   UNL     1     -16.312   1.079  26.572  0.00  0.00    +0.066 C 
ATOM     23  C   UNL     1     -16.594   0.954  27.880  0.00  0.00    -0.071 C 
ATOM     26  C   UNL     1     -18.032   0.884  28.331  0.00  0.00    +0.039 C 
ATOM     27  C   UNL     1     -15.598   0.871  29.003  0.00  0.00    +0.039 C 
ENDBRANCH  17  20
TORSDOF 8
ENDMDL
MODEL 8
REMARK VINA RESULT:      -6.2     33.157     36.717
REMARK  Name = 11865838
REMARK  10 active torsions:
REMARK  status: ('A' for Active; 'I' for Inactive)
REMARK    1  A    between atoms: N_8  and  C_12
REMARK    2  A    between atoms: N_9  and  C_18
REMARK    3  A    between atoms: N_10  and  C_25
REMARK    4  A    between atoms: C_13  and  C_16
REMARK    5  A    between atoms: C_17  and  C_20
REMARK    6  A    between atoms: C_18  and  C_21
REMARK    7  A    between atoms: C_18  and  C_22
REMARK    8  A    between atoms: C_21  and  C_24
REMARK    9  A    between atoms: C_23  and  C_26
REMARK   10  A    between atoms: C_23  and  C_27
REMARK                            x       y       z     vdW  Elec       q    Type
REMARK                         _______ _______ _______ _____ _____    ______ ____
ROOT
ATOM      4  O   UNL     1      15.244  10.889   6.248  0.00  0.00    -0.271 OA
ATOM      7  N   UNL     1      13.673   9.223   5.913  0.00  0.00    -0.285 N 
ATOM     12  C   UNL     1      12.675   7.132   5.385  0.00  0.00    +0.105 C 
ATOM     13  C   UNL     1      12.476   8.648   5.294  0.00  0.00    +0.182 C 
ATOM     14  C   UNL     1      13.561   6.964   6.620  0.00  0.00    +0.043 C 
ATOM     15  C   UNL     1      14.456   8.195   6.589  0.00  0.00    +0.111 C 
ATOM     17  C   UNL     1      14.158  10.515   5.805  0.00  0.00    +0.240 C 
ENDROOT
BRANCH  12   8
ATOM      5  O   UNL     1      11.423   5.833   3.159  0.00  0.00    -0.252 OA
ATOM      8  N   UNL     1      13.330   6.621   4.204  0.00  0.00    -0.294 N 
ATOM     10  N   UNL     1      13.534   5.606   2.155  0.00  0.00    -0.267 N 
ATOM     19  C   UNL     1      12.642   5.996   3.158  0.00  0.00    +0.304 C 
ATOM     38  H   UNL     1      14.327   6.776   4.096  0.00  0.00    +0.151 HD
ATOM     40  H   UNL     1      14.517   5.815   2.309  0.00  0.00    +0.156 HD
BRANCH  10  25
ATOM      1  F   UNL     1      13.189   2.843   2.038  0.00  0.00    -0.203 F 
ATOM      2  F   UNL     1      12.376   3.034  -2.617  0.00  0.00    -0.205 F 
ATOM     25  C   UNL     1      13.238   4.947   0.938  0.00  0.00    +0.070 A 
ATOM     30  C   UNL     1      13.073   3.563   0.913  0.00  0.00    +0.147 A 
ATOM     31  C   UNL     1      13.112   5.686  -0.238  0.00  0.00    +0.029 A 
ATOM     35  C   UNL     1      12.781   2.916  -0.288  0.00  0.00    +0.078 A 
ATOM     36  C   UNL     1      12.820   5.040  -1.440  0.00  0.00    +0.040 A 
ATOM     37  C   UNL     1      12.655   3.655  -1.464  0.00  0.00    +0.126 A 
ENDBRANCH  10  25
ENDBRANCH  12   8
BRANCH  13  16
ATOM      3  O   UNL     1      11.421   9.427   7.290  0.00  0.00    -0.274 OA
ATOM      9  N   UNL     1      10.107   8.985   5.419  0.00  0.00    -0.302 N 
ATOM     16  C   UNL     1      11.297   9.071   6.121  0.00  0.00    +0.236 C 
ATOM     39  H   UNL     1      10.125   8.699   4.445  0.00  0.00    +0.150 HD
BRANCH   9  18
ATOM     18  C   UNL     1       8.824   9.315   5.997  0.00  0.00    +0.163 C 
BRANCH  18  22
ATOM      6  O   UNL     1       7.436  10.004   4.126  0.00  0.00    -0.274 OA
ATOM     11  N   UNL     1       8.411  11.628   5.427  0.00  0.00    -0.328 N 
ATOM     22  C   UNL     1       8.159  10.320   5.069  0.00  0.00    +0.231 C 
ATOM     41  H   UNL     1       8.017  12.398   4.897  0.00  0.00    +0.145 HD
ATOM     42  H   UNL     1       8.992  11.874   6.222  0.00  0.00    +0.145 HD
ENDBRANCH  18  22
BRANCH  18  21
ATOM     21  C   UNL     1       7.933   8.081   6.172  0.00  0.00    +0.067 C 
BRANCH  21  24
ATOM     24  C   UNL     1       8.680   6.896   6.734  0.00  0.00    -0.045 A 
ATOM     28  C   UNL     1       9.047   5.841   5.896  0.00  0.00    +0.004 A 
ATOM     29  C   UNL     1       9.006   6.854   8.090  0.00  0.00    +0.004 A 
ATOM     32  C   UNL     1       9.738   4.746   6.416  0.00  0.00    +0.000 A 
ATOM     33  C   UNL     1       9.696   5.759   8.608  0.00  0.00    +0.000 A 
ATOM     34  C   UNL     1      10.063   4.705   7.771  0.00  0.00    +0.000 A 
ENDBRANCH  21  24
ENDBRANCH  18  21
ENDBRANCH   9  18
ENDBRANCH  13  16
BRANCH  17  20
ATOM     20  C   UNL     1      13.305  11.499   5.109  0.00  0.00    +0.066 C 
ATOM     23  C   UNL     1      12.619  12.483   5.715  0.00  0.00    -0.071 C 
ATOM     26  C   UNL     1      12.694  12.633   7.213  0.00  0.00    +0.039 C 
ATOM     27  C   UNL     1      11.742  13.502   5.043  0.00  0.00    +0.039 C 
ENDBRANCH  17  20
TORSDOF 8
ENDMDL
MODEL 9
REMARK VINA RESULT:      -6.1      3.942     10.506
REMARK  Name = 11865838
REMARK  10 active torsions:
REMARK  status: ('A' for Active; 'I' for Inactive)
REMARK    1  A    between atoms: N_8  and  C_12
REMARK    2  A    between atoms: N_9  and  C_18
REMARK    3  A    between atoms: N_10  and  C_25
REMARK    4  A    between atoms: C_13  and  C_16
REMARK    5  A    between atoms: C_17  and  C_20
REMARK    6  A    between atoms: C_18  and  C_21
REMARK    7  A    between atoms: C_18  and  C_22
REMARK    8  A    between atoms: C_21  and  C_24
REMARK    9  A    between atoms: C_23  and  C_26
REMARK   10  A    between atoms: C_23  and  C_27
REMARK                            x       y       z     vdW  Elec       q    Type
REMARK                         _______ _______ _______ _____ _____    ______ ____
ROOT
ATOM      4  O   UNL     1     -17.381   9.204  23.658  0.00  0.00    -0.271 OA
ATOM      7  N   UNL     1     -16.934   6.935  23.595  0.00  0.00    -0.285 N 
ATOM     12  C   UNL     1     -16.959   4.613  24.101  0.00  0.00    +0.105 C 
ATOM     13  C   UNL     1     -16.054   5.765  23.652  0.00  0.00    +0.182 C 
ATOM     14  C   UNL     1     -18.340   5.027  23.591  0.00  0.00    +0.043 C 
ATOM     15  C   UNL     1     -18.332   6.543  23.729  0.00  0.00    +0.111 C 
ATOM     17  C   UNL     1     -16.581   8.273  23.571  0.00  0.00    +0.240 C 
ENDROOT
BRANCH  12   8
ATOM      5  O   UNL     1     -15.671   2.558  25.626  0.00  0.00    -0.252 OA
ATOM      8  N   UNL     1     -16.957   4.478  25.539  0.00  0.00    -0.294 N 
ATOM     10  N   UNL     1     -16.472   3.567  27.589  0.00  0.00    -0.267 N 
ATOM     19  C   UNL     1     -16.300   3.439  26.208  0.00  0.00    +0.304 C 
ATOM     38  H   UNL     1     -17.397   5.204  26.095  0.00  0.00    +0.151 HD
ATOM     40  H   UNL     1     -17.025   4.357  27.911  0.00  0.00    +0.156 HD
BRANCH  10  25
ATOM      1  F   UNL     1     -17.520   1.022  28.026  0.00  0.00    -0.203 F 
ATOM      2  F   UNL     1     -14.496   0.272  31.585  0.00  0.00    -0.205 F 
ATOM     25  C   UNL     1     -15.969   2.724  28.608  0.00  0.00    +0.070 A 
ATOM     30  C   UNL     1     -16.516   1.456  28.802  0.00  0.00    +0.147 A 
ATOM     31  C   UNL     1     -14.924   3.164  29.420  0.00  0.00    +0.029 A 
ATOM     35  C   UNL     1     -16.018   0.628  29.808  0.00  0.00    +0.078 A 
ATOM     36  C   UNL     1     -14.425   2.335  30.426  0.00  0.00    +0.040 A 
ATOM     37  C   UNL     1     -14.973   1.068  30.619  0.00  0.00    +0.126 A 
ENDBRANCH  10  25
ENDBRANCH  12   8
BRANCH  13  16
ATOM      3  O   UNL     1     -14.642   4.718  22.036  0.00  0.00    -0.274 OA
ATOM      9  N   UNL     1     -16.191   6.303  21.321  0.00  0.00    -0.302 N 
ATOM     16  C   UNL     1     -15.546   5.519  22.262  0.00  0.00    +0.236 C 
ATOM     39  H   UNL     1     -16.943   6.917  21.619  0.00  0.00    +0.150 HD
BRANCH   9  18
ATOM     18  C   UNL     1     -15.870   6.271  19.913  0.00  0.00    +0.163 C 
BRANCH  18  22
ATOM      6  O   UNL     1     -17.893   6.574  18.603  0.00  0.00    -0.274 OA
ATOM     11  N   UNL     1     -17.268   4.440  19.179  0.00  0.00    -0.328 N 
ATOM     22  C   UNL     1     -17.120   5.811  19.177  0.00  0.00    +0.231 C 
ATOM     41  H   UNL     1     -18.055   4.001  18.713  0.00  0.00    +0.145 HD
ATOM     42  H   UNL     1     -16.608   3.820  19.638  0.00  0.00    +0.145 HD
ENDBRANCH  18  22
BRANCH  18  21
ATOM     21  C   UNL     1     -15.417   7.639  19.390  0.00  0.00    +0.067 C 
BRANCH  21  24
ATOM     24  C   UNL     1     -13.930   7.706  19.143  0.00  0.00    -0.045 A 
ATOM     28  C   UNL     1     -13.445   8.219  17.939  0.00  0.00    +0.004 A 
ATOM     29  C   UNL     1     -13.039   7.256  20.117  0.00  0.00    +0.004 A 
ATOM     32  C   UNL     1     -12.070   8.281  17.711  0.00  0.00    +0.000 A 
ATOM     33  C   UNL     1     -11.665   7.318  19.889  0.00  0.00    +0.000 A 
ATOM     34  C   UNL     1     -11.180   7.831  18.686  0.00  0.00    +0.000 A 
ENDBRANCH  21  24
ENDBRANCH  18  21
ENDBRANCH   9  18
ENDBRANCH  13  16
BRANCH  17  20
ATOM     20  C   UNL     1     -15.146   8.589  23.432  0.00  0.00    +0.066 C 
ATOM     23  C   UNL     1     -14.643   9.522  22.606  0.00  0.00    -0.071 C 
ATOM     26  C   UNL     1     -15.573  10.331  21.738  0.00  0.00    +0.039 C 
ATOM     27  C   UNL     1     -13.191   9.872  22.436  0.00  0.00    +0.039 C 
ENDBRANCH  17  20
TORSDOF 8
ENDMDL
MODEL 10
REMARK VINA RESULT:      -6.1     19.473     22.993
REMARK  Name = 11865838
REMARK  10 active torsions:
REMARK  status: ('A' for Active; 'I' for Inactive)
REMARK    1  A    between atoms: N_8  and  C_12
REMARK    2  A    between atoms: N_9  and  C_18
REMARK    3  A    between atoms: N_10  and  C_25
REMARK    4  A    between atoms: C_13  and  C_16
REMARK    5  A    between atoms: C_17  and  C_20
REMARK    6  A    between atoms: C_18  and  C_21
REMARK    7  A    between atoms: C_18  and  C_22
REMARK    8  A    between atoms: C_21  and  C_24
REMARK    9  A    between atoms: C_23  and  C_26
REMARK   10  A    between atoms: C_23  and  C_27
REMARK                            x       y       z     vdW  Elec       q    Type
REMARK                         _______ _______ _______ _____ _____    ______ ____
ROOT
ATOM      4  O   UNL     1      -6.545 -12.589   9.602  0.00  0.00    -0.271 OA
ATOM      7  N   UNL     1      -6.595 -11.929  11.819  0.00  0.00    -0.285 N 
ATOM     12  C   UNL     1      -7.374 -11.186  13.938  0.00  0.00    +0.105 C 
ATOM     13  C   UNL     1      -6.210 -11.080  12.948  0.00  0.00    +0.182 C 
ATOM     14  C   UNL     1      -7.960 -12.569  13.648  0.00  0.00    +0.043 C 
ATOM     15  C   UNL     1      -7.769 -12.731  12.146  0.00  0.00    +0.111 C 
ATOM     17  C   UNL     1      -6.078 -11.936  10.535  0.00  0.00    +0.240 C 
ENDROOT
BRANCH  12   8
ATOM      5  O   UNL     1      -9.509 -10.423  15.689  0.00  0.00    -0.252 OA
ATOM      8  N   UNL     1      -8.353 -10.150  13.705  0.00  0.00    -0.294 N 
ATOM     10  N   UNL     1     -10.161  -8.799  14.124  0.00  0.00    -0.267 N 
ATOM     19  C   UNL     1      -9.368  -9.840  14.617  0.00  0.00    +0.304 C 
ATOM     38  H   UNL     1      -8.265  -9.577  12.872  0.00  0.00    +0.151 HD
ATOM     40  H   UNL     1      -9.911  -8.424  13.213  0.00  0.00    +0.156 HD
BRANCH  10  25
ATOM      1  F   UNL     1      -9.955  -6.366  15.466  0.00  0.00    -0.203 F 
ATOM      2  F   UNL     1     -14.561  -6.444  16.536  0.00  0.00    -0.205 F 
ATOM     25  C   UNL     1     -11.283  -8.196  14.740  0.00  0.00    +0.070 A 
ATOM     30  C   UNL     1     -11.146  -6.978  15.405  0.00  0.00    +0.147 A 
ATOM     31  C   UNL     1     -12.528  -8.822  14.681  0.00  0.00    +0.029 A 
ATOM     35  C   UNL     1     -12.254  -6.386  16.011  0.00  0.00    +0.078 A 
ATOM     36  C   UNL     1     -13.636  -8.230  15.288  0.00  0.00    +0.040 A 
ATOM     37  C   UNL     1     -13.499  -7.012  15.953  0.00  0.00    +0.126 A 
ENDBRANCH  10  25
ENDBRANCH  12   8
BRANCH  13  16
ATOM      3  O   UNL     1      -4.658 -12.843  13.378  0.00  0.00    -0.274 OA
ATOM      9  N   UNL     1      -4.253 -10.738  14.288  0.00  0.00    -0.302 N 
ATOM     16  C   UNL     1      -4.963 -11.664  13.543  0.00  0.00    +0.236 C 
ATOM     39  H   UNL     1      -4.588  -9.780  14.337  0.00  0.00    +0.150 HD
BRANCH   9  18
ATOM     18  C   UNL     1      -3.027 -11.056  14.982  0.00  0.00    +0.163 C 
BRANCH  18  22
ATOM      6  O   UNL     1      -1.733 -10.245  13.092  0.00  0.00    -0.274 OA
ATOM     11  N   UNL     1      -1.151  -9.546  15.202  0.00  0.00    -0.328 N 
ATOM     22  C   UNL     1      -1.912 -10.270  14.308  0.00  0.00    +0.231 C 
ATOM     41  H   UNL     1      -0.381  -8.969  14.882  0.00  0.00    +0.145 HD
ATOM     42  H   UNL     1      -1.324  -9.558  16.202  0.00  0.00    +0.145 HD
ENDBRANCH  18  22
BRANCH  18  21
ATOM     21  C   UNL     1      -3.098 -10.708  16.473  0.00  0.00    +0.067 C 
BRANCH  21  24
ATOM     24  C   UNL     1      -4.340 -11.246  17.140  0.00  0.00    -0.045 A 
ATOM     28  C   UNL     1      -4.613 -12.614  17.105  0.00  0.00    +0.004 A 
ATOM     29  C   UNL     1      -5.216 -10.377  17.790  0.00  0.00    +0.004 A 
ATOM     32  C   UNL     1      -5.762 -13.111  17.722  0.00  0.00    +0.000 A 
ATOM     33  C   UNL     1      -6.364 -10.874  18.406  0.00  0.00    +0.000 A 
ATOM     34  C   UNL     1      -6.637 -12.242  18.372  0.00  0.00    +0.000 A 
ENDBRANCH  21  24
ENDBRANCH  18  21
ENDBRANCH   9  18
ENDBRANCH  13  16
BRANCH  17  20
ATOM     20  C   UNL     1      -4.888 -11.100  10.283  0.00  0.00    +0.066 C 
ATOM     23  C   UNL     1      -4.920  -9.847   9.801  0.00  0.00    -0.071 C 
ATOM     26  C   UNL     1      -6.244  -9.204   9.476  0.00  0.00    +0.039 C 
ATOM     27  C   UNL     1      -3.732  -8.965   9.532  0.00  0.00    +0.039 C 
ENDBRANCH  17  20
TORSDOF 8
ENDMDL
