MODEL 1
REMARK VINA RESULT:      -8.1      0.000      0.000
REMARK  Name = 45783610
REMARK  6 active torsions:
REMARK  status: ('A' for Active; 'I' for Inactive)
REMARK    1  A    between atoms: S_1  and  N_10
REMARK    2  A    between atoms: S_1  and  C_27
REMARK    3  A    between atoms: N_5  and  C_16
REMARK    4  A    between atoms: C_12  and  C_17
REMARK    5  A    between atoms: C_16  and  C_18
REMARK    6  A    between atoms: C_19  and  C_20
REMARK                            x       y       z     vdW  Elec       q    Type
REMARK                         _______ _______ _______ _____ _____    ______ ____
ROOT
ATOM      2  O   UNL     1      16.214   5.860  18.442  0.00  0.00    -0.336 OA
ATOM      6  N   UNL     1      16.786   7.005  20.279  0.00  0.00    -0.190 NA
ATOM      9  N   UNL     1      17.525   5.474  18.748  0.00  0.00    -0.056 NA
ATOM     17  C   UNL     1      15.854   6.763  19.392  0.00  0.00    +0.245 A 
ATOM     19  C   UNL     1      17.791   6.192  19.843  0.00  0.00    +0.202 A 
ENDROOT
BRANCH  19  20
ATOM     10  N   UNL     1      22.215   4.218  20.457  0.00  0.00    -0.204 N 
ATOM     11  N   UNL     1      21.508   5.986  21.851  0.00  0.00    -0.239 NA
ATOM     20  C   UNL     1      19.052   6.122  20.523  0.00  0.00    +0.027 A 
ATOM     23  C   UNL     1      20.005   5.188  20.133  0.00  0.00    +0.056 A 
ATOM     24  C   UNL     1      19.326   6.988  21.576  0.00  0.00    +0.031 A 
ATOM     25  C   UNL     1      21.207   5.161  20.823  0.00  0.00    +0.138 A 
ATOM     26  C   UNL     1      20.557   6.880  22.202  0.00  0.00    +0.113 A 
ATOM     29  H   UNL     1      22.014   3.661  19.618  0.00  0.00    +0.175 HD
BRANCH  10   1
ATOM      1  S   UNL     1      23.094   3.436  21.715  0.00  0.00    +0.041 S 
ATOM      3  O   UNL     1      24.256   4.243  22.033  0.00  0.00    -0.155 OA
ATOM      4  O   UNL     1      22.203   2.982  22.764  0.00  0.00    -0.155 OA
ATOM     27  C   UNL     1      23.684   2.004  20.842  0.00  0.00    +0.218 C 
ENDBRANCH  10   1
ENDBRANCH  19  20
BRANCH  17  12
ATOM      5  N   UNL     1      14.290   8.575  20.071  0.00  0.00    -0.284 NA
ATOM     12  C   UNL     1      14.459   7.339  19.282  0.00  0.00    +0.146 C 
ATOM     13  C   UNL     1      14.093   7.740  17.842  0.00  0.00    +0.030 C 
ATOM     14  C   UNL     1      13.675   9.201  17.930  0.00  0.00    +0.017 C 
ATOM     15  C   UNL     1      13.273   9.370  19.382  0.00  0.00    +0.085 C 
BRANCH   5  16
ATOM     16  C   UNL     1      13.940   8.326  21.464  0.00  0.00    +0.159 C 
BRANCH  16  18
ATOM      7  N   UNL     1      12.494   6.282  21.362  0.00  0.00    -0.347 N 
ATOM      8  N   UNL     1      11.463   8.169  21.918  0.00  0.00    -0.239 NA
ATOM     18  C   UNL     1      12.614   7.625  21.591  0.00  0.00    +0.121 A 
ATOM     21  C   UNL     1      11.183   5.949  21.555  0.00  0.00    +0.104 A 
ATOM     22  C   UNL     1      10.567   7.130  21.897  0.00  0.00    +0.130 A 
ATOM     28  H   UNL     1      13.237   5.648  21.101  0.00  0.00    +0.167 HD
ENDBRANCH  16  18
ENDBRANCH   5  16
ENDBRANCH  17  12
TORSDOF 5
ENDMDL
MODEL 2
REMARK VINA RESULT:      -7.7      1.996      2.409
REMARK  Name = 45783610
REMARK  6 active torsions:
REMARK  status: ('A' for Active; 'I' for Inactive)
REMARK    1  A    between atoms: S_1  and  N_10
REMARK    2  A    between atoms: S_1  and  C_27
REMARK    3  A    between atoms: N_5  and  C_16
REMARK    4  A    between atoms: C_12  and  C_17
REMARK    5  A    between atoms: C_16  and  C_18
REMARK    6  A    between atoms: C_19  and  C_20
REMARK                            x       y       z     vdW  Elec       q    Type
REMARK                         _______ _______ _______ _____ _____    ______ ____
ROOT
ATOM      2  O   UNL     1      13.995   6.619  20.145  0.00  0.00    -0.336 OA
ATOM      6  N   UNL     1      15.640   7.638  19.017  0.00  0.00    -0.190 NA
ATOM      9  N   UNL     1      15.142   6.500  20.939  0.00  0.00    -0.056 NA
ATOM     17  C   UNL     1      14.376   7.302  19.032  0.00  0.00    +0.245 A 
ATOM     19  C   UNL     1      16.070   7.125  20.206  0.00  0.00    +0.202 A 
ENDROOT
BRANCH  19  20
ATOM     10  N   UNL     1      20.654   5.457  20.430  0.00  0.00    -0.204 N 
ATOM     11  N   UNL     1      20.089   7.500  21.468  0.00  0.00    -0.239 NA
ATOM     20  C   UNL     1      17.433   7.252  20.633  0.00  0.00    +0.027 A 
ATOM     23  C   UNL     1      18.362   6.270  20.306  0.00  0.00    +0.056 A 
ATOM     24  C   UNL     1      17.831   8.357  21.377  0.00  0.00    +0.031 A 
ATOM     25  C   UNL     1      19.666   6.440  20.743  0.00  0.00    +0.138 A 
ATOM     26  C   UNL     1      19.158   8.433  21.767  0.00  0.00    +0.113 A 
ATOM     29  H   UNL     1      20.344   4.705  19.802  0.00  0.00    +0.175 HD
BRANCH  10   1
ATOM      1  S   UNL     1      21.792   5.029  21.650  0.00  0.00    +0.041 S 
ATOM      3  O   UNL     1      23.033   5.731  21.385  0.00  0.00    -0.155 OA
ATOM      4  O   UNL     1      21.185   5.078  22.965  0.00  0.00    -0.155 OA
ATOM     27  C   UNL     1      22.066   3.321  21.238  0.00  0.00    +0.218 C 
ENDBRANCH  10   1
ENDBRANCH  19  20
BRANCH  17  12
ATOM      5  N   UNL     1      12.407   8.678  18.381  0.00  0.00    -0.284 NA
ATOM     12  C   UNL     1      13.299   7.565  18.001  0.00  0.00    +0.146 C 
ATOM     13  C   UNL     1      13.874   7.973  16.632  0.00  0.00    +0.030 C 
ATOM     14  C   UNL     1      13.203   9.298  16.298  0.00  0.00    +0.017 C 
ATOM     15  C   UNL     1      11.937   9.276  17.131  0.00  0.00    +0.085 C 
BRANCH   5  16
ATOM     16  C   UNL     1      11.305   8.265  19.240  0.00  0.00    +0.159 C 
BRANCH  16  18
ATOM      7  N   UNL     1      10.520   8.644  21.589  0.00  0.00    -0.347 N 
ATOM      8  N   UNL     1      11.890  10.186  20.766  0.00  0.00    -0.239 NA
ATOM     18  C   UNL     1      11.262   9.059  20.518  0.00  0.00    +0.121 A 
ATOM     21  C   UNL     1      10.685   9.567  22.583  0.00  0.00    +0.104 A 
ATOM     22  C   UNL     1      11.534  10.509  22.052  0.00  0.00    +0.130 A 
ATOM     28  H   UNL     1       9.954   7.808  21.640  0.00  0.00    +0.167 HD
ENDBRANCH  16  18
ENDBRANCH   5  16
ENDBRANCH  17  12
TORSDOF 5
ENDMDL
MODEL 3
REMARK VINA RESULT:      -7.7      1.790      3.478
REMARK  Name = 45783610
REMARK  6 active torsions:
REMARK  status: ('A' for Active; 'I' for Inactive)
REMARK    1  A    between atoms: S_1  and  N_10
REMARK    2  A    between atoms: S_1  and  C_27
REMARK    3  A    between atoms: N_5  and  C_16
REMARK    4  A    between atoms: C_12  and  C_17
REMARK    5  A    between atoms: C_16  and  C_18
REMARK    6  A    between atoms: C_19  and  C_20
REMARK                            x       y       z     vdW  Elec       q    Type
REMARK                         _______ _______ _______ _____ _____    ______ ____
ROOT
ATOM      2  O   UNL     1      14.453   6.651  19.879  0.00  0.00    -0.336 OA
ATOM      6  N   UNL     1      15.684   8.037  21.137  0.00  0.00    -0.190 NA
ATOM      9  N   UNL     1      15.773   6.193  19.784  0.00  0.00    -0.056 NA
ATOM     17  C   UNL     1      14.489   7.739  20.693  0.00  0.00    +0.245 A 
ATOM     19  C   UNL     1      16.438   7.061  20.553  0.00  0.00    +0.202 A 
ENDROOT
BRANCH  19  20
ATOM     10  N   UNL     1      20.696   4.707  20.126  0.00  0.00    -0.204 N 
ATOM     11  N   UNL     1      20.619   6.829  21.154  0.00  0.00    -0.239 NA
ATOM     20  C   UNL     1      17.856   6.982  20.756  0.00  0.00    +0.027 A 
ATOM     23  C   UNL     1      18.562   5.863  20.328  0.00  0.00    +0.056 A 
ATOM     24  C   UNL     1      18.530   8.025  21.383  0.00  0.00    +0.031 A 
ATOM     25  C   UNL     1      19.930   5.836  20.549  0.00  0.00    +0.138 A 
ATOM     26  C   UNL     1      19.899   7.900  21.556  0.00  0.00    +0.113 A 
ATOM     29  H   UNL     1      20.179   4.001  19.586  0.00  0.00    +0.175 HD
BRANCH  10   1
ATOM      1  S   UNL     1      21.938   4.129  21.170  0.00  0.00    +0.041 S 
ATOM      3  O   UNL     1      21.607   4.508  22.530  0.00  0.00    -0.155 OA
ATOM      4  O   UNL     1      22.286   2.759  20.850  0.00  0.00    -0.155 OA
ATOM     27  C   UNL     1      23.287   5.168  20.658  0.00  0.00    +0.218 C 
ENDBRANCH  10   1
ENDBRANCH  19  20
BRANCH  17  12
ATOM      5  N   UNL     1      12.407   8.694  19.721  0.00  0.00    -0.284 NA
ATOM     12  C   UNL     1      13.167   8.427  20.958  0.00  0.00    +0.146 C 
ATOM     13  C   UNL     1      12.218   7.578  21.826  0.00  0.00    +0.030 C 
ATOM     14  C   UNL     1      10.932   7.472  21.020  0.00  0.00    +0.017 C 
ATOM     15  C   UNL     1      10.992   8.669  20.092  0.00  0.00    +0.085 C 
BRANCH   5  16
ATOM     16  C   UNL     1      12.782   9.944  19.074  0.00  0.00    +0.159 C 
BRANCH  16  18
ATOM      7  N   UNL     1      13.212  10.734  16.735  0.00  0.00    -0.347 N 
ATOM      8  N   UNL     1      13.713   8.610  17.146  0.00  0.00    -0.239 NA
ATOM     18  C   UNL     1      13.245   9.726  17.658  0.00  0.00    +0.121 A 
ATOM     21  C   UNL     1      13.689  10.228  15.559  0.00  0.00    +0.104 A 
ATOM     22  C   UNL     1      13.992   8.916  15.837  0.00  0.00    +0.130 A 
ATOM     28  H   UNL     1      12.895  11.682  16.891  0.00  0.00    +0.167 HD
ENDBRANCH  16  18
ENDBRANCH   5  16
ENDBRANCH  17  12
TORSDOF 5
ENDMDL
MODEL 4
REMARK VINA RESULT:      -7.3      1.846      2.495
REMARK  Name = 45783610
REMARK  6 active torsions:
REMARK  status: ('A' for Active; 'I' for Inactive)
REMARK    1  A    between atoms: S_1  and  N_10
REMARK    2  A    between atoms: S_1  and  C_27
REMARK    3  A    between atoms: N_5  and  C_16
REMARK    4  A    between atoms: C_12  and  C_17
REMARK    5  A    between atoms: C_16  and  C_18
REMARK    6  A    between atoms: C_19  and  C_20
REMARK                            x       y       z     vdW  Elec       q    Type
REMARK                         _______ _______ _______ _____ _____    ______ ____
ROOT
ATOM      2  O   UNL     1      15.093   6.214  18.794  0.00  0.00    -0.336 OA
ATOM      6  N   UNL     1      15.711   7.200  20.707  0.00  0.00    -0.190 NA
ATOM      9  N   UNL     1      16.478   6.032  18.895  0.00  0.00    -0.056 NA
ATOM     17  C   UNL     1      14.722   6.910  19.901  0.00  0.00    +0.245 A 
ATOM     19  C   UNL     1      16.767   6.641  20.049  0.00  0.00    +0.202 A 
ENDROOT
BRANCH  19  20
ATOM     10  N   UNL     1      21.343   4.958  20.328  0.00  0.00    -0.204 N 
ATOM     11  N   UNL     1      20.702   6.847  21.588  0.00  0.00    -0.239 NA
ATOM     20  C   UNL     1      18.102   6.711  20.570  0.00  0.00    +0.027 A 
ATOM     23  C   UNL     1      19.056   5.780  20.173  0.00  0.00    +0.056 A 
ATOM     24  C   UNL     1      18.446   7.709  21.475  0.00  0.00    +0.031 A 
ATOM     25  C   UNL     1      20.331   5.891  20.707  0.00  0.00    +0.138 A 
ATOM     26  C   UNL     1      19.747   7.733  21.950  0.00  0.00    +0.113 A 
ATOM     29  H   UNL     1      21.077   4.294  19.590  0.00  0.00    +0.175 HD
BRANCH  10   1
ATOM      1  S   UNL     1      22.410   4.374  21.548  0.00  0.00    +0.041 S 
ATOM      3  O   UNL     1      23.629   5.158  21.505  0.00  0.00    -0.155 OA
ATOM      4  O   UNL     1      21.706   4.174  22.799  0.00  0.00    -0.155 OA
ATOM     27  C   UNL     1      22.802   2.773  20.881  0.00  0.00    +0.218 C 
ENDBRANCH  10   1
ENDBRANCH  19  20
BRANCH  17  12
ATOM      5  N   UNL     1      13.012   8.618  20.494  0.00  0.00    -0.284 NA
ATOM     12  C   UNL     1      13.249   7.237  20.029  0.00  0.00    +0.146 C 
ATOM     13  C   UNL     1      12.499   7.142  18.688  0.00  0.00    +0.030 C 
ATOM     14  C   UNL     1      11.824   8.495  18.513  0.00  0.00    +0.017 C 
ATOM     15  C   UNL     1      11.728   9.031  19.927  0.00  0.00    +0.085 C 
BRANCH   5  16
ATOM     16  C   UNL     1      13.037   8.749  21.946  0.00  0.00    +0.159 C 
BRANCH  16  18
ATOM      7  N   UNL     1      14.803  10.018  23.191  0.00  0.00    -0.347 N 
ATOM      8  N   UNL     1      13.337  11.251  22.068  0.00  0.00    -0.239 NA
ATOM     18  C   UNL     1      13.701  10.028  22.382  0.00  0.00    +0.121 A 
ATOM     21  C   UNL     1      15.165  11.318  23.406  0.00  0.00    +0.104 A 
ATOM     22  C   UNL     1      14.245  12.060  22.703  0.00  0.00    +0.130 A 
ATOM     28  H   UNL     1      15.270   9.201  23.561  0.00  0.00    +0.167 HD
ENDBRANCH  16  18
ENDBRANCH   5  16
ENDBRANCH  17  12
TORSDOF 5
ENDMDL
MODEL 5
REMARK VINA RESULT:      -7.1     16.883     19.780
REMARK  Name = 45783610
REMARK  6 active torsions:
REMARK  status: ('A' for Active; 'I' for Inactive)
REMARK    1  A    between atoms: S_1  and  N_10
REMARK    2  A    between atoms: S_1  and  C_27
REMARK    3  A    between atoms: N_5  and  C_16
REMARK    4  A    between atoms: C_12  and  C_17
REMARK    5  A    between atoms: C_16  and  C_18
REMARK    6  A    between atoms: C_19  and  C_20
REMARK                            x       y       z     vdW  Elec       q    Type
REMARK                         _______ _______ _______ _____ _____    ______ ____
ROOT
ATOM      2  O   UNL     1      10.028   6.972   3.643  0.00  0.00    -0.336 OA
ATOM      6  N   UNL     1      10.675   4.832   3.772  0.00  0.00    -0.190 NA
ATOM      9  N   UNL     1      10.576   6.656   2.394  0.00  0.00    -0.056 NA
ATOM     17  C   UNL     1      10.125   5.843   4.394  0.00  0.00    +0.245 A 
ATOM     19  C   UNL     1      10.935   5.378   2.549  0.00  0.00    +0.202 A 
ENDROOT
BRANCH  19  20
ATOM     10  N   UNL     1      11.386   4.153  -2.157  0.00  0.00    -0.204 N 
ATOM     11  N   UNL     1      12.768   3.139  -0.536  0.00  0.00    -0.239 NA
ATOM     20  C   UNL     1      11.557   4.619   1.502  0.00  0.00    +0.027 A 
ATOM     23  C   UNL     1      11.144   4.779   0.184  0.00  0.00    +0.056 A 
ATOM     24  C   UNL     1      12.574   3.720   1.802  0.00  0.00    +0.031 A 
ATOM     25  C   UNL     1      11.777   4.022  -0.790  0.00  0.00    +0.138 A 
ATOM     26  C   UNL     1      13.142   3.010   0.757  0.00  0.00    +0.113 A 
ATOM     29  H   UNL     1      10.698   4.892  -2.350  0.00  0.00    +0.175 HD
BRANCH  10   1
ATOM      1  S   UNL     1      11.280   2.725  -3.114  0.00  0.00    +0.041 S 
ATOM      3  O   UNL     1      12.612   2.376  -3.568  0.00  0.00    -0.155 OA
ATOM      4  O   UNL     1      10.436   1.735  -2.474  0.00  0.00    -0.155 OA
ATOM     27  C   UNL     1      10.403   3.359  -4.526  0.00  0.00    +0.218 C 
ENDBRANCH  10   1
ENDBRANCH  19  20
BRANCH  17  12
ATOM      5  N   UNL     1      10.341   6.887   6.643  0.00  0.00    -0.284 NA
ATOM     12  C   UNL     1       9.592   5.927   5.809  0.00  0.00    +0.146 C 
ATOM     13  C   UNL     1       8.132   6.414   5.867  0.00  0.00    +0.030 C 
ATOM     14  C   UNL     1       8.150   7.614   6.803  0.00  0.00    +0.017 C 
ATOM     15  C   UNL     1       9.396   7.396   7.637  0.00  0.00    +0.085 C 
BRANCH   5  16
ATOM     16  C   UNL     1      11.528   6.308   7.260  0.00  0.00    +0.159 C 
BRANCH  16  18
ATOM      7  N   UNL     1      13.943   6.459   6.608  0.00  0.00    -0.347 N 
ATOM      8  N   UNL     1      12.895   8.397   6.892  0.00  0.00    -0.239 NA
ATOM     18  C   UNL     1      12.771   7.088   6.925  0.00  0.00    +0.121 A 
ATOM     21  C   UNL     1      14.874   7.427   6.359  0.00  0.00    +0.104 A 
ATOM     22  C   UNL     1      14.204   8.614   6.540  0.00  0.00    +0.130 A 
ATOM     28  H   UNL     1      14.095   5.460   6.564  0.00  0.00    +0.167 HD
ENDBRANCH  16  18
ENDBRANCH   5  16
ENDBRANCH  17  12
TORSDOF 5
ENDMDL
MODEL 6
REMARK VINA RESULT:      -7.0      2.383      3.288
REMARK  Name = 45783610
REMARK  6 active torsions:
REMARK  status: ('A' for Active; 'I' for Inactive)
REMARK    1  A    between atoms: S_1  and  N_10
REMARK    2  A    between atoms: S_1  and  C_27
REMARK    3  A    between atoms: N_5  and  C_16
REMARK    4  A    between atoms: C_12  and  C_17
REMARK    5  A    between atoms: C_16  and  C_18
REMARK    6  A    between atoms: C_19  and  C_20
REMARK                            x       y       z     vdW  Elec       q    Type
REMARK                         _______ _______ _______ _____ _____    ______ ____
ROOT
ATOM      2  O   UNL     1      14.763   8.617  20.593  0.00  0.00    -0.336 OA
ATOM      6  N   UNL     1      15.394   6.607  19.831  0.00  0.00    -0.190 NA
ATOM      9  N   UNL     1      16.136   8.517  20.849  0.00  0.00    -0.056 NA
ATOM     17  C   UNL     1      14.406   7.451  19.992  0.00  0.00    +0.245 A 
ATOM     19  C   UNL     1      16.435   7.305  20.371  0.00  0.00    +0.202 A 
ENDROOT
BRANCH  19  20
ATOM     10  N   UNL     1      21.083   7.500  21.853  0.00  0.00    -0.204 N 
ATOM     11  N   UNL     1      20.346   5.703  20.514  0.00  0.00    -0.239 NA
ATOM     20  C   UNL     1      17.761   6.762  20.420  0.00  0.00    +0.027 A 
ATOM     23  C   UNL     1      18.761   7.423  21.126  0.00  0.00    +0.056 A 
ATOM     24  C   UNL     1      18.053   5.572  19.762  0.00  0.00    +0.031 A 
ATOM     25  C   UNL     1      20.026   6.856  21.142  0.00  0.00    +0.138 A 
ATOM     26  C   UNL     1      19.349   5.090  19.839  0.00  0.00    +0.113 A 
ATOM     29  H   UNL     1      20.808   8.324  22.402  0.00  0.00    +0.175 HD
BRANCH  10   1
ATOM      1  S   UNL     1      22.647   7.536  21.131  0.00  0.00    +0.041 S 
ATOM      3  O   UNL     1      23.332   6.300  21.458  0.00  0.00    -0.155 OA
ATOM      4  O   UNL     1      22.573   7.997  19.759  0.00  0.00    -0.155 OA
ATOM     27  C   UNL     1      23.409   8.820  22.098  0.00  0.00    +0.218 C 
ENDBRANCH  10   1
ENDBRANCH  19  20
BRANCH  17  12
ATOM      5  N   UNL     1      12.106   8.385  20.166  0.00  0.00    -0.284 NA
ATOM     12  C   UNL     1      12.948   7.308  19.609  0.00  0.00    +0.146 C 
ATOM     13  C   UNL     1      12.724   7.382  18.087  0.00  0.00    +0.030 C 
ATOM     14  C   UNL     1      11.697   8.488  17.890  0.00  0.00    +0.017 C 
ATOM     15  C   UNL     1      10.995   8.565  19.231  0.00  0.00    +0.085 C 
BRANCH   5  16
ATOM     16  C   UNL     1      11.644   8.112  21.520  0.00  0.00    +0.159 C 
BRANCH  16  18
ATOM      7  N   UNL     1      12.811  10.001  22.682  0.00  0.00    -0.347 N 
ATOM      8  N   UNL     1      10.602   9.942  22.909  0.00  0.00    -0.239 NA
ATOM     18  C   UNL     1      11.648   9.351  22.374  0.00  0.00    +0.121 A 
ATOM     21  C   UNL     1      12.487  11.074  23.463  0.00  0.00    +0.104 A 
ATOM     22  C   UNL     1      11.119  11.017  23.589  0.00  0.00    +0.130 A 
ATOM     28  H   UNL     1      13.742   9.739  22.385  0.00  0.00    +0.167 HD
ENDBRANCH  16  18
ENDBRANCH   5  16
ENDBRANCH  17  12
TORSDOF 5
ENDMDL
MODEL 7
REMARK VINA RESULT:      -7.0      2.148      3.997
REMARK  Name = 45783610
REMARK  6 active torsions:
REMARK  status: ('A' for Active; 'I' for Inactive)
REMARK    1  A    between atoms: S_1  and  N_10
REMARK    2  A    between atoms: S_1  and  C_27
REMARK    3  A    between atoms: N_5  and  C_16
REMARK    4  A    between atoms: C_12  and  C_17
REMARK    5  A    between atoms: C_16  and  C_18
REMARK    6  A    between atoms: C_19  and  C_20
REMARK                            x       y       z     vdW  Elec       q    Type
REMARK                         _______ _______ _______ _____ _____    ______ ____
ROOT
ATOM      2  O   UNL     1      14.607   6.872  19.298  0.00  0.00    -0.336 OA
ATOM      6  N   UNL     1      15.779   7.541  21.085  0.00  0.00    -0.190 NA
ATOM      9  N   UNL     1      15.871   6.281  19.177  0.00  0.00    -0.056 NA
ATOM     17  C   UNL     1      14.637   7.596  20.448  0.00  0.00    +0.245 A 
ATOM     19  C   UNL     1      16.504   6.723  20.268  0.00  0.00    +0.202 A 
ENDROOT
BRANCH  19  20
ATOM     10  N   UNL     1      20.511   7.102  23.033  0.00  0.00    -0.204 N 
ATOM     11  N   UNL     1      20.505   5.676  21.154  0.00  0.00    -0.239 NA
ATOM     20  C   UNL     1      17.861   6.368  20.569  0.00  0.00    +0.027 A 
ATOM     23  C   UNL     1      18.502   6.929  21.669  0.00  0.00    +0.056 A 
ATOM     24  C   UNL     1      18.540   5.462  19.762  0.00  0.00    +0.031 A 
ATOM     25  C   UNL     1      19.813   6.553  21.916  0.00  0.00    +0.138 A 
ATOM     26  C   UNL     1      19.849   5.153  20.094  0.00  0.00    +0.113 A 
ATOM     29  H   UNL     1      19.948   7.694  23.657  0.00  0.00    +0.175 HD
BRANCH  10   1
ATOM      1  S   UNL     1      22.162   7.547  22.824  0.00  0.00    +0.041 S 
ATOM      3  O   UNL     1      22.989   6.395  23.128  0.00  0.00    -0.155 OA
ATOM      4  O   UNL     1      22.347   8.282  21.589  0.00  0.00    -0.155 OA
ATOM     27  C   UNL     1      22.352   8.690  24.173  0.00  0.00    +0.218 C 
ENDBRANCH  10   1
ENDBRANCH  19  20
BRANCH  17  12
ATOM      5  N   UNL     1      12.583   8.733  19.624  0.00  0.00    -0.284 NA
ATOM     12  C   UNL     1      13.370   8.341  20.810  0.00  0.00    +0.146 C 
ATOM     13  C   UNL     1      12.404   7.494  21.659  0.00  0.00    +0.030 C 
ATOM     14  C   UNL     1      11.084   7.517  20.900  0.00  0.00    +0.017 C 
ATOM     15  C   UNL     1      11.183   8.767  20.049  0.00  0.00    +0.085 C 
BRANCH   5  16
ATOM     16  C   UNL     1      13.010   9.999  19.043  0.00  0.00    +0.159 C 
BRANCH  16  18
ATOM      7  N   UNL     1      13.571   8.596  17.043  0.00  0.00    -0.347 N 
ATOM      8  N   UNL     1      13.974  10.771  16.842  0.00  0.00    -0.239 NA
ATOM     18  C   UNL     1      13.525   9.827  17.639  0.00  0.00    +0.121 A 
ATOM     21  C   UNL     1      14.082   8.767  15.788  0.00  0.00    +0.104 A 
ATOM     22  C   UNL     1      14.323  10.117  15.687  0.00  0.00    +0.130 A 
ATOM     28  H   UNL     1      13.279   7.719  17.454  0.00  0.00    +0.167 HD
ENDBRANCH  16  18
ENDBRANCH   5  16
ENDBRANCH  17  12
TORSDOF 5
ENDMDL
MODEL 8
REMARK VINA RESULT:      -6.9     16.999     19.758
REMARK  Name = 45783610
REMARK  6 active torsions:
REMARK  status: ('A' for Active; 'I' for Inactive)
REMARK    1  A    between atoms: S_1  and  N_10
REMARK    2  A    between atoms: S_1  and  C_27
REMARK    3  A    between atoms: N_5  and  C_16
REMARK    4  A    between atoms: C_12  and  C_17
REMARK    5  A    between atoms: C_16  and  C_18
REMARK    6  A    between atoms: C_19  and  C_20
REMARK                            x       y       z     vdW  Elec       q    Type
REMARK                         _______ _______ _______ _____ _____    ______ ____
ROOT
ATOM      2  O   UNL     1      10.285   4.387   4.708  0.00  0.00    -0.336 OA
ATOM      6  N   UNL     1      10.153   6.059   3.225  0.00  0.00    -0.190 NA
ATOM      9  N   UNL     1      10.879   3.911   3.532  0.00  0.00    -0.056 NA
ATOM     17  C   UNL     1       9.886   5.658   4.441  0.00  0.00    +0.245 A 
ATOM     19  C   UNL     1      10.762   4.954   2.705  0.00  0.00    +0.202 A 
ENDROOT
BRANCH  19  20
ATOM     10  N   UNL     1      10.120   3.996  -2.040  0.00  0.00    -0.204 N 
ATOM     11  N   UNL     1      12.178   4.864  -1.280  0.00  0.00    -0.239 NA
ATOM     20  C   UNL     1      11.242   4.924   1.353  0.00  0.00    +0.027 A 
ATOM     23  C   UNL     1      10.418   4.466   0.330  0.00  0.00    +0.056 A 
ATOM     24  C   UNL     1      12.532   5.351   1.061  0.00  0.00    +0.031 A 
ATOM     25  C   UNL     1      10.929   4.457  -0.958  0.00  0.00    +0.138 A 
ATOM     26  C   UNL     1      12.948   5.301  -0.259  0.00  0.00    +0.113 A 
ATOM     29  H   UNL     1       9.145   3.777  -1.799  0.00  0.00    +0.175 HD
BRANCH  10   1
ATOM      1  S   UNL     1      10.858   3.017  -3.250  0.00  0.00    +0.041 S 
ATOM      3  O   UNL     1      11.461   3.888  -4.240  0.00  0.00    -0.155 OA
ATOM      4  O   UNL     1      11.624   1.942  -2.650  0.00  0.00    -0.155 OA
ATOM     27  C   UNL     1       9.412   2.304  -4.001  0.00  0.00    +0.218 C 
ENDBRANCH  10   1
ENDBRANCH  19  20
BRANCH  17  12
ATOM      5  N   UNL     1      10.075   7.428   6.181  0.00  0.00    -0.284 NA
ATOM     12  C   UNL     1       9.205   6.403   5.571  0.00  0.00    +0.146 C 
ATOM     13  C   UNL     1       7.956   7.174   5.107  0.00  0.00    +0.030 C 
ATOM     14  C   UNL     1       8.189   8.611   5.553  0.00  0.00    +0.017 C 
ATOM     15  C   UNL     1       9.187   8.476   6.684  0.00  0.00    +0.085 C 
BRANCH   5  16
ATOM     16  C   UNL     1      10.944   6.898   7.224  0.00  0.00    +0.159 C 
BRANCH  16  18
ATOM      7  N   UNL     1      10.434   4.558   7.962  0.00  0.00    -0.347 N 
ATOM      8  N   UNL     1       9.363   6.170   9.050  0.00  0.00    -0.239 NA
ATOM     18  C   UNL     1      10.228   5.903   8.098  0.00  0.00    +0.121 A 
ATOM     21  C   UNL     1       9.650   3.928   8.886  0.00  0.00    +0.104 A 
ATOM     22  C   UNL     1       8.998   4.943   9.545  0.00  0.00    +0.130 A 
ATOM     28  H   UNL     1      11.055   4.109   7.301  0.00  0.00    +0.167 HD
ENDBRANCH  16  18
ENDBRANCH   5  16
ENDBRANCH  17  12
TORSDOF 5
ENDMDL
MODEL 9
REMARK VINA RESULT:      -6.8     28.399     31.356
REMARK  Name = 45783610
REMARK  6 active torsions:
REMARK  status: ('A' for Active; 'I' for Inactive)
REMARK    1  A    between atoms: S_1  and  N_10
REMARK    2  A    between atoms: S_1  and  C_27
REMARK    3  A    between atoms: N_5  and  C_16
REMARK    4  A    between atoms: C_12  and  C_17
REMARK    5  A    between atoms: C_16  and  C_18
REMARK    6  A    between atoms: C_19  and  C_20
REMARK                            x       y       z     vdW  Elec       q    Type
REMARK                         _______ _______ _______ _____ _____    ______ ____
ROOT
ATOM      2  O   UNL     1     -11.246   7.458  20.521  0.00  0.00    -0.336 OA
ATOM      6  N   UNL     1     -13.217   8.413  20.990  0.00  0.00    -0.190 NA
ATOM      9  N   UNL     1     -12.093   6.421  20.932  0.00  0.00    -0.056 NA
ATOM     17  C   UNL     1     -11.986   8.596  20.583  0.00  0.00    +0.245 A 
ATOM     19  C   UNL     1     -13.236   7.064  21.192  0.00  0.00    +0.202 A 
ENDROOT
BRANCH  19  20
ATOM     10  N   UNL     1     -15.872   5.027  24.762  0.00  0.00    -0.204 N 
ATOM     11  N   UNL     1     -16.707   5.069  22.557  0.00  0.00    -0.239 NA
ATOM     20  C   UNL     1     -14.413   6.388  21.655  0.00  0.00    +0.027 A 
ATOM     23  C   UNL     1     -14.540   6.048  22.998  0.00  0.00    +0.056 A 
ATOM     24  C   UNL     1     -15.431   6.069  20.763  0.00  0.00    +0.031 A 
ATOM     25  C   UNL     1     -15.697   5.395  23.394  0.00  0.00    +0.138 A 
ATOM     26  C   UNL     1     -16.547   5.415  21.260  0.00  0.00    +0.113 A 
ATOM     29  H   UNL     1     -15.142   5.361  25.406  0.00  0.00    +0.175 HD
BRANCH  10   1
ATOM      1  S   UNL     1     -16.567   3.490  25.110  0.00  0.00    +0.041 S 
ATOM      3  O   UNL     1     -18.011   3.625  25.091  0.00  0.00    -0.155 OA
ATOM      4  O   UNL     1     -15.915   2.443  24.350  0.00  0.00    -0.155 OA
ATOM     27  C   UNL     1     -16.089   3.308  26.813  0.00  0.00    +0.218 C 
ENDBRANCH  10   1
ENDBRANCH  19  20
BRANCH  17  12
ATOM      5  N   UNL     1     -11.241  10.064  18.717  0.00  0.00    -0.284 NA
ATOM     12  C   UNL     1     -11.288   9.878  20.181  0.00  0.00    +0.146 C 
ATOM     13  C   UNL     1     -11.999  11.135  20.714  0.00  0.00    +0.030 C 
ATOM     14  C   UNL     1     -12.259  11.995  19.485  0.00  0.00    +0.017 C 
ATOM     15  C   UNL     1     -11.230  11.509  18.485  0.00  0.00    +0.085 C 
BRANCH   5  16
ATOM     16  C   UNL     1     -10.107   9.399  18.088  0.00  0.00    +0.159 C 
BRANCH  16  18
ATOM      7  N   UNL     1     -10.252   7.737  16.219  0.00  0.00    -0.347 N 
ATOM      8  N   UNL     1     -10.811   9.823  15.703  0.00  0.00    -0.239 NA
ATOM     18  C   UNL     1     -10.400   9.022  16.661  0.00  0.00    +0.121 A 
ATOM     21  C   UNL     1     -10.590   7.717  14.895  0.00  0.00    +0.104 A 
ATOM     22  C   UNL     1     -10.931   9.015  14.599  0.00  0.00    +0.130 A 
ATOM     28  H   UNL     1      -9.951   6.943  16.769  0.00  0.00    +0.167 HD
ENDBRANCH  16  18
ENDBRANCH   5  16
ENDBRANCH  17  12
TORSDOF 5
ENDMDL
MODEL 10
REMARK VINA RESULT:      -6.8      2.471      3.921
REMARK  Name = 45783610
REMARK  6 active torsions:
REMARK  status: ('A' for Active; 'I' for Inactive)
REMARK    1  A    between atoms: S_1  and  N_10
REMARK    2  A    between atoms: S_1  and  C_27
REMARK    3  A    between atoms: N_5  and  C_16
REMARK    4  A    between atoms: C_12  and  C_17
REMARK    5  A    between atoms: C_16  and  C_18
REMARK    6  A    between atoms: C_19  and  C_20
REMARK                            x       y       z     vdW  Elec       q    Type
REMARK                         _______ _______ _______ _____ _____    ______ ____
ROOT
ATOM      2  O   UNL     1      14.168  10.065  22.342  0.00  0.00    -0.336 OA
ATOM      6  N   UNL     1      15.082   8.612  20.902  0.00  0.00    -0.190 NA
ATOM      9  N   UNL     1      15.552  10.133  22.546  0.00  0.00    -0.056 NA
ATOM     17  C   UNL     1      13.977   9.146  21.358  0.00  0.00    +0.245 A 
ATOM     19  C   UNL     1      16.021   9.248  21.661  0.00  0.00    +0.202 A 
ENDROOT
BRANCH  19  20
ATOM     10  N   UNL     1      19.706   6.172  20.764  0.00  0.00    -0.204 N 
ATOM     11  N   UNL     1      20.150   8.444  21.221  0.00  0.00    -0.239 NA
ATOM     20  C   UNL     1      17.421   8.975  21.511  0.00  0.00    +0.027 A 
ATOM     23  C   UNL     1      17.853   7.688  21.208  0.00  0.00    +0.056 A 
ATOM     24  C   UNL     1      18.352   9.996  21.669  0.00  0.00    +0.031 A 
ATOM     25  C   UNL     1      19.217   7.477  21.075  0.00  0.00    +0.138 A 
ATOM     26  C   UNL     1      19.692   9.681  21.516  0.00  0.00    +0.113 A 
ATOM     29  H   UNL     1      18.986   5.467  20.563  0.00  0.00    +0.175 HD
BRANCH  10   1
ATOM      1  S   UNL     1      21.127   5.622  21.568  0.00  0.00    +0.041 S 
ATOM      3  O   UNL     1      22.268   6.326  21.015  0.00  0.00    -0.155 OA
ATOM      4  O   UNL     1      20.921   5.565  23.001  0.00  0.00    -0.155 OA
ATOM     27  C   UNL     1      21.205   3.953  20.959  0.00  0.00    +0.218 C 
ENDBRANCH  10   1
ENDBRANCH  19  20
BRANCH  17  12
ATOM      5  N   UNL     1      12.182   7.457  21.014  0.00  0.00    -0.284 NA
ATOM     12  C   UNL     1      12.543   8.887  20.946  0.00  0.00    +0.146 C 
ATOM     13  C   UNL     1      11.525   9.592  21.862  0.00  0.00    +0.030 C 
ATOM     14  C   UNL     1      10.598   8.488  22.350  0.00  0.00    +0.017 C 
ATOM     15  C   UNL     1      10.748   7.406  21.299  0.00  0.00    +0.085 C 
BRANCH   5  16
ATOM     16  C   UNL     1      12.528   6.719  19.807  0.00  0.00    +0.159 C 
BRANCH  16  18
ATOM      7  N   UNL     1      13.676   7.980  17.971  0.00  0.00    -0.347 N 
ATOM      8  N   UNL     1      11.458   8.097  17.985  0.00  0.00    -0.239 NA
ATOM     18  C   UNL     1      12.516   7.601  18.587  0.00  0.00    +0.121 A 
ATOM     21  C   UNL     1      13.337   8.769  16.908  0.00  0.00    +0.104 A 
ATOM     22  C   UNL     1      11.963   8.827  16.937  0.00  0.00    +0.130 A 
ATOM     28  H   UNL     1      14.615   7.723  18.247  0.00  0.00    +0.167 HD
ENDBRANCH  16  18
ENDBRANCH   5  16
ENDBRANCH  17  12
TORSDOF 5
ENDMDL
