MODEL 1
REMARK VINA RESULT:      -7.6      0.000      0.000
REMARK  Name = 11884481
REMARK  7 active torsions:
REMARK  status: ('A' for Active; 'I' for Inactive)
REMARK    1  A    between atoms: O_4  and  C_29
REMARK    2  A    between atoms: O_4  and  C_31
REMARK    3  A    between atoms: O_5  and  C_30
REMARK    4  A    between atoms: N_9  and  C_20
REMARK    5  A    between atoms: C_19  and  C_22
REMARK    6  A    between atoms: C_25  and  C_29
REMARK    7  A    between atoms: C_26  and  C_30
REMARK                            x       y       z     vdW  Elec       q    Type
REMARK                         _______ _______ _______ _____ _____    ______ ____
ROOT
ATOM      1  O   UNL     1      12.708   7.243   3.540  0.00  0.00    -0.266 OA
ATOM      2  O   UNL     1       8.849   9.965   5.646  0.00  0.00    -0.270 OA
ATOM      7  N   UNL     1       8.998   7.936   6.802  0.00  0.00    -0.297 N 
ATOM      8  N   UNL     1      11.518   6.576   5.437  0.00  0.00    -0.310 N 
ATOM     10  C   UNL     1       9.045   5.910   5.357  0.00  0.00    +0.027 C 
ATOM     11  C   UNL     1      10.246   5.907   7.506  0.00  0.00    +0.054 C 
ATOM     12  C   UNL     1       9.381   5.057   6.575  0.00  0.00    +0.018 C 
ATOM     13  C   UNL     1       8.276   7.175   5.782  0.00  0.00    +0.113 C 
ATOM     14  C   UNL     1      10.345   6.247   4.614  0.00  0.00    +0.130 C 
ATOM     15  C   UNL     1       9.450   7.147   7.961  0.00  0.00    +0.117 C 
ATOM     16  C   UNL     1      11.524   6.344   6.816  0.00  0.00    +0.027 A 
ATOM     17  C   UNL     1      12.645   6.543   7.530  0.00  0.00    +0.024 A 
ATOM     18  C   UNL     1      12.660   7.039   4.754  0.00  0.00    +0.273 A 
ATOM     19  C   UNL     1       9.224   9.300   6.612  0.00  0.00    +0.247 C 
ATOM     20  C   UNL     1      13.880   7.275   5.590  0.00  0.00    +0.099 A 
ATOM     21  C   UNL     1      13.845   7.019   6.903  0.00  0.00    +0.030 A 
ENDROOT
BRANCH  19  22
ATOM     22  C   UNL     1       9.990  10.020   7.633  0.00  0.00    +0.038 A 
ATOM     23  C   UNL     1       9.347  10.497   8.773  0.00  0.00    +0.028 A 
ATOM     24  C   UNL     1      11.356  10.228   7.457  0.00  0.00    +0.013 A 
ATOM     26  C   UNL     1      10.077  11.184   9.744  0.00  0.00    +0.060 A 
ATOM     27  C   UNL     1      12.084  10.916   8.428  0.00  0.00    +0.002 A 
ATOM     28  C   UNL     1      11.444  11.393   9.571  0.00  0.00    +0.015 A 
BRANCH  26  30
ATOM      6  O   UNL     1       9.970  11.983  11.997  0.00  0.00    -0.245 OA
ATOM     30  C   UNL     1       9.410  11.682  10.938  0.00  0.00    +0.337 C 
BRANCH  30   5
ATOM      5  O   UNL     1       8.063  11.791  10.775  0.00  0.00    -0.477 OA
ATOM     38  H   UNL     1       7.791  11.596   9.852  0.00  0.00    +0.295 HD
ENDBRANCH  30   5
ENDBRANCH  26  30
ENDBRANCH  19  22
BRANCH  20   9
ATOM      3  O   UNL     1      14.993   9.907   5.831  0.00  0.00    -0.272 OA
ATOM      9  N   UNL     1      15.001   7.740   4.970  0.00  0.00    -0.278 N 
ATOM     25  C   UNL     1      15.490   9.030   5.129  0.00  0.00    +0.255 C 
ATOM     37  H   UNL     1      15.497   7.094   4.361  0.00  0.00    +0.155 HD
BRANCH  25  29
ATOM     29  C   UNL     1      16.748   9.252   4.315  0.00  0.00    +0.324 C 
BRANCH  29   4
ATOM      4  O   UNL     1      17.788   9.751   5.130  0.00  0.00    -0.483 OA
BRANCH   4  31
ATOM     31  C   UNL     1      18.869   8.929   5.340  0.00  0.00    +0.121 A 
ATOM     32  C   UNL     1      19.296   8.086   4.323  0.00  0.00    +0.045 A 
ATOM     33  C   UNL     1      19.518   8.953   6.566  0.00  0.00    +0.045 A 
ATOM     34  C   UNL     1      20.393   7.251   4.536  0.00  0.00    +0.004 A 
ATOM     35  C   UNL     1      20.615   8.118   6.780  0.00  0.00    +0.004 A 
ATOM     36  C   UNL     1      21.052   7.268   5.766  0.00  0.00    +0.000 A 
ENDBRANCH   4  31
ENDBRANCH  29   4
ENDBRANCH  25  29
ENDBRANCH  20   9
TORSDOF 7
ENDMDL
MODEL 2
REMARK VINA RESULT:      -7.5     25.892     29.782
REMARK  Name = 11884481
REMARK  7 active torsions:
REMARK  status: ('A' for Active; 'I' for Inactive)
REMARK    1  A    between atoms: O_4  and  C_29
REMARK    2  A    between atoms: O_4  and  C_31
REMARK    3  A    between atoms: O_5  and  C_30
REMARK    4  A    between atoms: N_9  and  C_20
REMARK    5  A    between atoms: C_19  and  C_22
REMARK    6  A    between atoms: C_25  and  C_29
REMARK    7  A    between atoms: C_26  and  C_30
REMARK                            x       y       z     vdW  Elec       q    Type
REMARK                         _______ _______ _______ _____ _____    ______ ____
ROOT
ATOM      1  O   UNL     1      -6.593  -9.564  13.479  0.00  0.00    -0.266 OA
ATOM      2  O   UNL     1      -5.309 -14.423  12.263  0.00  0.00    -0.270 OA
ATOM      7  N   UNL     1      -3.328 -13.249  12.673  0.00  0.00    -0.297 N 
ATOM      8  N   UNL     1      -4.413 -10.401  13.553  0.00  0.00    -0.310 N 
ATOM     10  C   UNL     1      -3.121 -11.090  11.451  0.00  0.00    +0.027 C 
ATOM     11  C   UNL     1      -2.080 -11.345  13.667  0.00  0.00    +0.054 C 
ATOM     12  C   UNL     1      -1.882 -10.751  12.273  0.00  0.00    +0.018 C 
ATOM     13  C   UNL     1      -3.301 -12.616  11.354  0.00  0.00    +0.113 C 
ATOM     14  C   UNL     1      -4.339 -10.405  12.086  0.00  0.00    +0.130 C 
ATOM     15  C   UNL     1      -2.214 -12.878  13.562  0.00  0.00    +0.117 C 
ATOM     16  C   UNL     1      -3.313 -10.769  14.336  0.00  0.00    +0.027 A 
ATOM     17  C   UNL     1      -3.364 -10.648  15.673  0.00  0.00    +0.024 A 
ATOM     18  C   UNL     1      -5.605  -9.915  14.126  0.00  0.00    +0.273 A 
ATOM     19  C   UNL     1      -4.376 -14.110  13.001  0.00  0.00    +0.247 C 
ATOM     20  C   UNL     1      -5.632  -9.821  15.620  0.00  0.00    +0.099 A 
ATOM     21  C   UNL     1      -4.548 -10.165  16.326  0.00  0.00    +0.030 A 
ENDROOT
BRANCH  19  22
ATOM     22  C   UNL     1      -4.395 -14.689  14.349  0.00  0.00    +0.038 A 
ATOM     23  C   UNL     1      -4.841 -13.925  15.424  0.00  0.00    +0.028 A 
ATOM     24  C   UNL     1      -3.963 -15.998  14.546  0.00  0.00    +0.013 A 
ATOM     26  C   UNL     1      -4.856 -14.476  16.706  0.00  0.00    +0.060 A 
ATOM     27  C   UNL     1      -3.977 -16.547  15.828  0.00  0.00    +0.002 A 
ATOM     28  C   UNL     1      -4.424 -15.786  16.908  0.00  0.00    +0.015 A 
BRANCH  26  30
ATOM      6  O   UNL     1      -4.611 -12.990  18.566  0.00  0.00    -0.245 OA
ATOM     30  C   UNL     1      -5.324 -13.683  17.833  0.00  0.00    +0.337 C 
BRANCH  30   5
ATOM      5  O   UNL     1      -6.670 -13.777  18.012  0.00  0.00    -0.477 OA
ATOM     38  H   UNL     1      -7.158 -13.139  17.448  0.00  0.00    +0.295 HD
ENDBRANCH  30   5
ENDBRANCH  26  30
ENDBRANCH  19  22
BRANCH  20   9
ATOM      3  O   UNL     1      -7.794 -11.434  16.593  0.00  0.00    -0.272 OA
ATOM      9  N   UNL     1      -6.774  -9.372  16.214  0.00  0.00    -0.278 N 
ATOM     25  C   UNL     1      -7.787 -10.208  16.665  0.00  0.00    +0.255 C 
ATOM     37  H   UNL     1      -6.874  -8.367  16.327  0.00  0.00    +0.155 HD
BRANCH  25  29
ATOM     29  C   UNL     1      -8.926  -9.421  17.278  0.00  0.00    +0.324 C 
BRANCH  29   4
ATOM      4  O   UNL     1      -9.032  -8.147  16.679  0.00  0.00    -0.483 OA
BRANCH   4  31
ATOM     31  C   UNL     1     -10.297  -7.690  16.397  0.00  0.00    +0.121 A 
ATOM     32  C   UNL     1     -11.397  -8.472  16.726  0.00  0.00    +0.045 A 
ATOM     33  C   UNL     1     -10.458  -6.454  15.787  0.00  0.00    +0.045 A 
ATOM     34  C   UNL     1     -12.680  -8.008  16.440  0.00  0.00    +0.004 A 
ATOM     35  C   UNL     1     -11.741  -5.990  15.500  0.00  0.00    +0.004 A 
ATOM     36  C   UNL     1     -12.852  -6.767  15.826  0.00  0.00    +0.000 A 
ENDBRANCH   4  31
ENDBRANCH  29   4
ENDBRANCH  25  29
ENDBRANCH  20   9
TORSDOF 7
ENDMDL
MODEL 3
REMARK VINA RESULT:      -7.4     26.965     30.640
REMARK  Name = 11884481
REMARK  7 active torsions:
REMARK  status: ('A' for Active; 'I' for Inactive)
REMARK    1  A    between atoms: O_4  and  C_29
REMARK    2  A    between atoms: O_4  and  C_31
REMARK    3  A    between atoms: O_5  and  C_30
REMARK    4  A    between atoms: N_9  and  C_20
REMARK    5  A    between atoms: C_19  and  C_22
REMARK    6  A    between atoms: C_25  and  C_29
REMARK    7  A    between atoms: C_26  and  C_30
REMARK                            x       y       z     vdW  Elec       q    Type
REMARK                         _______ _______ _______ _____ _____    ______ ____
ROOT
ATOM      1  O   UNL     1     -10.191  -8.374  18.086  0.00  0.00    -0.266 OA
ATOM      2  O   UNL     1      -5.508 -10.253  19.217  0.00  0.00    -0.270 OA
ATOM      7  N   UNL     1      -6.815 -12.030  18.437  0.00  0.00    -0.297 N 
ATOM      8  N   UNL     1      -9.526 -10.574  17.665  0.00  0.00    -0.310 N 
ATOM     10  C   UNL     1      -9.037 -12.255  19.536  0.00  0.00    +0.027 C 
ATOM     11  C   UNL     1      -8.764 -12.926  17.184  0.00  0.00    +0.054 C 
ATOM     12  C   UNL     1      -9.434 -13.304  18.504  0.00  0.00    +0.018 C 
ATOM     13  C   UNL     1      -7.508 -12.224  19.711  0.00  0.00    +0.113 C 
ATOM     14  C   UNL     1      -9.595 -10.894  19.098  0.00  0.00    +0.130 C 
ATOM     15  C   UNL     1      -7.231 -12.943  17.359  0.00  0.00    +0.117 C 
ATOM     16  C   UNL     1      -9.210 -11.553  16.718  0.00  0.00    +0.027 A 
ATOM     17  C   UNL     1      -9.265 -11.268  15.406  0.00  0.00    +0.024 A 
ATOM     18  C   UNL     1      -9.890  -9.265  17.290  0.00  0.00    +0.273 A 
ATOM     19  C   UNL     1      -5.860 -11.018  18.320  0.00  0.00    +0.247 C 
ATOM     20  C   UNL     1      -9.913  -8.980  15.821  0.00  0.00    +0.099 A 
ATOM     21  C   UNL     1      -9.623  -9.955  14.951  0.00  0.00    +0.030 A 
ENDROOT
BRANCH  19  22
ATOM     22  C   UNL     1      -5.220 -10.823  17.015  0.00  0.00    +0.038 A 
ATOM     23  C   UNL     1      -3.904 -11.235  16.821  0.00  0.00    +0.028 A 
ATOM     24  C   UNL     1      -5.930 -10.224  15.978  0.00  0.00    +0.013 A 
ATOM     26  C   UNL     1      -3.295 -11.047  15.580  0.00  0.00    +0.060 A 
ATOM     27  C   UNL     1      -5.320 -10.035  14.738  0.00  0.00    +0.002 A 
ATOM     28  C   UNL     1      -4.003 -10.447  14.540  0.00  0.00    +0.015 A 
BRANCH  26  30
ATOM      6  O   UNL     1      -1.524 -12.173  14.430  0.00  0.00    -0.245 OA
ATOM     30  C   UNL     1      -1.921 -11.478  15.371  0.00  0.00    +0.337 C 
BRANCH  30   5
ATOM      5  O   UNL     1      -1.081 -11.028  16.343  0.00  0.00    -0.477 OA
ATOM     38  H   UNL     1      -0.546 -11.755  16.729  0.00  0.00    +0.295 HD
ENDBRANCH  30   5
ENDBRANCH  26  30
ENDBRANCH  19  22
BRANCH  20   9
ATOM      3  O   UNL     1     -12.554  -8.000  15.279  0.00  0.00    -0.272 OA
ATOM      9  N   UNL     1     -10.243  -7.720  15.418  0.00  0.00    -0.278 N 
ATOM     25  C   UNL     1     -11.545  -7.306  15.171  0.00  0.00    +0.255 C 
ATOM     37  H   UNL     1      -9.482  -7.058  15.297  0.00  0.00    +0.155 HD
BRANCH  25  29
ATOM     29  C   UNL     1     -11.596  -5.856  14.740  0.00  0.00    +0.324 C 
BRANCH  29   4
ATOM      4  O   UNL     1     -12.932  -5.421  14.606  0.00  0.00    -0.483 OA
BRANCH   4  31
ATOM     31  C   UNL     1     -13.241  -4.675  13.493  0.00  0.00    +0.121 A 
ATOM     32  C   UNL     1     -14.549  -4.259  13.288  0.00  0.00    +0.045 A 
ATOM     33  C   UNL     1     -12.239  -4.350  12.589  0.00  0.00    +0.045 A 
ATOM     34  C   UNL     1     -14.862  -3.503  12.159  0.00  0.00    +0.004 A 
ATOM     35  C   UNL     1     -12.551  -3.595  11.459  0.00  0.00    +0.004 A 
ATOM     36  C   UNL     1     -13.862  -3.171  11.244  0.00  0.00    +0.000 A 
ENDBRANCH   4  31
ENDBRANCH  29   4
ENDBRANCH  25  29
ENDBRANCH  20   9
TORSDOF 7
ENDMDL
MODEL 4
REMARK VINA RESULT:      -7.4      2.744      5.768
REMARK  Name = 11884481
REMARK  7 active torsions:
REMARK  status: ('A' for Active; 'I' for Inactive)
REMARK    1  A    between atoms: O_4  and  C_29
REMARK    2  A    between atoms: O_4  and  C_31
REMARK    3  A    between atoms: O_5  and  C_30
REMARK    4  A    between atoms: N_9  and  C_20
REMARK    5  A    between atoms: C_19  and  C_22
REMARK    6  A    between atoms: C_25  and  C_29
REMARK    7  A    between atoms: C_26  and  C_30
REMARK                            x       y       z     vdW  Elec       q    Type
REMARK                         _______ _______ _______ _____ _____    ______ ____
ROOT
ATOM      1  O   UNL     1      12.393   8.694   7.317  0.00  0.00    -0.266 OA
ATOM      2  O   UNL     1      10.102   4.515   5.310  0.00  0.00    -0.270 OA
ATOM      7  N   UNL     1       9.075   6.401   4.381  0.00  0.00    -0.297 N 
ATOM      8  N   UNL     1      10.773   8.769   5.635  0.00  0.00    -0.310 N 
ATOM     10  C   UNL     1       8.330   8.107   6.034  0.00  0.00    +0.027 C 
ATOM     11  C   UNL     1       9.057   8.814   3.791  0.00  0.00    +0.054 C 
ATOM     12  C   UNL     1       8.030   9.072   4.893  0.00  0.00    +0.018 C 
ATOM     13  C   UNL     1       8.227   6.650   5.547  0.00  0.00    +0.113 C 
ATOM     14  C   UNL     1       9.720   8.428   6.602  0.00  0.00    +0.130 C 
ATOM     15  C   UNL     1       8.914   7.366   3.280  0.00  0.00    +0.117 C 
ATOM     16  C   UNL     1      10.469   9.041   4.297  0.00  0.00    +0.027 A 
ATOM     17  C   UNL     1      11.430   9.462   3.458  0.00  0.00    +0.024 A 
ATOM     18  C   UNL     1      12.080   8.906   6.145  0.00  0.00    +0.273 A 
ATOM     19  C   UNL     1       9.963   5.324   4.394  0.00  0.00    +0.247 C 
ATOM     20  C   UNL     1      13.127   9.352   5.171  0.00  0.00    +0.099 A 
ATOM     21  C   UNL     1      12.785   9.619   3.906  0.00  0.00    +0.030 A 
ENDROOT
BRANCH  19  22
ATOM     22  C   UNL     1      10.830   5.134   3.226  0.00  0.00    +0.038 A 
ATOM     23  C   UNL     1      12.049   5.804   3.153  0.00  0.00    +0.028 A 
ATOM     24  C   UNL     1      10.429   4.288   2.196  0.00  0.00    +0.013 A 
ATOM     26  C   UNL     1      12.873   5.624   2.041  0.00  0.00    +0.060 A 
ATOM     27  C   UNL     1      11.253   4.109   1.084  0.00  0.00    +0.002 A 
ATOM     28  C   UNL     1      12.474   4.777   1.007  0.00  0.00    +0.015 A 
BRANCH  26  30
ATOM      6  O   UNL     1      14.385   7.300   1.247  0.00  0.00    -0.245 OA
ATOM     30  C   UNL     1      14.148   6.319   1.960  0.00  0.00    +0.337 C 
BRANCH  30   5
ATOM      5  O   UNL     1      15.092   5.771   2.774  0.00  0.00    -0.477 OA
ATOM     38  H   UNL     1      15.790   6.419   3.011  0.00  0.00    +0.295 HD
ENDBRANCH  30   5
ENDBRANCH  26  30
ENDBRANCH  19  22
BRANCH  20   9
ATOM      3  O   UNL     1      15.140   7.309   5.181  0.00  0.00    -0.272 OA
ATOM      9  N   UNL     1      14.407   9.479   5.621  0.00  0.00    -0.278 N 
ATOM     25  C   UNL     1      15.337   8.448   5.598  0.00  0.00    +0.255 C 
ATOM     37  H   UNL     1      14.682  10.385   5.990  0.00  0.00    +0.155 HD
BRANCH  25  29
ATOM     29  C   UNL     1      16.671   8.890   6.163  0.00  0.00    +0.324 C 
BRANCH  29   4
ATOM      4  O   UNL     1      17.614   9.076   5.128  0.00  0.00    -0.483 OA
BRANCH   4  31
ATOM     31  C   UNL     1      18.841   8.476   5.282  0.00  0.00    +0.121 A 
ATOM     32  C   UNL     1      19.509   8.585   6.495  0.00  0.00    +0.045 A 
ATOM     33  C   UNL     1      19.395   7.772   4.223  0.00  0.00    +0.045 A 
ATOM     34  C   UNL     1      20.754   7.977   6.650  0.00  0.00    +0.004 A 
ATOM     35  C   UNL     1      20.640   7.164   4.379  0.00  0.00    +0.004 A 
ATOM     36  C   UNL     1      21.320   7.266   5.592  0.00  0.00    +0.000 A 
ENDBRANCH   4  31
ENDBRANCH  29   4
ENDBRANCH  25  29
ENDBRANCH  20   9
TORSDOF 7
ENDMDL
MODEL 5
REMARK VINA RESULT:      -7.1     24.980     29.126
REMARK  Name = 11884481
REMARK  7 active torsions:
REMARK  status: ('A' for Active; 'I' for Inactive)
REMARK    1  A    between atoms: O_4  and  C_29
REMARK    2  A    between atoms: O_4  and  C_31
REMARK    3  A    between atoms: O_5  and  C_30
REMARK    4  A    between atoms: N_9  and  C_20
REMARK    5  A    between atoms: C_19  and  C_22
REMARK    6  A    between atoms: C_25  and  C_29
REMARK    7  A    between atoms: C_26  and  C_30
REMARK                            x       y       z     vdW  Elec       q    Type
REMARK                         _______ _______ _______ _____ _____    ______ ____
ROOT
ATOM      1  O   UNL     1      -5.411 -12.436  16.569  0.00  0.00    -0.266 OA
ATOM      2  O   UNL     1      -1.732 -10.473  13.512  0.00  0.00    -0.270 OA
ATOM      7  N   UNL     1      -2.466 -12.472  12.543  0.00  0.00    -0.297 N 
ATOM      8  N   UNL     1      -4.802 -13.343  14.504  0.00  0.00    -0.310 N 
ATOM     10  C   UNL     1      -2.517 -14.425  14.086  0.00  0.00    +0.027 C 
ATOM     11  C   UNL     1      -4.154 -14.272  12.253  0.00  0.00    +0.054 C 
ATOM     12  C   UNL     1      -3.253 -15.235  13.025  0.00  0.00    +0.018 C 
ATOM     13  C   UNL     1      -1.668 -13.323  13.427  0.00  0.00    +0.113 C 
ATOM     14  C   UNL     1      -3.545 -13.851  15.071  0.00  0.00    +0.130 C 
ATOM     15  C   UNL     1      -3.289 -13.198  11.561  0.00  0.00    +0.117 C 
ATOM     16  C   UNL     1      -5.156 -13.604  13.175  0.00  0.00    +0.027 A 
ATOM     17  C   UNL     1      -6.360 -13.231  12.711  0.00  0.00    +0.024 A 
ATOM     18  C   UNL     1      -5.671 -12.674  15.388  0.00  0.00    +0.273 A 
ATOM     19  C   UNL     1      -2.417 -11.085  12.694  0.00  0.00    +0.247 C 
ATOM     20  C   UNL     1      -6.992 -12.251  14.824  0.00  0.00    +0.099 A 
ATOM     21  C   UNL     1      -7.295 -12.540  13.553  0.00  0.00    +0.030 A 
ENDROOT
BRANCH  19  22
ATOM     22  C   UNL     1      -3.265 -10.268  11.820  0.00  0.00    +0.038 A 
ATOM     23  C   UNL     1      -4.605 -10.070  12.145  0.00  0.00    +0.028 A 
ATOM     24  C   UNL     1      -2.728  -9.697  10.670  0.00  0.00    +0.013 A 
ATOM     26  C   UNL     1      -5.412  -9.294  11.312  0.00  0.00    +0.060 A 
ATOM     27  C   UNL     1      -3.536  -8.922   9.838  0.00  0.00    +0.002 A 
ATOM     28  C   UNL     1      -4.878  -8.721  10.159  0.00  0.00    +0.015 A 
BRANCH  26  30
ATOM      6  O   UNL     1      -7.750  -9.089  10.844  0.00  0.00    -0.245 OA
ATOM     30  C   UNL     1      -6.812  -9.082  11.648  0.00  0.00    +0.337 C 
BRANCH  30   5
ATOM      5  O   UNL     1      -7.001  -8.869  12.979  0.00  0.00    -0.477 OA
ATOM     38  H   UNL     1      -6.164  -8.950  13.484  0.00  0.00    +0.295 HD
ENDBRANCH  30   5
ENDBRANCH  26  30
ENDBRANCH  19  22
BRANCH  20   9
ATOM      3  O   UNL     1      -6.780  -9.514  15.657  0.00  0.00    -0.272 OA
ATOM      9  N   UNL     1      -7.854 -11.584  15.643  0.00  0.00    -0.278 N 
ATOM     25  C   UNL     1      -7.695 -10.254  16.010  0.00  0.00    +0.255 C 
ATOM     37  H   UNL     1      -8.654 -12.102  15.996  0.00  0.00    +0.155 HD
BRANCH  25  29
ATOM     29  C   UNL     1      -8.810  -9.792  16.925  0.00  0.00    +0.324 C 
BRANCH  29   4
ATOM      4  O   UNL     1      -8.922  -8.385  16.905  0.00  0.00    -0.483 OA
BRANCH   4  31
ATOM     31  C   UNL     1     -10.139  -7.858  16.544  0.00  0.00    +0.121 A 
ATOM     32  C   UNL     1     -11.305  -8.520  16.902  0.00  0.00    +0.045 A 
ATOM     33  C   UNL     1     -10.184  -6.671  15.827  0.00  0.00    +0.045 A 
ATOM     34  C   UNL     1     -12.540  -7.986  16.535  0.00  0.00    +0.004 A 
ATOM     35  C   UNL     1     -11.418  -6.136  15.460  0.00  0.00    +0.004 A 
ATOM     36  C   UNL     1     -12.596  -6.793  15.814  0.00  0.00    +0.000 A 
ENDBRANCH   4  31
ENDBRANCH  29   4
ENDBRANCH  25  29
ENDBRANCH  20   9
TORSDOF 7
ENDMDL
MODEL 6
REMARK VINA RESULT:      -6.9     25.477     28.636
REMARK  Name = 11884481
REMARK  7 active torsions:
REMARK  status: ('A' for Active; 'I' for Inactive)
REMARK    1  A    between atoms: O_4  and  C_29
REMARK    2  A    between atoms: O_4  and  C_31
REMARK    3  A    between atoms: O_5  and  C_30
REMARK    4  A    between atoms: N_9  and  C_20
REMARK    5  A    between atoms: C_19  and  C_22
REMARK    6  A    between atoms: C_25  and  C_29
REMARK    7  A    between atoms: C_26  and  C_30
REMARK                            x       y       z     vdW  Elec       q    Type
REMARK                         _______ _______ _______ _____ _____    ______ ____
ROOT
ATOM      1  O   UNL     1      -7.270 -10.239  12.150  0.00  0.00    -0.266 OA
ATOM      2  O   UNL     1      -7.702  -8.897  17.125  0.00  0.00    -0.270 OA
ATOM      7  N   UNL     1      -8.619 -11.037  16.886  0.00  0.00    -0.297 N 
ATOM      8  N   UNL     1      -8.062 -11.661  13.826  0.00  0.00    -0.310 N 
ATOM     10  C   UNL     1     -10.280 -11.263  15.046  0.00  0.00    +0.027 C 
ATOM     11  C   UNL     1      -8.870 -13.184  15.662  0.00  0.00    +0.054 C 
ATOM     12  C   UNL     1     -10.280 -12.775  15.241  0.00  0.00    +0.018 C 
ATOM     13  C   UNL     1      -9.893 -10.552  16.355  0.00  0.00    +0.113 C 
ATOM     14  C   UNL     1      -9.326 -10.913  13.896  0.00  0.00    +0.130 C 
ATOM     15  C   UNL     1      -8.511 -12.501  16.998  0.00  0.00    +0.117 C 
ATOM     16  C   UNL     1      -7.852 -12.804  14.604  0.00  0.00    +0.027 A 
ATOM     17  C   UNL     1      -6.739 -13.538  14.440  0.00  0.00    +0.024 A 
ATOM     18  C   UNL     1      -7.123 -11.228  12.868  0.00  0.00    +0.273 A 
ATOM     19  C   UNL     1      -7.618 -10.121  17.216  0.00  0.00    +0.247 C 
ATOM     20  C   UNL     1      -5.883 -12.058  12.736  0.00  0.00    +0.099 A 
ATOM     21  C   UNL     1      -5.735 -13.155  13.488  0.00  0.00    +0.030 A 
ENDROOT
BRANCH  19  22
ATOM     22  C   UNL     1      -6.337 -10.647  17.701  0.00  0.00    +0.038 A 
ATOM     23  C   UNL     1      -5.248 -10.722  16.836  0.00  0.00    +0.028 A 
ATOM     24  C   UNL     1      -6.218 -11.071  19.021  0.00  0.00    +0.013 A 
ATOM     26  C   UNL     1      -4.031 -11.224  17.297  0.00  0.00    +0.060 A 
ATOM     27  C   UNL     1      -5.000 -11.574  19.481  0.00  0.00    +0.002 A 
ATOM     28  C   UNL     1      -3.908 -11.650  18.619  0.00  0.00    +0.015 A 
BRANCH  26  30
ATOM      6  O   UNL     1      -1.878 -10.596  16.463  0.00  0.00    -0.245 OA
ATOM     30  C   UNL     1      -2.889 -11.302  16.399  0.00  0.00    +0.337 C 
BRANCH  30   5
ATOM      5  O   UNL     1      -3.042 -12.262  15.445  0.00  0.00    -0.477 OA
ATOM     38  H   UNL     1      -3.972 -12.326  15.138  0.00  0.00    +0.295 HD
ENDBRANCH  30   5
ENDBRANCH  26  30
ENDBRANCH  19  22
BRANCH  20   9
ATOM      3  O   UNL     1      -3.674 -10.299  13.238  0.00  0.00    -0.272 OA
ATOM      9  N   UNL     1      -4.941 -11.662  11.833  0.00  0.00    -0.278 N 
ATOM     25  C   UNL     1      -3.892 -10.806  12.140  0.00  0.00    +0.255 C 
ATOM     37  H   UNL     1      -5.024 -12.024  10.887  0.00  0.00    +0.155 HD
BRANCH  25  29
ATOM     29  C   UNL     1      -3.011 -10.552  10.935  0.00  0.00    +0.324 C 
BRANCH  29   4
ATOM      4  O   UNL     1      -3.294  -9.291  10.367  0.00  0.00    -0.483 OA
BRANCH   4  31
ATOM     31  C   UNL     1      -4.420  -9.194   9.584  0.00  0.00    +0.121 A 
ATOM     32  C   UNL     1      -4.546 -10.005   8.463  0.00  0.00    +0.045 A 
ATOM     33  C   UNL     1      -5.414  -8.287   9.924  0.00  0.00    +0.045 A 
ATOM     34  C   UNL     1      -5.687  -9.907   7.669  0.00  0.00    +0.004 A 
ATOM     35  C   UNL     1      -6.556  -8.189   9.129  0.00  0.00    +0.004 A 
ATOM     36  C   UNL     1      -6.693  -8.998   8.002  0.00  0.00    +0.000 A 
ENDBRANCH   4  31
ENDBRANCH  29   4
ENDBRANCH  25  29
ENDBRANCH  20   9
TORSDOF 7
ENDMDL
MODEL 7
REMARK VINA RESULT:      -6.9     26.317     29.110
REMARK  Name = 11884481
REMARK  7 active torsions:
REMARK  status: ('A' for Active; 'I' for Inactive)
REMARK    1  A    between atoms: O_4  and  C_29
REMARK    2  A    between atoms: O_4  and  C_31
REMARK    3  A    between atoms: O_5  and  C_30
REMARK    4  A    between atoms: N_9  and  C_20
REMARK    5  A    between atoms: C_19  and  C_22
REMARK    6  A    between atoms: C_25  and  C_29
REMARK    7  A    between atoms: C_26  and  C_30
REMARK                            x       y       z     vdW  Elec       q    Type
REMARK                         _______ _______ _______ _____ _____    ______ ____
ROOT
ATOM      1  O   UNL     1      -8.330 -12.325  11.930  0.00  0.00    -0.266 OA
ATOM      2  O   UNL     1      -3.612 -14.151  13.001  0.00  0.00    -0.270 OA
ATOM      7  N   UNL     1      -3.361 -12.382  11.490  0.00  0.00    -0.297 N 
ATOM      8  N   UNL     1      -6.347 -11.361  11.159  0.00  0.00    -0.310 N 
ATOM     10  C   UNL     1      -4.809 -12.520   9.469  0.00  0.00    +0.027 C 
ATOM     11  C   UNL     1      -4.189 -10.319  10.381  0.00  0.00    +0.054 C 
ATOM     12  C   UNL     1      -4.397 -11.104   9.086  0.00  0.00    +0.018 C 
ATOM     13  C   UNL     1      -3.712 -13.187  10.319  0.00  0.00    +0.113 C 
ATOM     14  C   UNL     1      -6.154 -12.463  10.206  0.00  0.00    +0.130 C 
ATOM     15  C   UNL     1      -3.058 -10.970  11.203  0.00  0.00    +0.117 C 
ATOM     16  C   UNL     1      -5.462 -10.279  11.205  0.00  0.00    +0.027 A 
ATOM     17  C   UNL     1      -5.719  -9.228  12.002  0.00  0.00    +0.024 A 
ATOM     18  C   UNL     1      -7.514 -11.403  11.948  0.00  0.00    +0.273 A 
ATOM     19  C   UNL     1      -3.360 -12.972  12.755  0.00  0.00    +0.247 C 
ATOM     20  C   UNL     1      -7.751 -10.226  12.843  0.00  0.00    +0.099 A 
ATOM     21  C   UNL     1      -6.887  -9.204  12.837  0.00  0.00    +0.030 A 
ENDROOT
BRANCH  19  22
ATOM     22  C   UNL     1      -3.049 -12.123  13.910  0.00  0.00    +0.038 A 
ATOM     23  C   UNL     1      -4.083 -11.593  14.677  0.00  0.00    +0.028 A 
ATOM     24  C   UNL     1      -1.722 -11.848  14.230  0.00  0.00    +0.013 A 
ATOM     26  C   UNL     1      -3.786 -10.783  15.774  0.00  0.00    +0.060 A 
ATOM     27  C   UNL     1      -1.427 -11.038  15.327  0.00  0.00    +0.002 A 
ATOM     28  C   UNL     1      -2.459 -10.506  16.098  0.00  0.00    +0.015 A 
BRANCH  26  30
ATOM      6  O   UNL     1      -5.144 -10.572  17.734  0.00  0.00    -0.245 OA
ATOM     30  C   UNL     1      -4.863 -10.229  16.581  0.00  0.00    +0.337 C 
BRANCH  30   5
ATOM      5  O   UNL     1      -5.557  -9.258  15.926  0.00  0.00    -0.477 OA
ATOM     38  H   UNL     1      -5.796  -9.533  15.014  0.00  0.00    +0.295 HD
ENDBRANCH  30   5
ENDBRANCH  26  30
ENDBRANCH  19  22
BRANCH  20   9
ATOM      3  O   UNL     1      -7.901 -11.151  15.553  0.00  0.00    -0.272 OA
ATOM      9  N   UNL     1      -8.860 -10.236  13.635  0.00  0.00    -0.278 N 
ATOM     25  C   UNL     1      -8.867 -10.699  14.944  0.00  0.00    +0.255 C 
ATOM     37  H   UNL     1      -9.722  -9.881  13.231  0.00  0.00    +0.155 HD
BRANCH  25  29
ATOM     29  C   UNL     1     -10.242 -10.583  15.567  0.00  0.00    +0.324 C 
BRANCH  29   4
ATOM      4  O   UNL     1     -10.253  -9.592  16.572  0.00  0.00    -0.483 OA
BRANCH   4  31
ATOM     31  C   UNL     1     -10.920  -8.422  16.292  0.00  0.00    +0.121 A 
ATOM     32  C   UNL     1     -12.308  -8.418  16.253  0.00  0.00    +0.045 A 
ATOM     33  C   UNL     1     -10.196  -7.263  16.051  0.00  0.00    +0.045 A 
ATOM     34  C   UNL     1     -12.984  -7.233  15.968  0.00  0.00    +0.004 A 
ATOM     35  C   UNL     1     -10.872  -6.078  15.766  0.00  0.00    +0.004 A 
ATOM     36  C   UNL     1     -12.266  -6.062  15.724  0.00  0.00    +0.000 A 
ENDBRANCH   4  31
ENDBRANCH  29   4
ENDBRANCH  25  29
ENDBRANCH  20   9
TORSDOF 7
ENDMDL
MODEL 8
REMARK VINA RESULT:      -6.9     28.275     31.275
REMARK  Name = 11884481
REMARK  7 active torsions:
REMARK  status: ('A' for Active; 'I' for Inactive)
REMARK    1  A    between atoms: O_4  and  C_29
REMARK    2  A    between atoms: O_4  and  C_31
REMARK    3  A    between atoms: O_5  and  C_30
REMARK    4  A    between atoms: N_9  and  C_20
REMARK    5  A    between atoms: C_19  and  C_22
REMARK    6  A    between atoms: C_25  and  C_29
REMARK    7  A    between atoms: C_26  and  C_30
REMARK                            x       y       z     vdW  Elec       q    Type
REMARK                         _______ _______ _______ _____ _____    ______ ____
ROOT
ATOM      1  O   UNL     1      -8.990  -9.869  13.854  0.00  0.00    -0.266 OA
ATOM      2  O   UNL     1      -8.007 -14.320  16.295  0.00  0.00    -0.270 OA
ATOM      7  N   UNL     1      -6.506 -12.721  17.107  0.00  0.00    -0.297 N 
ATOM      8  N   UNL     1      -7.444 -10.097  15.591  0.00  0.00    -0.310 N 
ATOM     10  C   UNL     1      -5.281 -11.450  15.352  0.00  0.00    +0.027 C 
ATOM     11  C   UNL     1      -5.817 -10.366  17.496  0.00  0.00    +0.054 C 
ATOM     12  C   UNL     1      -4.741 -10.507  16.421  0.00  0.00    +0.018 C 
ATOM     13  C   UNL     1      -5.602 -12.827  15.961  0.00  0.00    +0.113 C 
ATOM     14  C   UNL     1      -6.513 -10.806  14.701  0.00  0.00    +0.130 C 
ATOM     15  C   UNL     1      -6.098 -11.743  18.131  0.00  0.00    +0.117 C 
ATOM     16  C   UNL     1      -7.099  -9.800  16.914  0.00  0.00    +0.027 A 
ATOM     17  C   UNL     1      -7.915  -9.052  17.674  0.00  0.00    +0.024 A 
ATOM     18  C   UNL     1      -8.650  -9.647  15.017  0.00  0.00    +0.273 A 
ATOM     19  C   UNL     1      -7.662 -13.502  17.146  0.00  0.00    +0.247 C 
ATOM     20  C   UNL     1      -9.545  -8.839  15.905  0.00  0.00    +0.099 A 
ATOM     21  C   UNL     1      -9.163  -8.564  17.158  0.00  0.00    +0.030 A 
ENDROOT
BRANCH  19  22
ATOM     22  C   UNL     1      -8.567 -13.335  18.288  0.00  0.00    +0.038 A 
ATOM     23  C   UNL     1      -9.228 -12.123  18.476  0.00  0.00    +0.028 A 
ATOM     24  C   UNL     1      -8.759 -14.387  19.180  0.00  0.00    +0.013 A 
ATOM     26  C   UNL     1     -10.087 -11.964  19.563  0.00  0.00    +0.060 A 
ATOM     27  C   UNL     1      -9.618 -14.226  20.267  0.00  0.00    +0.002 A 
ATOM     28  C   UNL     1     -10.281 -13.015  20.458  0.00  0.00    +0.015 A 
BRANCH  26  30
ATOM      6  O   UNL     1     -11.714 -10.280  19.071  0.00  0.00    -0.245 OA
ATOM     30  C   UNL     1     -10.781 -10.701  19.763  0.00  0.00    +0.337 C 
BRANCH  30   5
ATOM      5  O   UNL     1     -10.293 -10.001  20.822  0.00  0.00    -0.477 OA
ATOM     38  H   UNL     1     -10.979  -9.851  21.508  0.00  0.00    +0.295 HD
ENDBRANCH  30   5
ENDBRANCH  26  30
ENDBRANCH  19  22
BRANCH  20   9
ATOM      3  O   UNL     1     -10.250  -6.119  15.329  0.00  0.00    -0.272 OA
ATOM      9  N   UNL     1     -10.729  -8.401  15.393  0.00  0.00    -0.278 N 
ATOM     25  C   UNL     1     -11.010  -7.065  15.136  0.00  0.00    +0.255 C 
ATOM     37  H   UNL     1     -11.436  -9.103  15.192  0.00  0.00    +0.155 HD
BRANCH  25  29
ATOM     29  C   UNL     1     -12.403  -6.889  14.569  0.00  0.00    +0.324 C 
BRANCH  29   4
ATOM      4  O   UNL     1     -12.878  -5.582  14.811  0.00  0.00    -0.483 OA
BRANCH   4  31
ATOM     31  C   UNL     1     -13.186  -4.814  13.712  0.00  0.00    +0.121 A 
ATOM     32  C   UNL     1     -12.163  -4.301  12.927  0.00  0.00    +0.045 A 
ATOM     33  C   UNL     1     -14.516  -4.562  13.405  0.00  0.00    +0.045 A 
ATOM     34  C   UNL     1     -12.476  -3.521  11.814  0.00  0.00    +0.004 A 
ATOM     35  C   UNL     1     -14.829  -3.783  12.292  0.00  0.00    +0.004 A 
ATOM     36  C   UNL     1     -13.809  -3.262  11.496  0.00  0.00    +0.000 A 
ENDBRANCH   4  31
ENDBRANCH  29   4
ENDBRANCH  25  29
ENDBRANCH  20   9
TORSDOF 7
ENDMDL
MODEL 9
REMARK VINA RESULT:      -6.9     25.494     28.077
REMARK  Name = 11884481
REMARK  7 active torsions:
REMARK  status: ('A' for Active; 'I' for Inactive)
REMARK    1  A    between atoms: O_4  and  C_29
REMARK    2  A    between atoms: O_4  and  C_31
REMARK    3  A    between atoms: O_5  and  C_30
REMARK    4  A    between atoms: N_9  and  C_20
REMARK    5  A    between atoms: C_19  and  C_22
REMARK    6  A    between atoms: C_25  and  C_29
REMARK    7  A    between atoms: C_26  and  C_30
REMARK                            x       y       z     vdW  Elec       q    Type
REMARK                         _______ _______ _______ _____ _____    ______ ____
ROOT
ATOM      1  O   UNL     1      -4.805 -12.517   9.904  0.00  0.00    -0.266 OA
ATOM      2  O   UNL     1      -6.224 -14.349  14.527  0.00  0.00    -0.270 OA
ATOM      7  N   UNL     1      -3.921 -14.697  14.304  0.00  0.00    -0.297 N 
ATOM      8  N   UNL     1      -3.312 -13.338  11.503  0.00  0.00    -0.310 N 
ATOM     10  C   UNL     1      -3.232 -15.806  12.185  0.00  0.00    +0.027 C 
ATOM     11  C   UNL     1      -1.723 -14.187  13.264  0.00  0.00    +0.054 C 
ATOM     12  C   UNL     1      -1.772 -15.520  12.518  0.00  0.00    +0.018 C 
ATOM     13  C   UNL     1      -4.070 -15.892  13.473  0.00  0.00    +0.113 C 
ATOM     14  C   UNL     1      -3.745 -14.716  11.234  0.00  0.00    +0.130 C 
ATOM     15  C   UNL     1      -2.529 -14.299  14.574  0.00  0.00    +0.117 C 
ATOM     16  C   UNL     1      -2.285 -13.064  12.412  0.00  0.00    +0.027 A 
ATOM     17  C   UNL     1      -1.826 -11.810  12.557  0.00  0.00    +0.024 A 
ATOM     18  C   UNL     1      -3.910 -12.323  10.729  0.00  0.00    +0.273 A 
ATOM     19  C   UNL     1      -5.059 -14.022  14.749  0.00  0.00    +0.247 C 
ATOM     20  C   UNL     1      -3.389 -10.935  10.939  0.00  0.00    +0.099 A 
ATOM     21  C   UNL     1      -2.392 -10.726  11.806  0.00  0.00    +0.030 A 
ENDROOT
BRANCH  19  22
ATOM     22  C   UNL     1      -4.870 -12.802  15.541  0.00  0.00    +0.038 A 
ATOM     23  C   UNL     1      -4.741 -12.888  16.925  0.00  0.00    +0.028 A 
ATOM     24  C   UNL     1      -4.824 -11.564  14.905  0.00  0.00    +0.013 A 
ATOM     26  C   UNL     1      -4.563 -11.726  17.677  0.00  0.00    +0.060 A 
ATOM     27  C   UNL     1      -4.647 -10.403  15.659  0.00  0.00    +0.002 A 
ATOM     28  C   UNL     1      -4.517 -10.485  17.044  0.00  0.00    +0.015 A 
BRANCH  26  30
ATOM      6  O   UNL     1      -5.324 -11.594  19.942  0.00  0.00    -0.245 OA
ATOM     30  C   UNL     1      -4.425 -11.810  19.123  0.00  0.00    +0.337 C 
BRANCH  30   5
ATOM      5  O   UNL     1      -3.168 -12.164  19.506  0.00  0.00    -0.477 OA
ATOM     38  H   UNL     1      -2.668 -12.585  18.773  0.00  0.00    +0.295 HD
ENDBRANCH  30   5
ENDBRANCH  26  30
ENDBRANCH  19  22
BRANCH  20   9
ATOM      3  O   UNL     1      -5.687  -9.392  11.690  0.00  0.00    -0.272 OA
ATOM      9  N   UNL     1      -3.955  -9.923  10.222  0.00  0.00    -0.278 N 
ATOM     25  C   UNL     1      -5.071  -9.212  10.642  0.00  0.00    +0.255 C 
ATOM     37  H   UNL     1      -3.523  -9.687   9.333  0.00  0.00    +0.155 HD
BRANCH  25  29
ATOM     29  C   UNL     1      -5.465  -8.151   9.637  0.00  0.00    +0.324 C 
BRANCH  29   4
ATOM      4  O   UNL     1      -6.855  -8.188   9.391  0.00  0.00    -0.483 OA
BRANCH   4  31
ATOM     31  C   UNL     1      -7.259  -8.166   8.077  0.00  0.00    +0.121 A 
ATOM     32  C   UNL     1      -8.120  -7.167   7.642  0.00  0.00    +0.045 A 
ATOM     33  C   UNL     1      -6.803  -9.145   7.205  0.00  0.00    +0.045 A 
ATOM     34  C   UNL     1      -8.531  -7.146   6.309  0.00  0.00    +0.004 A 
ATOM     35  C   UNL     1      -7.214  -9.124   5.872  0.00  0.00    +0.004 A 
ATOM     36  C   UNL     1      -8.077  -8.125   5.424  0.00  0.00    +0.000 A 
ENDBRANCH   4  31
ENDBRANCH  29   4
ENDBRANCH  25  29
ENDBRANCH  20   9
TORSDOF 7
ENDMDL
MODEL 10
REMARK VINA RESULT:      -6.8     25.405     29.080
REMARK  Name = 11884481
REMARK  7 active torsions:
REMARK  status: ('A' for Active; 'I' for Inactive)
REMARK    1  A    between atoms: O_4  and  C_29
REMARK    2  A    between atoms: O_4  and  C_31
REMARK    3  A    between atoms: O_5  and  C_30
REMARK    4  A    between atoms: N_9  and  C_20
REMARK    5  A    between atoms: C_19  and  C_22
REMARK    6  A    between atoms: C_25  and  C_29
REMARK    7  A    between atoms: C_26  and  C_30
REMARK                            x       y       z     vdW  Elec       q    Type
REMARK                         _______ _______ _______ _____ _____    ______ ____
ROOT
ATOM      1  O   UNL     1      -4.763 -13.731  16.046  0.00  0.00    -0.266 OA
ATOM      2  O   UNL     1      -9.808 -12.940  16.856  0.00  0.00    -0.270 OA
ATOM      7  N   UNL     1      -8.634 -11.300  18.043  0.00  0.00    -0.297 N 
ATOM      8  N   UNL     1      -5.630 -11.913  17.229  0.00  0.00    -0.310 N 
ATOM     10  C   UNL     1      -6.805 -12.166  19.492  0.00  0.00    +0.027 C 
ATOM     11  C   UNL     1      -6.598  -9.940  18.461  0.00  0.00    +0.054 C 
ATOM     12  C   UNL     1      -6.332 -10.738  19.737  0.00  0.00    +0.018 C 
ATOM     13  C   UNL     1      -8.308 -12.185  19.161  0.00  0.00    +0.113 C 
ATOM     14  C   UNL     1      -5.959 -12.781  18.368  0.00  0.00    +0.130 C 
ATOM     15  C   UNL     1      -8.111  -9.928  18.165  0.00  0.00    +0.117 C 
ATOM     16  C   UNL     1      -5.851 -10.532  17.281  0.00  0.00    +0.027 A 
ATOM     17  C   UNL     1      -5.436  -9.743  16.276  0.00  0.00    +0.024 A 
ATOM     18  C   UNL     1      -4.993 -12.524  16.130  0.00  0.00    +0.273 A 
ATOM     19  C   UNL     1      -9.369 -11.795  16.964  0.00  0.00    +0.247 C 
ATOM     20  C   UNL     1      -4.572 -11.613  15.019  0.00  0.00    +0.099 A 
ATOM     21  C   UNL     1      -4.785 -10.297  15.123  0.00  0.00    +0.030 A 
ENDROOT
BRANCH  19  22
ATOM     22  C   UNL     1      -9.636 -10.892  15.840  0.00  0.00    +0.038 A 
ATOM     23  C   UNL     1      -8.704 -10.770  14.813  0.00  0.00    +0.028 A 
ATOM     24  C   UNL     1     -10.819 -10.158  15.808  0.00  0.00    +0.013 A 
ATOM     26  C   UNL     1      -8.958  -9.909  13.746  0.00  0.00    +0.060 A 
ATOM     27  C   UNL     1     -11.071  -9.296  14.740  0.00  0.00    +0.002 A 
ATOM     28  C   UNL     1     -10.141  -9.172  13.710  0.00  0.00    +0.015 A 
BRANCH  26  30
ATOM      6  O   UNL     1      -8.027 -10.386  11.593  0.00  0.00    -0.245 OA
ATOM     30  C   UNL     1      -7.988  -9.779  12.668  0.00  0.00    +0.337 C 
BRANCH  30   5
ATOM      5  O   UNL     1      -6.997  -8.894  12.964  0.00  0.00    -0.477 OA
ATOM     38  H   UNL     1      -6.254  -8.952  12.325  0.00  0.00    +0.295 HD
ENDBRANCH  30   5
ENDBRANCH  26  30
ENDBRANCH  19  22
BRANCH  20   9
ATOM      3  O   UNL     1      -5.882 -12.652  12.689  0.00  0.00    -0.272 OA
ATOM      9  N   UNL     1      -3.968 -12.169  13.930  0.00  0.00    -0.278 N 
ATOM     25  C   UNL     1      -4.662 -12.655  12.829  0.00  0.00    +0.255 C 
ATOM     37  H   UNL     1      -2.954 -12.221  13.938  0.00  0.00    +0.155 HD
BRANCH  25  29
ATOM     29  C   UNL     1      -3.721 -13.209  11.780  0.00  0.00    +0.324 C 
BRANCH  29   4
ATOM      4  O   UNL     1      -2.845 -12.205  11.314  0.00  0.00    -0.483 OA
BRANCH   4  31
ATOM     31  C   UNL     1      -3.379 -11.238  10.495  0.00  0.00    +0.121 A 
ATOM     32  C   UNL     1      -3.149  -9.898  10.778  0.00  0.00    +0.045 A 
ATOM     33  C   UNL     1      -4.140 -11.615   9.398  0.00  0.00    +0.045 A 
ATOM     34  C   UNL     1      -3.690  -8.918   9.948  0.00  0.00    +0.004 A 
ATOM     35  C   UNL     1      -4.682 -10.634   8.568  0.00  0.00    +0.004 A 
ATOM     36  C   UNL     1      -4.457  -9.286   8.842  0.00  0.00    +0.000 A 
ENDBRANCH   4  31
ENDBRANCH  29   4
ENDBRANCH  25  29
ENDBRANCH  20   9
TORSDOF 7
ENDMDL
