MODEL 1
REMARK VINA RESULT:      -6.4      0.000      0.000
REMARK  Name = 45783668
REMARK  8 active torsions:
REMARK  status: ('A' for Active; 'I' for Inactive)
REMARK    1  A    between atoms: N_2  and  C_11
REMARK    2  A    between atoms: N_6  and  C_23
REMARK    3  A    between atoms: C_8  and  C_14
REMARK    4  A    between atoms: C_11  and  C_13
REMARK    5  A    between atoms: C_13  and  C_15
REMARK    6  A    between atoms: C_13  and  C_16
REMARK    7  A    between atoms: C_13  and  C_17
REMARK    8  A    between atoms: C_18  and  C_19
REMARK                            x       y       z     vdW  Elec       q    Type
REMARK                         _______ _______ _______ _____ _____    ______ ____
ROOT
ATOM      1  O   UNL     1      21.714   7.248  21.814  0.00  0.00    -0.336 OA
ATOM      3  N   UNL     1      19.895   6.174  22.559  0.00  0.00    -0.190 NA
ATOM      4  N   UNL     1      20.675   7.588  20.939  0.00  0.00    -0.056 NA
ATOM     14  C   UNL     1      21.170   6.412  22.737  0.00  0.00    +0.245 A 
ATOM     18  C   UNL     1      19.635   6.918  21.445  0.00  0.00    +0.204 A 
ENDROOT
BRANCH  18  19
ATOM      5  N   UNL     1      16.107   7.923  20.842  0.00  0.00    -0.237 NA
ATOM     19  C   UNL     1      18.327   6.967  20.860  0.00  0.00    +0.041 A 
ATOM     20  C   UNL     1      17.990   6.147  19.787  0.00  0.00    +0.017 A 
ATOM     21  C   UNL     1      17.358   7.830  21.345  0.00  0.00    +0.124 A 
ATOM     22  C   UNL     1      16.712   6.216  19.242  0.00  0.00    +0.047 A 
ATOM     23  C   UNL     1      15.816   7.112  19.800  0.00  0.00    +0.139 A 
BRANCH  23   6
ATOM      6  N   UNL     1      14.541   7.185  19.260  0.00  0.00    -0.290 N 
ATOM      7  N   UNL     1      12.330   7.037  19.120  0.00  0.00    -0.244 NA
ATOM     24  C   UNL     1      14.219   7.589  17.996  0.00  0.00    +0.114 A 
ATOM     25  C   UNL     1      13.375   6.864  19.898  0.00  0.00    +0.205 A 
ATOM     26  C   UNL     1      12.849   7.490  17.933  0.00  0.00    +0.130 A 
ENDBRANCH  23   6
ENDBRANCH  18  19
BRANCH  14   8
ATOM      2  N   UNL     1      23.274   5.189  23.255  0.00  0.00    -0.291 NA
ATOM      8  C   UNL     1      22.102   5.894  23.812  0.00  0.00    +0.146 C 
ATOM      9  C   UNL     1      22.697   7.022  24.675  0.00  0.00    +0.030 C 
ATOM     10  C   UNL     1      24.361   5.373  24.217  0.00  0.00    +0.085 C 
ATOM     12  C   UNL     1      24.206   6.833  24.592  0.00  0.00    +0.017 C 
BRANCH   2  11
ATOM     11  C   UNL     1      23.019   3.782  22.978  0.00  0.00    +0.091 C 
BRANCH  11  13
ATOM     13  C   UNL     1      22.962   3.436  21.467  0.00  0.00    -0.025 C 
ATOM     15  C   UNL     1      23.703   2.104  21.247  0.00  0.00    +0.012 C 
ATOM     16  C   UNL     1      23.648   4.524  20.621  0.00  0.00    +0.012 C 
ATOM     17  C   UNL     1      21.506   3.273  20.997  0.00  0.00    +0.012 C 
ENDBRANCH  11  13
ENDBRANCH   2  11
ENDBRANCH  14   8
TORSDOF 5
ENDMDL
MODEL 2
REMARK VINA RESULT:      -6.3      2.519      9.005
REMARK  Name = 45783668
REMARK  8 active torsions:
REMARK  status: ('A' for Active; 'I' for Inactive)
REMARK    1  A    between atoms: N_2  and  C_11
REMARK    2  A    between atoms: N_6  and  C_23
REMARK    3  A    between atoms: C_8  and  C_14
REMARK    4  A    between atoms: C_11  and  C_13
REMARK    5  A    between atoms: C_13  and  C_15
REMARK    6  A    between atoms: C_13  and  C_16
REMARK    7  A    between atoms: C_13  and  C_17
REMARK    8  A    between atoms: C_18  and  C_19
REMARK                            x       y       z     vdW  Elec       q    Type
REMARK                         _______ _______ _______ _____ _____    ______ ____
ROOT
ATOM      1  O   UNL     1      15.527   9.957  20.833  0.00  0.00    -0.336 OA
ATOM      3  N   UNL     1      15.506   7.718  20.798  0.00  0.00    -0.190 NA
ATOM      4  N   UNL     1      16.869   9.555  20.822  0.00  0.00    -0.056 NA
ATOM     14  C   UNL     1      14.792   8.815  20.818  0.00  0.00    +0.245 A 
ATOM     18  C   UNL     1      16.774   8.222  20.801  0.00  0.00    +0.204 A 
ENDROOT
BRANCH  18  19
ATOM      5  N   UNL     1      20.151   6.885  21.594  0.00  0.00    -0.237 NA
ATOM     19  C   UNL     1      17.925   7.366  20.785  0.00  0.00    +0.041 A 
ATOM     20  C   UNL     1      17.961   6.228  19.986  0.00  0.00    +0.017 A 
ATOM     21  C   UNL     1      19.035   7.647  21.565  0.00  0.00    +0.124 A 
ATOM     22  C   UNL     1      19.092   5.419  19.991  0.00  0.00    +0.047 A 
ATOM     23  C   UNL     1      20.150   5.787  20.804  0.00  0.00    +0.139 A 
BRANCH  23   6
ATOM      6  N   UNL     1      21.281   4.984  20.813  0.00  0.00    -0.290 N 
ATOM      7  N   UNL     1      23.400   4.373  20.563  0.00  0.00    -0.244 NA
ATOM     24  C   UNL     1      21.338   3.672  21.190  0.00  0.00    +0.114 A 
ATOM     25  C   UNL     1      22.542   5.361  20.445  0.00  0.00    +0.205 A 
ATOM     26  C   UNL     1      22.657   3.317  21.027  0.00  0.00    +0.130 A 
ENDBRANCH  23   6
ENDBRANCH  18  19
BRANCH  14   8
ATOM      2  N   UNL     1      12.663   8.556  19.556  0.00  0.00    -0.291 NA
ATOM      8  C   UNL     1      13.287   8.981  20.825  0.00  0.00    +0.146 C 
ATOM      9  C   UNL     1      12.599   8.126  21.906  0.00  0.00    +0.030 C 
ATOM     10  C   UNL     1      11.316   8.094  19.893  0.00  0.00    +0.085 C 
ATOM     12  C   UNL     1      11.564   7.297  21.158  0.00  0.00    +0.017 C 
BRANCH   2  11
ATOM     11  C   UNL     1      12.646   9.604  18.545  0.00  0.00    +0.091 C 
BRANCH  11  13
ATOM     13  C   UNL     1      13.466   9.267  17.272  0.00  0.00    -0.025 C 
ATOM     15  C   UNL     1      14.631  10.269  17.167  0.00  0.00    +0.012 C 
ATOM     16  C   UNL     1      12.601   9.386  16.005  0.00  0.00    +0.012 C 
ATOM     17  C   UNL     1      14.047   7.845  17.357  0.00  0.00    +0.012 C 
ENDBRANCH  11  13
ENDBRANCH   2  11
ENDBRANCH  14   8
TORSDOF 5
ENDMDL
MODEL 3
REMARK VINA RESULT:      -6.3      2.803      9.283
REMARK  Name = 45783668
REMARK  8 active torsions:
REMARK  status: ('A' for Active; 'I' for Inactive)
REMARK    1  A    between atoms: N_2  and  C_11
REMARK    2  A    between atoms: N_6  and  C_23
REMARK    3  A    between atoms: C_8  and  C_14
REMARK    4  A    between atoms: C_11  and  C_13
REMARK    5  A    between atoms: C_13  and  C_15
REMARK    6  A    between atoms: C_13  and  C_16
REMARK    7  A    between atoms: C_13  and  C_17
REMARK    8  A    between atoms: C_18  and  C_19
REMARK                            x       y       z     vdW  Elec       q    Type
REMARK                         _______ _______ _______ _____ _____    ______ ____
ROOT
ATOM      1  O   UNL     1      14.151   6.981  19.653  0.00  0.00    -0.336 OA
ATOM      3  N   UNL     1      15.500   7.452  21.379  0.00  0.00    -0.190 NA
ATOM      4  N   UNL     1      15.396   6.421  19.340  0.00  0.00    -0.056 NA
ATOM     14  C   UNL     1      14.299   7.569  20.870  0.00  0.00    +0.245 A 
ATOM     18  C   UNL     1      16.137   6.740  20.406  0.00  0.00    +0.204 A 
ENDROOT
BRANCH  18  19
ATOM      5  N   UNL     1      19.371   5.033  19.737  0.00  0.00    -0.237 NA
ATOM     19  C   UNL     1      17.516   6.366  20.527  0.00  0.00    +0.041 A 
ATOM     20  C   UNL     1      18.329   6.930  21.505  0.00  0.00    +0.017 A 
ATOM     21  C   UNL     1      18.081   5.431  19.675  0.00  0.00    +0.124 A 
ATOM     22  C   UNL     1      19.663   6.546  21.598  0.00  0.00    +0.047 A 
ATOM     23  C   UNL     1      20.131   5.603  20.699  0.00  0.00    +0.139 A 
BRANCH  23   6
ATOM      6  N   UNL     1      21.460   5.216  20.789  0.00  0.00    -0.290 N 
ATOM      7  N   UNL     1      23.673   5.336  20.667  0.00  0.00    -0.244 NA
ATOM     24  C   UNL     1      21.923   3.999  21.202  0.00  0.00    +0.114 A 
ATOM     25  C   UNL     1      22.546   5.985  20.479  0.00  0.00    +0.205 A 
ATOM     26  C   UNL     1      23.292   4.097  21.119  0.00  0.00    +0.130 A 
ENDBRANCH  23   6
ENDBRANCH  18  19
BRANCH  14   8
ATOM      2  N   UNL     1      12.431   9.164  20.472  0.00  0.00    -0.291 NA
ATOM      8  C   UNL     1      13.076   8.255  21.440  0.00  0.00    +0.146 C 
ATOM      9  C   UNL     1      11.971   7.262  21.843  0.00  0.00    +0.030 C 
ATOM     10  C   UNL     1      11.009   9.189  20.814  0.00  0.00    +0.085 C 
ATOM     12  C   UNL     1      10.728   7.727  21.097  0.00  0.00    +0.017 C 
BRANCH   2  11
ATOM     11  C   UNL     1      13.016  10.498  20.457  0.00  0.00    +0.091 C 
BRANCH  11  13
ATOM     13  C   UNL     1      13.698  10.874  19.117  0.00  0.00    -0.025 C 
ATOM     15  C   UNL     1      13.085  10.007  18.001  0.00  0.00    +0.012 C 
ATOM     16  C   UNL     1      15.213  10.607  19.168  0.00  0.00    +0.012 C 
ATOM     17  C   UNL     1      13.456  12.355  18.776  0.00  0.00    +0.012 C 
ENDBRANCH  11  13
ENDBRANCH   2  11
ENDBRANCH  14   8
TORSDOF 5
ENDMDL
MODEL 4
REMARK VINA RESULT:      -6.2      1.795      2.906
REMARK  Name = 45783668
REMARK  8 active torsions:
REMARK  status: ('A' for Active; 'I' for Inactive)
REMARK    1  A    between atoms: N_2  and  C_11
REMARK    2  A    between atoms: N_6  and  C_23
REMARK    3  A    between atoms: C_8  and  C_14
REMARK    4  A    between atoms: C_11  and  C_13
REMARK    5  A    between atoms: C_13  and  C_15
REMARK    6  A    between atoms: C_13  and  C_16
REMARK    7  A    between atoms: C_13  and  C_17
REMARK    8  A    between atoms: C_18  and  C_19
REMARK                            x       y       z     vdW  Elec       q    Type
REMARK                         _______ _______ _______ _____ _____    ______ ____
ROOT
ATOM      1  O   UNL     1      20.956   6.005  22.378  0.00  0.00    -0.336 OA
ATOM      3  N   UNL     1      20.167   5.168  20.456  0.00  0.00    -0.190 NA
ATOM      4  N   UNL     1      19.705   6.601  22.179  0.00  0.00    -0.056 NA
ATOM     14  C   UNL     1      21.152   5.177  21.319  0.00  0.00    +0.245 A 
ATOM     18  C   UNL     1      19.302   6.056  21.027  0.00  0.00    +0.204 A 
ENDROOT
BRANCH  18  19
ATOM      5  N   UNL     1      16.430   5.965  18.668  0.00  0.00    -0.237 NA
ATOM     19  C   UNL     1      18.044   6.380  20.418  0.00  0.00    +0.041 A 
ATOM     20  C   UNL     1      17.231   7.380  20.941  0.00  0.00    +0.017 A 
ATOM     21  C   UNL     1      17.601   5.707  19.291  0.00  0.00    +0.124 A 
ATOM     22  C   UNL     1      16.017   7.672  20.327  0.00  0.00    +0.047 A 
ATOM     23  C   UNL     1      15.666   6.943  19.204  0.00  0.00    +0.139 A 
BRANCH  23   6
ATOM      6  N   UNL     1      14.457   7.231  18.589  0.00  0.00    -0.290 N 
ATOM      7  N   UNL     1      13.016   7.802  16.999  0.00  0.00    -0.244 NA
ATOM     24  C   UNL     1      13.223   7.202  19.174  0.00  0.00    +0.114 A 
ATOM     25  C   UNL     1      14.283   7.596  17.283  0.00  0.00    +0.205 A 
ATOM     26  C   UNL     1      12.351   7.558  18.173  0.00  0.00    +0.130 A 
ENDBRANCH  23   6
ENDBRANCH  18  19
BRANCH  14   8
ATOM      2  N   UNL     1      23.611   5.229  21.696  0.00  0.00    -0.291 NA
ATOM      8  C   UNL     1      22.453   4.403  21.298  0.00  0.00    +0.146 C 
ATOM      9  C   UNL     1      22.457   3.221  22.285  0.00  0.00    +0.030 C 
ATOM     10  C   UNL     1      24.578   4.316  22.305  0.00  0.00    +0.085 C 
ATOM     12  C   UNL     1      23.686   3.436  23.157  0.00  0.00    +0.017 C 
BRANCH   2  11
ATOM     11  C   UNL     1      24.188   5.980  20.589  0.00  0.00    +0.091 C 
BRANCH  11  13
ATOM     13  C   UNL     1      24.091   7.519  20.752  0.00  0.00    -0.025 C 
ATOM     15  C   UNL     1      25.305   8.158  20.053  0.00  0.00    +0.012 C 
ATOM     16  C   UNL     1      24.112   7.924  22.237  0.00  0.00    +0.012 C 
ATOM     17  C   UNL     1      22.807   8.060  20.098  0.00  0.00    +0.012 C 
ENDBRANCH  11  13
ENDBRANCH   2  11
ENDBRANCH  14   8
TORSDOF 5
ENDMDL
MODEL 5
REMARK VINA RESULT:      -6.1      8.136      9.945
REMARK  Name = 45783668
REMARK  8 active torsions:
REMARK  status: ('A' for Active; 'I' for Inactive)
REMARK    1  A    between atoms: N_2  and  C_11
REMARK    2  A    between atoms: N_6  and  C_23
REMARK    3  A    between atoms: C_8  and  C_14
REMARK    4  A    between atoms: C_11  and  C_13
REMARK    5  A    between atoms: C_13  and  C_15
REMARK    6  A    between atoms: C_13  and  C_16
REMARK    7  A    between atoms: C_13  and  C_17
REMARK    8  A    between atoms: C_18  and  C_19
REMARK                            x       y       z     vdW  Elec       q    Type
REMARK                         _______ _______ _______ _____ _____    ______ ____
ROOT
ATOM      1  O   UNL     1      12.365   6.959  18.682  0.00  0.00    -0.336 OA
ATOM      3  N   UNL     1      13.509   8.848  19.059  0.00  0.00    -0.190 NA
ATOM      4  N   UNL     1      12.821   7.395  17.432  0.00  0.00    -0.056 NA
ATOM     14  C   UNL     1      12.813   7.871  19.585  0.00  0.00    +0.245 A 
ATOM     18  C   UNL     1      13.488   8.512  17.737  0.00  0.00    +0.204 A 
ENDROOT
BRANCH  18  19
ATOM      5  N   UNL     1      15.031   9.515  14.506  0.00  0.00    -0.237 NA
ATOM     19  C   UNL     1      14.139   9.317  16.744  0.00  0.00    +0.041 A 
ATOM     20  C   UNL     1      14.513  10.629  17.017  0.00  0.00    +0.017 A 
ATOM     21  C   UNL     1      14.418   8.812  15.485  0.00  0.00    +0.124 A 
ATOM     22  C   UNL     1      15.145  11.384  16.035  0.00  0.00    +0.047 A 
ATOM     23  C   UNL     1      15.380  10.786  14.808  0.00  0.00    +0.139 A 
BRANCH  23   6
ATOM      6  N   UNL     1      16.010  11.535  13.825  0.00  0.00    -0.290 N 
ATOM      7  N   UNL     1      17.573  12.742  12.813  0.00  0.00    -0.244 NA
ATOM     24  C   UNL     1      15.501  11.852  12.598  0.00  0.00    +0.114 A 
ATOM     25  C   UNL     1      17.256  12.090  13.909  0.00  0.00    +0.205 A 
ATOM     26  C   UNL     1      16.484  12.597  11.991  0.00  0.00    +0.130 A 
ENDBRANCH  23   6
ENDBRANCH  18  19
BRANCH  14   8
ATOM      2  N   UNL     1      12.003   8.850  21.724  0.00  0.00    -0.291 NA
ATOM      8  C   UNL     1      12.448   7.624  21.033  0.00  0.00    +0.146 C 
ATOM      9  C   UNL     1      11.276   6.638  21.190  0.00  0.00    +0.030 C 
ATOM     10  C   UNL     1      11.066   8.421  22.763  0.00  0.00    +0.085 C 
ATOM     12  C   UNL     1      10.246   7.377  22.034  0.00  0.00    +0.017 C 
BRANCH   2  11
ATOM     11  C   UNL     1      13.104   9.634  22.268  0.00  0.00    +0.091 C 
BRANCH  11  13
ATOM     13  C   UNL     1      12.890  11.168  22.182  0.00  0.00    -0.025 C 
ATOM     15  C   UNL     1      14.212  11.817  21.732  0.00  0.00    +0.012 C 
ATOM     16  C   UNL     1      12.498  11.753  23.551  0.00  0.00    +0.012 C 
ATOM     17  C   UNL     1      11.798  11.511  21.154  0.00  0.00    +0.012 C 
ENDBRANCH  11  13
ENDBRANCH   2  11
ENDBRANCH  14   8
TORSDOF 5
ENDMDL
MODEL 6
REMARK VINA RESULT:      -6.0      1.550      2.279
REMARK  Name = 45783668
REMARK  8 active torsions:
REMARK  status: ('A' for Active; 'I' for Inactive)
REMARK    1  A    between atoms: N_2  and  C_11
REMARK    2  A    between atoms: N_6  and  C_23
REMARK    3  A    between atoms: C_8  and  C_14
REMARK    4  A    between atoms: C_11  and  C_13
REMARK    5  A    between atoms: C_13  and  C_15
REMARK    6  A    between atoms: C_13  and  C_16
REMARK    7  A    between atoms: C_13  and  C_17
REMARK    8  A    between atoms: C_18  and  C_19
REMARK                            x       y       z     vdW  Elec       q    Type
REMARK                         _______ _______ _______ _____ _____    ______ ____
ROOT
ATOM      1  O   UNL     1      21.191   6.271  22.972  0.00  0.00    -0.336 OA
ATOM      3  N   UNL     1      20.853   6.991  20.877  0.00  0.00    -0.190 NA
ATOM      4  N   UNL     1      19.804   6.257  22.773  0.00  0.00    -0.056 NA
ATOM     14  C   UNL     1      21.732   6.717  21.807  0.00  0.00    +0.245 A 
ATOM     18  C   UNL     1      19.684   6.693  21.515  0.00  0.00    +0.204 A 
ENDROOT
BRANCH  18  19
ATOM      5  N   UNL     1      16.847   6.091  19.190  0.00  0.00    -0.237 NA
ATOM     19  C   UNL     1      18.413   6.845  20.869  0.00  0.00    +0.041 A 
ATOM     20  C   UNL     1      17.528   7.847  21.255  0.00  0.00    +0.017 A 
ATOM     21  C   UNL     1      18.028   6.000  19.841  0.00  0.00    +0.124 A 
ATOM     22  C   UNL     1      16.303   7.971  20.608  0.00  0.00    +0.047 A 
ATOM     23  C   UNL     1      16.013   7.076  19.592  0.00  0.00    +0.139 A 
BRANCH  23   6
ATOM      6  N   UNL     1      14.792   7.195  18.944  0.00  0.00    -0.290 N 
ATOM      7  N   UNL     1      13.330   7.535  17.308  0.00  0.00    -0.244 NA
ATOM     24  C   UNL     1      13.558   7.037  19.507  0.00  0.00    +0.114 A 
ATOM     25  C   UNL     1      14.606   7.493  17.623  0.00  0.00    +0.205 A 
ATOM     26  C   UNL     1      12.672   7.251  18.478  0.00  0.00    +0.130 A 
ENDBRANCH  23   6
ENDBRANCH  18  19
BRANCH  14   8
ATOM      2  N   UNL     1      23.877   5.644  21.143  0.00  0.00    -0.291 NA
ATOM      8  C   UNL     1      23.242   6.824  21.763  0.00  0.00    +0.146 C 
ATOM      9  C   UNL     1      23.729   8.018  20.921  0.00  0.00    +0.030 C 
ATOM     10  C   UNL     1      25.118   6.117  20.531  0.00  0.00    +0.085 C 
ATOM     12  C   UNL     1      24.678   7.419  19.893  0.00  0.00    +0.017 C 
BRANCH   2  11
ATOM     11  C   UNL     1      24.109   4.555  22.083  0.00  0.00    +0.091 C 
BRANCH  11  13
ATOM     13  C   UNL     1      23.502   3.199  21.641  0.00  0.00    -0.025 C 
ATOM     15  C   UNL     1      24.292   2.688  20.423  0.00  0.00    +0.012 C 
ATOM     16  C   UNL     1      22.025   3.355  21.236  0.00  0.00    +0.012 C 
ATOM     17  C   UNL     1      23.610   2.157  22.769  0.00  0.00    +0.012 C 
ENDBRANCH  11  13
ENDBRANCH   2  11
ENDBRANCH  14   8
TORSDOF 5
ENDMDL
MODEL 7
REMARK VINA RESULT:      -6.0     28.901     32.606
REMARK  Name = 45783668
REMARK  8 active torsions:
REMARK  status: ('A' for Active; 'I' for Inactive)
REMARK    1  A    between atoms: N_2  and  C_11
REMARK    2  A    between atoms: N_6  and  C_23
REMARK    3  A    between atoms: C_8  and  C_14
REMARK    4  A    between atoms: C_11  and  C_13
REMARK    5  A    between atoms: C_13  and  C_15
REMARK    6  A    between atoms: C_13  and  C_16
REMARK    7  A    between atoms: C_13  and  C_17
REMARK    8  A    between atoms: C_18  and  C_19
REMARK                            x       y       z     vdW  Elec       q    Type
REMARK                         _______ _______ _______ _____ _____    ______ ____
ROOT
ATOM      1  O   UNL     1      -7.234 -10.698  20.027  0.00  0.00    -0.336 OA
ATOM      3  N   UNL     1      -7.865 -11.056  17.908  0.00  0.00    -0.190 NA
ATOM      4  N   UNL     1      -6.085 -10.528  19.244  0.00  0.00    -0.056 NA
ATOM     14  C   UNL     1      -8.236 -11.007  19.163  0.00  0.00    +0.245 A 
ATOM     18  C   UNL     1      -6.538 -10.755  18.007  0.00  0.00    +0.204 A 
ENDROOT
BRANCH  18  19
ATOM      5  N   UNL     1      -5.457 -10.254  14.486  0.00  0.00    -0.237 NA
ATOM     19  C   UNL     1      -5.692 -10.691  16.851  0.00  0.00    +0.041 A 
ATOM     20  C   UNL     1      -4.336 -10.991  16.938  0.00  0.00    +0.017 A 
ATOM     21  C   UNL     1      -6.198 -10.331  15.613  0.00  0.00    +0.124 A 
ATOM     22  C   UNL     1      -3.541 -10.921  15.799  0.00  0.00    +0.047 A 
ATOM     23  C   UNL     1      -4.143 -10.552  14.609  0.00  0.00    +0.139 A 
BRANCH  23   6
ATOM      6  N   UNL     1      -3.355 -10.482  13.470  0.00  0.00    -0.290 N 
ATOM      7  N   UNL     1      -2.809 -10.407  11.319  0.00  0.00    -0.244 NA
ATOM     24  C   UNL     1      -1.992 -10.399  13.433  0.00  0.00    +0.114 A 
ATOM     25  C   UNL     1      -3.801 -10.483  12.178  0.00  0.00    +0.205 A 
ATOM     26  C   UNL     1      -1.678 -10.354  12.095  0.00  0.00    +0.130 A 
ENDBRANCH  23   6
ENDBRANCH  18  19
BRANCH  14   8
ATOM      2  N   UNL     1     -10.698 -11.032  18.803  0.00  0.00    -0.291 NA
ATOM      8  C   UNL     1      -9.603 -11.242  19.771  0.00  0.00    +0.146 C 
ATOM      9  C   UNL     1      -9.791 -12.687  20.268  0.00  0.00    +0.030 C 
ATOM     10  C   UNL     1     -11.790 -11.912  19.219  0.00  0.00    +0.085 C 
ATOM     12  C   UNL     1     -11.050 -13.186  19.572  0.00  0.00    +0.017 C 
BRANCH   2  11
ATOM     11  C   UNL     1     -11.120  -9.641  18.707  0.00  0.00    +0.091 C 
BRANCH  11  13
ATOM     13  C   UNL     1     -10.988  -9.037  17.285  0.00  0.00    -0.025 C 
ATOM     15  C   UNL     1      -9.825  -8.027  17.293  0.00  0.00    +0.012 C 
ATOM     16  C   UNL     1     -12.274  -8.300  16.870  0.00  0.00    +0.012 C 
ATOM     17  C   UNL     1     -10.677 -10.135  16.252  0.00  0.00    +0.012 C 
ENDBRANCH  11  13
ENDBRANCH   2  11
ENDBRANCH  14   8
TORSDOF 5
ENDMDL
MODEL 8
REMARK VINA RESULT:      -6.0     16.559     20.982
REMARK  Name = 45783668
REMARK  8 active torsions:
REMARK  status: ('A' for Active; 'I' for Inactive)
REMARK    1  A    between atoms: N_2  and  C_11
REMARK    2  A    between atoms: N_6  and  C_23
REMARK    3  A    between atoms: C_8  and  C_14
REMARK    4  A    between atoms: C_11  and  C_13
REMARK    5  A    between atoms: C_13  and  C_15
REMARK    6  A    between atoms: C_13  and  C_16
REMARK    7  A    between atoms: C_13  and  C_17
REMARK    8  A    between atoms: C_18  and  C_19
REMARK                            x       y       z     vdW  Elec       q    Type
REMARK                         _______ _______ _______ _____ _____    ______ ____
ROOT
ATOM      1  O   UNL     1      12.622   6.801   0.696  0.00  0.00    -0.336 OA
ATOM      3  N   UNL     1      11.455   5.027   1.408  0.00  0.00    -0.190 NA
ATOM      4  N   UNL     1      12.359   7.026   2.053  0.00  0.00    -0.056 NA
ATOM     14  C   UNL     1      12.055   5.603   0.397  0.00  0.00    +0.245 A 
ATOM     18  C   UNL     1      11.669   5.936   2.402  0.00  0.00    +0.204 A 
ENDROOT
BRANCH  18  19
ATOM      5  N   UNL     1      11.145   6.407   6.052  0.00  0.00    -0.237 NA
ATOM     19  C   UNL     1      11.176   5.728   3.733  0.00  0.00    +0.041 A 
ATOM     20  C   UNL     1      10.289   4.695   4.015  0.00  0.00    +0.017 A 
ATOM     21  C   UNL     1      11.569   6.550   4.777  0.00  0.00    +0.124 A 
ATOM     22  C   UNL     1       9.830   4.517   5.316  0.00  0.00    +0.047 A 
ATOM     23  C   UNL     1      10.284   5.391   6.289  0.00  0.00    +0.139 A 
BRANCH  23   6
ATOM      6  N   UNL     1       9.829   5.219   7.588  0.00  0.00    -0.290 N 
ATOM      7  N   UNL     1       8.965   5.714   9.572  0.00  0.00    -0.244 NA
ATOM     24  C   UNL     1       9.822   4.050   8.295  0.00  0.00    +0.114 A 
ATOM     25  C   UNL     1       9.305   6.189   8.395  0.00  0.00    +0.205 A 
ATOM     26  C   UNL     1       9.284   4.380   9.516  0.00  0.00    +0.130 A 
ENDBRANCH  23   6
ENDBRANCH  18  19
BRANCH  14   8
ATOM      2  N   UNL     1      13.393   4.274  -1.227  0.00  0.00    -0.291 NA
ATOM      8  C   UNL     1      12.201   5.124  -1.032  0.00  0.00    +0.146 C 
ATOM      9  C   UNL     1      11.018   4.252  -1.491  0.00  0.00    +0.030 C 
ATOM     10  C   UNL     1      13.070   3.355  -2.319  0.00  0.00    +0.085 C 
ATOM     12  C   UNL     1      11.648   2.955  -1.982  0.00  0.00    +0.017 C 
BRANCH   2  11
ATOM     11  C   UNL     1      14.605   5.037  -1.493  0.00  0.00    +0.091 C 
BRANCH  11  13
ATOM     13  C   UNL     1      15.732   4.816  -0.450  0.00  0.00    -0.025 C 
ATOM     15  C   UNL     1      16.945   4.201  -1.172  0.00  0.00    +0.012 C 
ATOM     16  C   UNL     1      15.281   3.849   0.660  0.00  0.00    +0.012 C 
ATOM     17  C   UNL     1      16.161   6.151   0.184  0.00  0.00    +0.012 C 
ENDBRANCH  11  13
ENDBRANCH   2  11
ENDBRANCH  14   8
TORSDOF 5
ENDMDL
MODEL 9
REMARK VINA RESULT:      -6.0      5.836      9.526
REMARK  Name = 45783668
REMARK  8 active torsions:
REMARK  status: ('A' for Active; 'I' for Inactive)
REMARK    1  A    between atoms: N_2  and  C_11
REMARK    2  A    between atoms: N_6  and  C_23
REMARK    3  A    between atoms: C_8  and  C_14
REMARK    4  A    between atoms: C_11  and  C_13
REMARK    5  A    between atoms: C_13  and  C_15
REMARK    6  A    between atoms: C_13  and  C_16
REMARK    7  A    between atoms: C_13  and  C_17
REMARK    8  A    between atoms: C_18  and  C_19
REMARK                            x       y       z     vdW  Elec       q    Type
REMARK                         _______ _______ _______ _____ _____    ______ ____
ROOT
ATOM      1  O   UNL     1      12.752   7.503  17.190  0.00  0.00    -0.336 OA
ATOM      3  N   UNL     1      13.154   9.567  17.961  0.00  0.00    -0.190 NA
ATOM      4  N   UNL     1      13.274   8.227  16.111  0.00  0.00    -0.056 NA
ATOM     14  C   UNL     1      12.714   8.366  18.239  0.00  0.00    +0.245 A 
ATOM     18  C   UNL     1      13.487   9.434  16.645  0.00  0.00    +0.204 A 
ENDROOT
BRANCH  18  19
ATOM      5  N   UNL     1      13.934  11.920  13.916  0.00  0.00    -0.237 NA
ATOM     19  C   UNL     1      14.028  10.527  15.890  0.00  0.00    +0.041 A 
ATOM     20  C   UNL     1      15.127  11.243  16.352  0.00  0.00    +0.017 A 
ATOM     21  C   UNL     1      13.472  10.902  14.677  0.00  0.00    +0.124 A 
ATOM     22  C   UNL     1      15.630  12.297  15.596  0.00  0.00    +0.047 A 
ATOM     23  C   UNL     1      15.003  12.592  14.397  0.00  0.00    +0.139 A 
BRANCH  23   6
ATOM      6  N   UNL     1      15.501  13.643  13.640  0.00  0.00    -0.290 N 
ATOM      7  N   UNL     1      16.966  15.047  12.741  0.00  0.00    -0.244 NA
ATOM     24  C   UNL     1      14.771  14.498  12.865  0.00  0.00    +0.114 A 
ATOM     25  C   UNL     1      16.813  14.010  13.534  0.00  0.00    +0.205 A 
ATOM     26  C   UNL     1      15.697  15.355  12.319  0.00  0.00    +0.130 A 
ENDBRANCH  23   6
ENDBRANCH  18  19
BRANCH  14   8
ATOM      2  N   UNL     1      13.155   7.930  20.649  0.00  0.00    -0.291 NA
ATOM      8  C   UNL     1      12.181   7.817  19.546  0.00  0.00    +0.146 C 
ATOM      9  C   UNL     1      10.936   8.574  20.044  0.00  0.00    +0.030 C 
ATOM     10  C   UNL     1      12.373   8.060  21.879  0.00  0.00    +0.085 C 
ATOM     12  C   UNL     1      11.283   9.023  21.457  0.00  0.00    +0.017 C 
BRANCH   2  11
ATOM     11  C   UNL     1      14.088   6.812  20.707  0.00  0.00    +0.091 C 
BRANCH  11  13
ATOM     13  C   UNL     1      15.549   7.189  20.348  0.00  0.00    -0.025 C 
ATOM     15  C   UNL     1      15.851   6.664  18.933  0.00  0.00    +0.012 C 
ATOM     16  C   UNL     1      16.547   6.551  21.331  0.00  0.00    +0.012 C 
ATOM     17  C   UNL     1      15.737   8.717  20.356  0.00  0.00    +0.012 C 
ENDBRANCH  11  13
ENDBRANCH   2  11
ENDBRANCH  14   8
TORSDOF 5
ENDMDL
MODEL 10
REMARK VINA RESULT:      -5.9     34.590     36.812
REMARK  Name = 45783668
REMARK  8 active torsions:
REMARK  status: ('A' for Active; 'I' for Inactive)
REMARK    1  A    between atoms: N_2  and  C_11
REMARK    2  A    between atoms: N_6  and  C_23
REMARK    3  A    between atoms: C_8  and  C_14
REMARK    4  A    between atoms: C_11  and  C_13
REMARK    5  A    between atoms: C_13  and  C_15
REMARK    6  A    between atoms: C_13  and  C_16
REMARK    7  A    between atoms: C_13  and  C_17
REMARK    8  A    between atoms: C_18  and  C_19
REMARK                            x       y       z     vdW  Elec       q    Type
REMARK                         _______ _______ _______ _____ _____    ______ ____
ROOT
ATOM      1  O   UNL     1     -17.534   2.138  22.256  0.00  0.00    -0.336 OA
ATOM      3  N   UNL     1     -17.293   3.726  23.817  0.00  0.00    -0.190 NA
ATOM      4  N   UNL     1     -17.164   1.474  23.432  0.00  0.00    -0.056 NA
ATOM     14  C   UNL     1     -17.586   3.459  22.569  0.00  0.00    +0.245 A 
ATOM     18  C   UNL     1     -17.042   2.477  24.307  0.00  0.00    +0.204 A 
ENDROOT
BRANCH  18  19
ATOM      5  N   UNL     1     -16.414   0.744  27.536  0.00  0.00    -0.237 NA
ATOM     19  C   UNL     1     -16.668   2.266  25.676  0.00  0.00    +0.041 A 
ATOM     20  C   UNL     1     -16.214   3.318  26.465  0.00  0.00    +0.017 A 
ATOM     21  C   UNL     1     -16.748   1.010  26.253  0.00  0.00    +0.124 A 
ATOM     22  C   UNL     1     -15.860   3.082  27.789  0.00  0.00    +0.047 A 
ATOM     23  C   UNL     1     -15.977   1.790  28.272  0.00  0.00    +0.139 A 
BRANCH  23   6
ATOM      6  N   UNL     1     -15.625   1.550  29.592  0.00  0.00    -0.290 N 
ATOM      7  N   UNL     1     -15.233   1.935  31.743  0.00  0.00    -0.244 NA
ATOM     24  C   UNL     1     -15.228   0.354  30.120  0.00  0.00    +0.114 A 
ATOM     25  C   UNL     1     -15.613   2.469  30.604  0.00  0.00    +0.205 A 
ATOM     26  C   UNL     1     -14.992   0.617  31.448  0.00  0.00    +0.130 A 
ENDBRANCH  23   6
ENDBRANCH  18  19
BRANCH  14   8
ATOM      2  N   UNL     1     -16.801   5.080  20.852  0.00  0.00    -0.291 NA
ATOM      8  C   UNL     1     -17.970   4.404  21.450  0.00  0.00    +0.146 C 
ATOM      9  C   UNL     1     -18.651   3.684  20.272  0.00  0.00    +0.030 C 
ATOM     10  C   UNL     1     -17.151   5.352  19.458  0.00  0.00    +0.085 C 
ATOM     12  C   UNL     1     -17.831   4.062  19.046  0.00  0.00    +0.017 C 
BRANCH   2  11
ATOM     11  C   UNL     1     -16.409   6.288  21.566  0.00  0.00    +0.091 C 
BRANCH  11  13
ATOM     13  C   UNL     1     -14.878   6.433  21.769  0.00  0.00    -0.025 C 
ATOM     15  C   UNL     1     -14.635   7.379  22.959  0.00  0.00    +0.012 C 
ATOM     16  C   UNL     1     -14.205   7.032  20.521  0.00  0.00    +0.012 C 
ATOM     17  C   UNL     1     -14.237   5.070  22.085  0.00  0.00    +0.012 C 
ENDBRANCH  11  13
ENDBRANCH   2  11
ENDBRANCH  14   8
TORSDOF 5
ENDMDL
