REMARK  Name = 11865732
REMARK  10 active torsions:
REMARK  status: ('A' for Active; 'I' for Inactive)
REMARK    1  A    between atoms: S_1  and  C_20
REMARK    2  A    between atoms: S_1  and  C_28
REMARK    3  A    between atoms: N_9  and  C_13
REMARK    4  A    between atoms: N_10  and  C_19
REMARK    5  A    between atoms: N_11  and  C_25
REMARK    6  A    between atoms: C_14  and  C_17
REMARK    7  A    between atoms: C_18  and  C_20
REMARK    8  A    between atoms: C_19  and  C_22
REMARK    9  A    between atoms: C_19  and  C_23
REMARK   10  A    between atoms: C_22  and  C_24
REMARK                            x       y       z     vdW  Elec       q    Type
REMARK                         _______ _______ _______ _____ _____    ______ ____
ROOT
ATOM      5  O   UNL     1      -5.153   0.904   0.201  0.00  0.00    -0.275 OA
ATOM      8  N   UNL     1      -3.180   1.685  -0.725  0.00  0.00    -0.287 N 
ATOM     13  C   UNL     1      -1.042   2.070  -1.684  0.00  0.00    +0.094 C 
ATOM     14  C   UNL     1      -2.766   0.419  -1.310  0.00  0.00    +0.164 C 
ATOM     15  C   UNL     1      -1.623   0.775  -2.259  0.00  0.00    +0.055 C 
ATOM     16  C   UNL     1      -2.255   2.763  -1.073  0.00  0.00    +0.131 C 
ATOM     18  C   UNL     1      -4.397   1.837  -0.077  0.00  0.00    +0.226 C 
ENDROOT
BRANCH  13   9
ATOM      6  O   UNL     1       1.776   1.853  -2.155  0.00  0.00    -0.252 OA
ATOM      9  N   UNL     1      -0.021   1.809  -0.700  0.00  0.00    -0.295 N 
ATOM     11  N   UNL     1       2.090   1.459   0.138  0.00  0.00    -0.267 N 
ATOM     21  C   UNL     1       1.341   1.718  -1.013  0.00  0.00    +0.304 C 
ATOM     37  H   UNL     1      -0.308   1.623   0.256  0.00  0.00    +0.151 HD
ATOM     39  H   UNL     1       1.575   1.374   1.011  0.00  0.00    +0.156 HD
BRANCH  11  25
ATOM      2  F   UNL     1       3.316   0.944   2.587  0.00  0.00    -0.203 F 
ATOM      3  F   UNL     1       7.582   0.831   0.547  0.00  0.00    -0.205 F 
ATOM     25  C   UNL     1       3.491   1.298   0.245  0.00  0.00    +0.070 A 
ATOM     29  C   UNL     1       4.074   1.042   1.486  0.00  0.00    +0.147 A 
ATOM     30  C   UNL     1       4.290   1.396  -0.894  0.00  0.00    +0.029 A 
ATOM     34  C   UNL     1       5.456   0.885   1.588  0.00  0.00    +0.078 A 
ATOM     35  C   UNL     1       5.672   1.238  -0.792  0.00  0.00    +0.040 A 
ATOM     36  C   UNL     1       6.255   0.983   0.449  0.00  0.00    +0.126 A 
ENDBRANCH  11  25
ENDBRANCH  13   9
BRANCH  14  17
ATOM      4  O   UNL     1      -1.804  -0.060   0.822  0.00  0.00    -0.274 OA
ATOM     10  N   UNL     1      -2.495  -1.828  -0.525  0.00  0.00    -0.302 N 
ATOM     17  C   UNL     1      -2.306  -0.493  -0.212  0.00  0.00    +0.234 C 
ATOM     38  H   UNL     1      -2.942  -2.073  -1.405  0.00  0.00    +0.150 HD
BRANCH  10  19
ATOM     19  C   UNL     1      -2.115  -2.908   0.355  0.00  0.00    +0.163 C 
BRANCH  19  23
ATOM      7  O   UNL     1      -4.350  -3.790  -0.007  0.00  0.00    -0.274 OA
ATOM     12  N   UNL     1      -3.339  -4.159   2.022  0.00  0.00    -0.328 N 
ATOM     23  C   UNL     1      -3.391  -3.639   0.746  0.00  0.00    +0.231 C 
ATOM     40  H   UNL     1      -4.120  -4.682   2.403  0.00  0.00    +0.145 HD
ATOM     41  H   UNL     1      -2.530  -4.047   2.625  0.00  0.00    +0.145 HD
ENDBRANCH  19  23
BRANCH  19  22
ATOM     22  C   UNL     1      -1.127  -3.876  -0.307  0.00  0.00    +0.067 C 
BRANCH  22  24
ATOM     24  C   UNL     1       0.289  -3.355  -0.307  0.00  0.00    -0.045 A 
ATOM     26  C   UNL     1       0.748  -2.583  -1.375  0.00  0.00    +0.004 A 
ATOM     27  C   UNL     1       1.140  -3.646   0.759  0.00  0.00    +0.004 A 
ATOM     31  C   UNL     1       2.057  -2.101  -1.375  0.00  0.00    +0.000 A 
ATOM     32  C   UNL     1       2.449  -3.164   0.759  0.00  0.00    +0.000 A 
ATOM     33  C   UNL     1       2.908  -2.392  -0.308  0.00  0.00    +0.000 A 
ENDBRANCH  22  24
ENDBRANCH  19  22
ENDBRANCH  10  19
ENDBRANCH  14  17
BRANCH  18  20
ATOM     20  C   UNL     1      -4.763   3.251   0.297  0.00  0.00    +0.164 C 
BRANCH  20   1
ATOM      1  S   UNL     1      -4.124   3.562   1.949  0.00  0.00    -0.155 S 
ATOM     28  C   UNL     1      -4.683   5.271   2.149  0.00  0.00    +0.085 C 
ENDBRANCH  20   1
ENDBRANCH  18  20
TORSDOF 9
