MODEL 1
REMARK VINA RESULT:      -6.7      0.000      0.000
REMARK  Name = 56775821
REMARK  8 active torsions:
REMARK  status: ('A' for Active; 'I' for Inactive)
REMARK    1  A    between atoms: O_4  and  C_27
REMARK    2  A    between atoms: O_4  and  C_28
REMARK    3  A    between atoms: N_5  and  C_8
REMARK    4  A    between atoms: N_5  and  C_13
REMARK    5  A    between atoms: C_8  and  C_11
REMARK    6  A    between atoms: C_11  and  C_12
REMARK    7  A    between atoms: C_13  and  C_21
REMARK    8  A    between atoms: C_20  and  C_22
REMARK                            x       y       z     vdW  Elec       q    Type
REMARK                         _______ _______ _______ _____ _____    ______ ____
ROOT
ATOM      1  O   UNL     1      11.313   6.010  20.746  0.00  0.00    -0.376 OA
ATOM      8  C   UNL     1      12.641   7.659  21.016  0.00  0.00    +0.072 C 
ATOM      9  C   UNL     1      12.444   6.530  20.010  0.00  0.00    +0.184 C 
ATOM     10  C   UNL     1      11.386   7.108  21.683  0.00  0.00    +0.184 C 
ENDROOT
BRANCH   8   5
ATOM      5  N   UNL     1      13.793   7.347  21.851  0.00  0.00    -0.302 NA
ATOM     29  H   UNL     1      14.286   6.491  21.606  0.00  0.00    +0.123 HD
BRANCH   5  13
ATOM     13  C   UNL     1      14.724   8.473  21.848  0.00  0.00    +0.117 C 
BRANCH  13  21
ATOM     21  C   UNL     1      16.126   8.040  21.514  0.00  0.00    -0.033 A 
ATOM     23  C   UNL     1      17.190   8.926  21.683  0.00  0.00    +0.008 A 
ATOM     24  C   UNL     1      16.363   6.750  21.037  0.00  0.00    +0.008 A 
ATOM     25  C   UNL     1      18.489   8.525  21.374  0.00  0.00    +0.046 A 
ATOM     26  C   UNL     1      17.663   6.348  20.728  0.00  0.00    +0.046 A 
ATOM     27  C   UNL     1      18.725   7.235  20.896  0.00  0.00    +0.120 A 
BRANCH  27   4
ATOM      4  O   UNL     1      19.993   6.843  20.596  0.00  0.00    -0.495 OA
ATOM     28  C   UNL     1      20.246   5.438  20.558  0.00  0.00    +0.277 C 
ENDBRANCH  27   4
ENDBRANCH  13  21
ENDBRANCH   5  13
ENDBRANCH   8   5
BRANCH   8  11
ATOM     11  C   UNL     1      12.640   9.110  20.517  0.00  0.00    +0.085 C 
BRANCH  11  12
ATOM      2  O   UNL     1      12.088   9.138  16.988  0.00  0.00    -0.350 OA
ATOM      7  N   UNL     1      11.642   9.041  18.300  0.00  0.00    -0.082 NA
ATOM     12  C   UNL     1      12.741   9.167  19.049  0.00  0.00    +0.086 A 
ATOM     19  C   UNL     1      13.899   9.344  18.271  0.00  0.00    +0.081 A 
ATOM     20  C   UNL     1      13.433   9.318  16.984  0.00  0.00    +0.222 A 
BRANCH  20  22
ATOM      3  O   UNL     1      14.055   8.468  14.946  0.00  0.00    -0.267 OA
ATOM      6  N   UNL     1      14.777  10.643  15.409  0.00  0.00    -0.295 N 
ATOM     14  C   UNL     1      15.971  10.784  14.565  0.00  0.00    +0.108 C 
ATOM     15  C   UNL     1      14.315  11.887  16.025  0.00  0.00    +0.108 C 
ATOM     16  C   UNL     1      15.731  11.815  13.466  0.00  0.00    +0.019 C 
ATOM     17  C   UNL     1      14.044  12.948  14.961  0.00  0.00    +0.019 C 
ATOM     18  C   UNL     1      15.259  13.146  14.052  0.00  0.00    +0.003 C 
ATOM     22  C   UNL     1      14.115   9.446  15.689  0.00  0.00    +0.285 C 
ENDBRANCH  20  22
ENDBRANCH  11  12
ENDBRANCH   8  11
TORSDOF 7
ENDMDL
MODEL 2
REMARK VINA RESULT:      -6.7      1.963      6.549
REMARK  Name = 56775821
REMARK  8 active torsions:
REMARK  status: ('A' for Active; 'I' for Inactive)
REMARK    1  A    between atoms: O_4  and  C_27
REMARK    2  A    between atoms: O_4  and  C_28
REMARK    3  A    between atoms: N_5  and  C_8
REMARK    4  A    between atoms: N_5  and  C_13
REMARK    5  A    between atoms: C_8  and  C_11
REMARK    6  A    between atoms: C_11  and  C_12
REMARK    7  A    between atoms: C_13  and  C_21
REMARK    8  A    between atoms: C_20  and  C_22
REMARK                            x       y       z     vdW  Elec       q    Type
REMARK                         _______ _______ _______ _____ _____    ______ ____
ROOT
ATOM      1  O   UNL     1      10.494   6.720  21.494  0.00  0.00    -0.376 OA
ATOM      8  C   UNL     1      12.393   7.561  21.004  0.00  0.00    +0.072 C 
ATOM      9  C   UNL     1      10.992   8.067  21.328  0.00  0.00    +0.184 C 
ATOM     10  C   UNL     1      11.818   6.179  21.288  0.00  0.00    +0.184 C 
ENDROOT
BRANCH   8   5
ATOM      5  N   UNL     1      12.619   7.691  19.571  0.00  0.00    -0.302 NA
ATOM     29  H   UNL     1      12.052   7.081  18.986  0.00  0.00    +0.123 HD
BRANCH   5  13
ATOM     13  C   UNL     1      12.428   9.082  19.166  0.00  0.00    +0.117 C 
BRANCH  13  21
ATOM     21  C   UNL     1      13.165   9.402  17.893  0.00  0.00    -0.033 A 
ATOM     23  C   UNL     1      13.616  10.700  17.655  0.00  0.00    +0.008 A 
ATOM     24  C   UNL     1      13.400   8.399  16.953  0.00  0.00    +0.008 A 
ATOM     25  C   UNL     1      14.300  10.996  16.476  0.00  0.00    +0.046 A 
ATOM     26  C   UNL     1      14.085   8.694  15.773  0.00  0.00    +0.046 A 
ATOM     27  C   UNL     1      14.534   9.993  15.535  0.00  0.00    +0.120 A 
BRANCH  27   4
ATOM      4  O   UNL     1      15.202  10.281  14.385  0.00  0.00    -0.495 OA
ATOM     28  C   UNL     1      15.749  11.594  14.264  0.00  0.00    +0.277 C 
ENDBRANCH  27   4
ENDBRANCH  13  21
ENDBRANCH   5  13
ENDBRANCH   8   5
BRANCH   8  11
ATOM     11  C   UNL     1      13.577   8.060  21.844  0.00  0.00    +0.085 C 
BRANCH  11  12
ATOM      2  O   UNL     1      16.635   8.305  20.014  0.00  0.00    -0.350 OA
ATOM      7  N   UNL     1      15.488   8.858  20.569  0.00  0.00    -0.082 NA
ATOM     12  C   UNL     1      14.854   7.835  21.147  0.00  0.00    +0.086 A 
ATOM     19  C   UNL     1      15.547   6.621  20.990  0.00  0.00    +0.081 A 
ATOM     20  C   UNL     1      16.659   6.972  20.271  0.00  0.00    +0.222 A 
BRANCH  20  22
ATOM      3  O   UNL     1      17.627   5.621  18.690  0.00  0.00    -0.267 OA
ATOM      6  N   UNL     1      18.952   6.133  20.547  0.00  0.00    -0.295 N 
ATOM     14  C   UNL     1      19.893   5.007  20.604  0.00  0.00    +0.108 C 
ATOM     15  C   UNL     1      19.277   7.246  21.440  0.00  0.00    +0.108 C 
ATOM     16  C   UNL     1      21.313   5.479  20.301  0.00  0.00    +0.019 C 
ATOM     17  C   UNL     1      20.686   7.766  21.163  0.00  0.00    +0.019 C 
ATOM     18  C   UNL     1      21.715   6.636  21.217  0.00  0.00    +0.003 C 
ATOM     22  C   UNL     1      17.793   6.187  19.769  0.00  0.00    +0.285 C 
ENDBRANCH  20  22
ENDBRANCH  11  12
ENDBRANCH   8  11
TORSDOF 7
ENDMDL
MODEL 3
REMARK VINA RESULT:      -6.3     27.084     28.714
REMARK  Name = 56775821
REMARK  8 active torsions:
REMARK  status: ('A' for Active; 'I' for Inactive)
REMARK    1  A    between atoms: O_4  and  C_27
REMARK    2  A    between atoms: O_4  and  C_28
REMARK    3  A    between atoms: N_5  and  C_8
REMARK    4  A    between atoms: N_5  and  C_13
REMARK    5  A    between atoms: C_8  and  C_11
REMARK    6  A    between atoms: C_11  and  C_12
REMARK    7  A    between atoms: C_13  and  C_21
REMARK    8  A    between atoms: C_20  and  C_22
REMARK                            x       y       z     vdW  Elec       q    Type
REMARK                         _______ _______ _______ _____ _____    ______ ____
ROOT
ATOM      1  O   UNL     1      -2.143 -14.030  13.170  0.00  0.00    -0.376 OA
ATOM      8  C   UNL     1      -2.522 -12.194  14.190  0.00  0.00    +0.072 C 
ATOM      9  C   UNL     1      -1.336 -13.123  13.955  0.00  0.00    +0.184 C 
ATOM     10  C   UNL     1      -3.282 -13.147  13.275  0.00  0.00    +0.184 C 
ENDROOT
BRANCH   8   5
ATOM      5  N   UNL     1      -2.997 -12.375  15.555  0.00  0.00    -0.302 NA
ATOM     29  H   UNL     1      -2.462 -13.035  16.116  0.00  0.00    +0.123 HD
BRANCH   5  13
ATOM     13  C   UNL     1      -3.052 -11.082  16.234  0.00  0.00    +0.117 C 
BRANCH  13  21
ATOM     21  C   UNL     1      -4.198 -11.007  17.206  0.00  0.00    -0.033 A 
ATOM     23  C   UNL     1      -4.126 -11.683  18.424  0.00  0.00    +0.008 A 
ATOM     24  C   UNL     1      -5.334 -10.261  16.890  0.00  0.00    +0.008 A 
ATOM     25  C   UNL     1      -5.187 -11.613  19.326  0.00  0.00    +0.046 A 
ATOM     26  C   UNL     1      -6.396 -10.191  17.791  0.00  0.00    +0.046 A 
ATOM     27  C   UNL     1      -6.323 -10.867  19.009  0.00  0.00    +0.120 A 
BRANCH  27   4
ATOM      4  O   UNL     1      -7.359 -10.798  19.888  0.00  0.00    -0.495 OA
ATOM     28  C   UNL     1      -8.593 -11.392  19.486  0.00  0.00    +0.277 C 
ENDBRANCH  27   4
ENDBRANCH  13  21
ENDBRANCH   5  13
ENDBRANCH   8   5
BRANCH   8  11
ATOM     11  C   UNL     1      -2.401 -10.717  13.790  0.00  0.00    +0.085 C 
BRANCH  11  12
ATOM      2  O   UNL     1      -5.040  -9.995  11.493  0.00  0.00    -0.350 OA
ATOM      7  N   UNL     1      -4.562 -10.268  12.768  0.00  0.00    -0.082 NA
ATOM     12  C   UNL     1      -3.243 -10.413  12.620  0.00  0.00    +0.086 A 
ATOM     19  C   UNL     1      -2.834 -10.246  11.286  0.00  0.00    +0.081 A 
ATOM     20  C   UNL     1      -4.002  -9.984  10.618  0.00  0.00    +0.222 A 
BRANCH  20  22
ATOM      3  O   UNL     1      -4.021  -8.581   8.804  0.00  0.00    -0.267 OA
ATOM      6  N   UNL     1      -4.836 -10.740   8.434  0.00  0.00    -0.295 N 
ATOM     14  C   UNL     1      -5.740 -10.563   7.289  0.00  0.00    +0.108 C 
ATOM     15  C   UNL     1      -4.564 -12.134   8.787  0.00  0.00    +0.108 C 
ATOM     16  C   UNL     1      -5.193 -11.281   6.059  0.00  0.00    +0.019 C 
ATOM     17  C   UNL     1      -3.997 -12.892   7.588  0.00  0.00    +0.019 C 
ATOM     18  C   UNL     1      -4.902 -12.751   6.363  0.00  0.00    +0.003 C 
ATOM     22  C   UNL     1      -4.286  -9.713   9.204  0.00  0.00    +0.285 C 
ENDBRANCH  20  22
ENDBRANCH  11  12
ENDBRANCH   8  11
TORSDOF 7
ENDMDL
MODEL 4
REMARK VINA RESULT:      -6.2      4.271     10.078
REMARK  Name = 56775821
REMARK  8 active torsions:
REMARK  status: ('A' for Active; 'I' for Inactive)
REMARK    1  A    between atoms: O_4  and  C_27
REMARK    2  A    between atoms: O_4  and  C_28
REMARK    3  A    between atoms: N_5  and  C_8
REMARK    4  A    between atoms: N_5  and  C_13
REMARK    5  A    between atoms: C_8  and  C_11
REMARK    6  A    between atoms: C_11  and  C_12
REMARK    7  A    between atoms: C_13  and  C_21
REMARK    8  A    between atoms: C_20  and  C_22
REMARK                            x       y       z     vdW  Elec       q    Type
REMARK                         _______ _______ _______ _____ _____    ______ ____
ROOT
ATOM      1  O   UNL     1      20.677   8.216  25.004  0.00  0.00    -0.376 OA
ATOM      8  C   UNL     1      20.263   8.181  22.910  0.00  0.00    +0.072 C 
ATOM      9  C   UNL     1      20.397   9.228  24.011  0.00  0.00    +0.184 C 
ATOM     10  C   UNL     1      20.658   7.183  23.993  0.00  0.00    +0.184 C 
ENDROOT
BRANCH   8   5
ATOM      5  N   UNL     1      18.851   8.004  22.600  0.00  0.00    -0.302 NA
ATOM     29  H   UNL     1      18.212   8.178  23.374  0.00  0.00    +0.123 HD
BRANCH   5  13
ATOM     13  C   UNL     1      18.487   8.844  21.462  0.00  0.00    +0.117 C 
BRANCH  13  21
ATOM     21  C   UNL     1      17.262   8.329  20.754  0.00  0.00    -0.033 A 
ATOM     23  C   UNL     1      16.219   9.200  20.440  0.00  0.00    +0.008 A 
ATOM     24  C   UNL     1      17.170   6.980  20.411  0.00  0.00    +0.008 A 
ATOM     25  C   UNL     1      15.085   8.724  19.784  0.00  0.00    +0.046 A 
ATOM     26  C   UNL     1      16.036   6.503  19.755  0.00  0.00    +0.046 A 
ATOM     27  C   UNL     1      14.993   7.374  19.441  0.00  0.00    +0.120 A 
BRANCH  27   4
ATOM      4  O   UNL     1      13.887   6.909  18.800  0.00  0.00    -0.495 OA
ATOM     28  C   UNL     1      12.623   7.401  19.245  0.00  0.00    +0.277 C 
ENDBRANCH  27   4
ENDBRANCH  13  21
ENDBRANCH   5  13
ENDBRANCH   8   5
BRANCH   8  11
ATOM     11  C   UNL     1      21.140   8.303  21.657  0.00  0.00    +0.085 C 
BRANCH  11  12
ATOM      2  O   UNL     1      21.474   5.028  20.272  0.00  0.00    -0.350 OA
ATOM      7  N   UNL     1      20.737   6.169  20.564  0.00  0.00    -0.082 NA
ATOM     12  C   UNL     1      21.590   6.980  21.193  0.00  0.00    +0.086 A 
ATOM     19  C   UNL     1      22.868   6.410  21.326  0.00  0.00    +0.081 A 
ATOM     20  C   UNL     1      22.741   5.183  20.731  0.00  0.00    +0.222 A 
BRANCH  20  22
ATOM      3  O   UNL     1      24.564   4.274  19.675  0.00  0.00    -0.267 OA
ATOM      6  N   UNL     1      23.542   2.928  21.290  0.00  0.00    -0.295 N 
ATOM     14  C   UNL     1      23.905   1.569  20.867  0.00  0.00    +0.108 C 
ATOM     15  C   UNL     1      22.922   3.011  22.613  0.00  0.00    +0.108 C 
ATOM     16  C   UNL     1      24.839   0.923  21.887  0.00  0.00    +0.019 C 
ATOM     17  C   UNL     1      23.829   2.390  23.673  0.00  0.00    +0.019 C 
ATOM     18  C   UNL     1      24.236   0.966  23.291  0.00  0.00    +0.003 C 
ATOM     22  C   UNL     1      23.696   4.087  20.526  0.00  0.00    +0.285 C 
ENDBRANCH  20  22
ENDBRANCH  11  12
ENDBRANCH   8  11
TORSDOF 7
ENDMDL
MODEL 5
REMARK VINA RESULT:      -6.2     26.958     31.254
REMARK  Name = 56775821
REMARK  8 active torsions:
REMARK  status: ('A' for Active; 'I' for Inactive)
REMARK    1  A    between atoms: O_4  and  C_27
REMARK    2  A    between atoms: O_4  and  C_28
REMARK    3  A    between atoms: N_5  and  C_8
REMARK    4  A    between atoms: N_5  and  C_13
REMARK    5  A    between atoms: C_8  and  C_11
REMARK    6  A    between atoms: C_11  and  C_12
REMARK    7  A    between atoms: C_13  and  C_21
REMARK    8  A    between atoms: C_20  and  C_22
REMARK                            x       y       z     vdW  Elec       q    Type
REMARK                         _______ _______ _______ _____ _____    ______ ____
ROOT
ATOM      1  O   UNL     1     -17.774   6.033  20.121  0.00  0.00    -0.376 OA
ATOM      8  C   UNL     1     -16.433   6.282  21.763  0.00  0.00    +0.072 C 
ATOM      9  C   UNL     1     -17.260   7.175  20.845  0.00  0.00    +0.184 C 
ATOM     10  C   UNL     1     -17.089   5.127  21.016  0.00  0.00    +0.184 C 
ENDROOT
BRANCH   8   5
ATOM      5  N   UNL     1     -15.035   6.366  21.363  0.00  0.00    -0.302 NA
ATOM     29  H   UNL     1     -14.875   6.449  20.361  0.00  0.00    +0.123 HD
BRANCH   5  13
ATOM     13  C   UNL     1     -14.388   7.475  22.060  0.00  0.00    +0.117 C 
BRANCH  13  21
ATOM     21  C   UNL     1     -13.221   8.022  21.283  0.00  0.00    -0.033 A 
ATOM     23  C   UNL     1     -12.387   7.158  20.574  0.00  0.00    +0.008 A 
ATOM     24  C   UNL     1     -12.975   9.395  21.269  0.00  0.00    +0.008 A 
ATOM     25  C   UNL     1     -11.306   7.664  19.853  0.00  0.00    +0.046 A 
ATOM     26  C   UNL     1     -11.894   9.903  20.548  0.00  0.00    +0.046 A 
ATOM     27  C   UNL     1     -11.059   9.038  19.840  0.00  0.00    +0.120 A 
BRANCH  27   4
ATOM      4  O   UNL     1     -10.005   9.533  19.136  0.00  0.00    -0.495 OA
ATOM     28  C   UNL     1      -9.989   9.283  17.731  0.00  0.00    +0.277 C 
ENDBRANCH  27   4
ENDBRANCH  13  21
ENDBRANCH   5  13
ENDBRANCH   8   5
BRANCH   8  11
ATOM     11  C   UNL     1     -16.628   6.391  23.281  0.00  0.00    +0.085 C 
BRANCH  11  12
ATOM      2  O   UNL     1     -14.970   3.522  24.615  0.00  0.00    -0.350 OA
ATOM      7  N   UNL     1     -14.985   4.702  23.882  0.00  0.00    -0.082 NA
ATOM     12  C   UNL     1     -16.243   5.141  23.958  0.00  0.00    +0.086 A 
ATOM     19  C   UNL     1     -17.061   4.287  24.718  0.00  0.00    +0.081 A 
ATOM     20  C   UNL     1     -16.212   3.286  25.108  0.00  0.00    +0.222 A 
BRANCH  20  22
ATOM      3  O   UNL     1     -16.447   1.012  25.309  0.00  0.00    -0.267 OA
ATOM      6  N   UNL     1     -16.582   2.234  27.298  0.00  0.00    -0.295 N 
ATOM     14  C   UNL     1     -17.383   1.363  28.169  0.00  0.00    +0.108 C 
ATOM     15  C   UNL     1     -15.965   3.374  27.976  0.00  0.00    +0.108 C 
ATOM     16  C   UNL     1     -16.538   0.844  29.330  0.00  0.00    +0.019 C 
ATOM     17  C   UNL     1     -15.094   2.903  29.139  0.00  0.00    +0.019 C 
ATOM     18  C   UNL     1     -15.877   1.995  30.088  0.00  0.00    +0.003 C 
ATOM     22  C   UNL     1     -16.421   2.080  25.920  0.00  0.00    +0.285 C 
ENDBRANCH  20  22
ENDBRANCH  11  12
ENDBRANCH   8  11
TORSDOF 7
ENDMDL
MODEL 6
REMARK VINA RESULT:      -5.9     12.886     16.658
REMARK  Name = 56775821
REMARK  8 active torsions:
REMARK  status: ('A' for Active; 'I' for Inactive)
REMARK    1  A    between atoms: O_4  and  C_27
REMARK    2  A    between atoms: O_4  and  C_28
REMARK    3  A    between atoms: N_5  and  C_8
REMARK    4  A    between atoms: N_5  and  C_13
REMARK    5  A    between atoms: C_8  and  C_11
REMARK    6  A    between atoms: C_11  and  C_12
REMARK    7  A    between atoms: C_13  and  C_21
REMARK    8  A    between atoms: C_20  and  C_22
REMARK                            x       y       z     vdW  Elec       q    Type
REMARK                         _______ _______ _______ _____ _____    ______ ____
ROOT
ATOM      1  O   UNL     1      10.154  11.796   3.169  0.00  0.00    -0.376 OA
ATOM      8  C   UNL     1       9.149   9.951   3.546  0.00  0.00    +0.072 C 
ATOM      9  C   UNL     1       8.860  11.440   3.706  0.00  0.00    +0.184 C 
ATOM     10  C   UNL     1      10.454  10.407   2.903  0.00  0.00    +0.184 C 
ENDROOT
BRANCH   8   5
ATOM      5  N   UNL     1       9.443   9.387   4.857  0.00  0.00    -0.302 NA
ATOM     29  H   UNL     1       9.677  10.066   5.578  0.00  0.00    +0.123 HD
BRANCH   5  13
ATOM     13  C   UNL     1       8.323   8.561   5.301  0.00  0.00    +0.117 C 
BRANCH  13  21
ATOM     21  C   UNL     1       8.766   7.472   6.240  0.00  0.00    -0.033 A 
ATOM     23  C   UNL     1       9.169   6.236   5.735  0.00  0.00    +0.008 A 
ATOM     24  C   UNL     1       8.777   7.699   7.616  0.00  0.00    +0.008 A 
ATOM     25  C   UNL     1       9.581   5.227   6.605  0.00  0.00    +0.046 A 
ATOM     26  C   UNL     1       9.189   6.691   8.487  0.00  0.00    +0.046 A 
ATOM     27  C   UNL     1       9.590   5.454   7.981  0.00  0.00    +0.120 A 
BRANCH  27   4
ATOM      4  O   UNL     1       9.993   4.470   8.831  0.00  0.00    -0.495 OA
ATOM     28  C   UNL     1       9.319   4.380  10.086  0.00  0.00    +0.277 C 
ENDBRANCH  27   4
ENDBRANCH  13  21
ENDBRANCH   5  13
ENDBRANCH   8   5
BRANCH   8  11
ATOM     11  C   UNL     1       8.179   9.089   2.728  0.00  0.00    +0.085 C 
BRANCH  11  12
ATOM      2  O   UNL     1       9.845   7.244   0.163  0.00  0.00    -0.350 OA
ATOM      7  N   UNL     1       9.163   8.362   0.626  0.00  0.00    -0.082 NA
ATOM     12  C   UNL     1       8.905   8.103   1.910  0.00  0.00    +0.086 A 
ATOM     19  C   UNL     1       9.395   6.847   2.310  0.00  0.00    +0.081 A 
ATOM     20  C   UNL     1       9.977   6.349   1.175  0.00  0.00    +0.222 A 
BRANCH  20  22
ATOM      3  O   UNL     1      10.094   4.297   0.155  0.00  0.00    -0.267 OA
ATOM      6  N   UNL     1      11.914   4.872   1.504  0.00  0.00    -0.295 N 
ATOM     14  C   UNL     1      12.463   3.567   1.895  0.00  0.00    +0.108 C 
ATOM     15  C   UNL     1      12.758   6.017   1.848  0.00  0.00    +0.108 C 
ATOM     16  C   UNL     1      13.844   3.360   1.278  0.00  0.00    +0.019 C 
ATOM     17  C   UNL     1      14.149   5.864   1.236  0.00  0.00    +0.019 C 
ATOM     18  C   UNL     1      14.778   4.522   1.616  0.00  0.00    +0.003 C 
ATOM     22  C   UNL     1      10.673   5.085   0.900  0.00  0.00    +0.285 C 
ENDBRANCH  20  22
ENDBRANCH  11  12
ENDBRANCH   8  11
TORSDOF 7
ENDMDL
MODEL 7
REMARK VINA RESULT:      -5.9     27.186     29.723
REMARK  Name = 56775821
REMARK  8 active torsions:
REMARK  status: ('A' for Active; 'I' for Inactive)
REMARK    1  A    between atoms: O_4  and  C_27
REMARK    2  A    between atoms: O_4  and  C_28
REMARK    3  A    between atoms: N_5  and  C_8
REMARK    4  A    between atoms: N_5  and  C_13
REMARK    5  A    between atoms: C_8  and  C_11
REMARK    6  A    between atoms: C_11  and  C_12
REMARK    7  A    between atoms: C_13  and  C_21
REMARK    8  A    between atoms: C_20  and  C_22
REMARK                            x       y       z     vdW  Elec       q    Type
REMARK                         _______ _______ _______ _____ _____    ______ ____
ROOT
ATOM      1  O   UNL     1      -2.272 -13.945  14.136  0.00  0.00    -0.376 OA
ATOM      8  C   UNL     1      -2.999 -11.990  14.587  0.00  0.00    +0.072 C 
ATOM      9  C   UNL     1      -3.399 -13.432  14.881  0.00  0.00    +0.184 C 
ATOM     10  C   UNL     1      -1.786 -12.605  13.900  0.00  0.00    +0.184 C 
ENDROOT
BRANCH   8   5
ATOM      5  N   UNL     1      -3.894 -11.455  13.569  0.00  0.00    -0.302 NA
ATOM     29  H   UNL     1      -4.794 -11.126  13.913  0.00  0.00    +0.123 HD
BRANCH   5  13
ATOM     13  C   UNL     1      -3.223 -10.382  12.838  0.00  0.00    +0.117 C 
BRANCH  13  21
ATOM     21  C   UNL     1      -4.030  -9.921  11.654  0.00  0.00    -0.033 A 
ATOM     23  C   UNL     1      -5.417  -9.816  11.752  0.00  0.00    +0.008 A 
ATOM     24  C   UNL     1      -3.389  -9.596  10.458  0.00  0.00    +0.008 A 
ATOM     25  C   UNL     1      -6.164  -9.388  10.656  0.00  0.00    +0.046 A 
ATOM     26  C   UNL     1      -4.136  -9.168   9.361  0.00  0.00    +0.046 A 
ATOM     27  C   UNL     1      -5.524  -9.064   9.459  0.00  0.00    +0.120 A 
BRANCH  27   4
ATOM      4  O   UNL     1      -6.252  -8.645   8.389  0.00  0.00    -0.495 OA
ATOM     28  C   UNL     1      -6.412  -9.567   7.311  0.00  0.00    +0.277 C 
ENDBRANCH  27   4
ENDBRANCH  13  21
ENDBRANCH   5  13
ENDBRANCH   8   5
BRANCH   8  11
ATOM     11  C   UNL     1      -2.780 -11.024  15.759  0.00  0.00    +0.085 C 
BRANCH  11  12
ATOM      2  O   UNL     1      -5.975 -10.035  17.012  0.00  0.00    -0.350 OA
ATOM      7  N   UNL     1      -4.958  -9.987  16.067  0.00  0.00    -0.082 NA
ATOM     12  C   UNL     1      -4.023 -10.824  16.523  0.00  0.00    +0.086 A 
ATOM     19  C   UNL     1      -4.390 -11.422  17.741  0.00  0.00    +0.081 A 
ATOM     20  C   UNL     1      -5.626 -10.893  18.004  0.00  0.00    +0.222 A 
BRANCH  20  22
ATOM      3  O   UNL     1      -6.386 -10.394  20.110  0.00  0.00    -0.267 OA
ATOM      6  N   UNL     1      -7.567 -12.053  18.963  0.00  0.00    -0.295 N 
ATOM     14  C   UNL     1      -8.165 -12.845  20.047  0.00  0.00    +0.108 C 
ATOM     15  C   UNL     1      -8.064 -12.377  17.626  0.00  0.00    +0.108 C 
ATOM     16  C   UNL     1      -9.685 -12.699  20.041  0.00  0.00    +0.019 C 
ATOM     17  C   UNL     1      -9.583 -12.229  17.565  0.00  0.00    +0.019 C 
ATOM     18  C   UNL     1     -10.265 -13.040  18.668  0.00  0.00    +0.003 C 
ATOM     22  C   UNL     1      -6.565 -11.093  19.114  0.00  0.00    +0.285 C 
ENDBRANCH  20  22
ENDBRANCH  11  12
ENDBRANCH   8  11
TORSDOF 7
ENDMDL
MODEL 8
REMARK VINA RESULT:      -5.8     27.189     29.143
REMARK  Name = 56775821
REMARK  8 active torsions:
REMARK  status: ('A' for Active; 'I' for Inactive)
REMARK    1  A    between atoms: O_4  and  C_27
REMARK    2  A    between atoms: O_4  and  C_28
REMARK    3  A    between atoms: N_5  and  C_8
REMARK    4  A    between atoms: N_5  and  C_13
REMARK    5  A    between atoms: C_8  and  C_11
REMARK    6  A    between atoms: C_11  and  C_12
REMARK    7  A    between atoms: C_13  and  C_21
REMARK    8  A    between atoms: C_20  and  C_22
REMARK                            x       y       z     vdW  Elec       q    Type
REMARK                         _______ _______ _______ _____ _____    ______ ____
ROOT
ATOM      1  O   UNL     1      -5.695 -11.512  19.695  0.00  0.00    -0.376 OA
ATOM      8  C   UNL     1      -5.608 -11.629  17.566  0.00  0.00    +0.072 C 
ATOM      9  C   UNL     1      -4.730 -11.108  18.698  0.00  0.00    +0.184 C 
ATOM     10  C   UNL     1      -6.532 -12.109  18.679  0.00  0.00    +0.184 C 
ENDROOT
BRANCH   8   5
ATOM      5  N   UNL     1      -6.230 -10.495  16.896  0.00  0.00    -0.302 NA
ATOM     29  H   UNL     1      -5.612  -9.952  16.297  0.00  0.00    +0.123 HD
BRANCH   5  13
ATOM     13  C   UNL     1      -7.388 -10.949  16.129  0.00  0.00    +0.117 C 
BRANCH  13  21
ATOM     21  C   UNL     1      -8.522  -9.962  16.187  0.00  0.00    -0.033 A 
ATOM     23  C   UNL     1      -8.581  -9.025  17.218  0.00  0.00    +0.008 A 
ATOM     24  C   UNL     1      -9.516  -9.984  15.209  0.00  0.00    +0.008 A 
ATOM     25  C   UNL     1      -9.631  -8.110  17.272  0.00  0.00    +0.046 A 
ATOM     26  C   UNL     1     -10.568  -9.069  15.262  0.00  0.00    +0.046 A 
ATOM     27  C   UNL     1     -10.626  -8.132  16.294  0.00  0.00    +0.120 A 
BRANCH  27   4
ATOM      4  O   UNL     1     -11.651  -7.239  16.345  0.00  0.00    -0.495 OA
ATOM     28  C   UNL     1     -11.342  -5.879  16.041  0.00  0.00    +0.277 C 
ENDBRANCH  27   4
ENDBRANCH  13  21
ENDBRANCH   5  13
ENDBRANCH   8   5
BRANCH   8  11
ATOM     11  C   UNL     1      -5.027 -12.657  16.586  0.00  0.00    +0.085 C 
BRANCH  11  12
ATOM      2  O   UNL     1      -3.084 -10.596  14.410  0.00  0.00    -0.350 OA
ATOM      7  N   UNL     1      -3.521 -10.981  15.671  0.00  0.00    -0.082 NA
ATOM     12  C   UNL     1      -4.363 -11.993  15.451  0.00  0.00    +0.086 A 
ATOM     19  C   UNL     1      -4.498 -12.288  14.083  0.00  0.00    +0.081 A 
ATOM     20  C   UNL     1      -3.673 -11.381  13.472  0.00  0.00    +0.222 A 
BRANCH  20  22
ATOM      3  O   UNL     1      -2.634 -11.983  11.517  0.00  0.00    -0.267 OA
ATOM      6  N   UNL     1      -3.859  -9.993  11.453  0.00  0.00    -0.295 N 
ATOM     14  C   UNL     1      -3.218  -9.243  10.365  0.00  0.00    +0.108 C 
ATOM     15  C   UNL     1      -5.111  -9.411  11.940  0.00  0.00    +0.108 C 
ATOM     16  C   UNL     1      -4.175  -9.086   9.186  0.00  0.00    +0.019 C 
ATOM     17  C   UNL     1      -6.110  -9.250  10.796  0.00  0.00    +0.019 C 
ATOM     18  C   UNL     1      -5.500  -8.467   9.632  0.00  0.00    +0.003 C 
ATOM     22  C   UNL     1      -3.349 -11.142  12.060  0.00  0.00    +0.285 C 
ENDBRANCH  20  22
ENDBRANCH  11  12
ENDBRANCH   8  11
TORSDOF 7
ENDMDL
MODEL 9
REMARK VINA RESULT:      -5.7      4.533     10.623
REMARK  Name = 56775821
REMARK  8 active torsions:
REMARK  status: ('A' for Active; 'I' for Inactive)
REMARK    1  A    between atoms: O_4  and  C_27
REMARK    2  A    between atoms: O_4  and  C_28
REMARK    3  A    between atoms: N_5  and  C_8
REMARK    4  A    between atoms: N_5  and  C_13
REMARK    5  A    between atoms: C_8  and  C_11
REMARK    6  A    between atoms: C_11  and  C_12
REMARK    7  A    between atoms: C_13  and  C_21
REMARK    8  A    between atoms: C_20  and  C_22
REMARK                            x       y       z     vdW  Elec       q    Type
REMARK                         _______ _______ _______ _____ _____    ______ ____
ROOT
ATOM      1  O   UNL     1      20.326   9.885  23.480  0.00  0.00    -0.376 OA
ATOM      8  C   UNL     1      19.817   8.277  22.171  0.00  0.00    +0.072 C 
ATOM      9  C   UNL     1      19.935   9.795  22.090  0.00  0.00    +0.184 C 
ATOM     10  C   UNL     1      20.324   8.444  23.599  0.00  0.00    +0.184 C 
ENDROOT
BRANCH   8   5
ATOM      5  N   UNL     1      18.405   7.919  22.213  0.00  0.00    -0.302 NA
ATOM     29  H   UNL     1      17.760   8.705  22.262  0.00  0.00    +0.123 HD
BRANCH   5  13
ATOM     13  C   UNL     1      18.075   7.079  21.064  0.00  0.00    +0.117 C 
BRANCH  13  21
ATOM     21  C   UNL     1      16.600   7.094  20.764  0.00  0.00    -0.033 A 
ATOM     23  C   UNL     1      15.681   7.312  21.789  0.00  0.00    +0.008 A 
ATOM     24  C   UNL     1      16.153   6.893  19.458  0.00  0.00    +0.008 A 
ATOM     25  C   UNL     1      14.314   7.326  21.511  0.00  0.00    +0.046 A 
ATOM     26  C   UNL     1      14.786   6.907  19.178  0.00  0.00    +0.046 A 
ATOM     27  C   UNL     1      13.867   7.124  20.205  0.00  0.00    +0.120 A 
BRANCH  27   4
ATOM      4  O   UNL     1      12.534   7.139  19.932  0.00  0.00    -0.495 OA
ATOM     28  C   UNL     1      11.645   6.892  21.022  0.00  0.00    +0.277 C 
ENDBRANCH  27   4
ENDBRANCH  13  21
ENDBRANCH   5  13
ENDBRANCH   8   5
BRANCH   8  11
ATOM     11  C   UNL     1      20.624   7.414  21.192  0.00  0.00    +0.085 C 
BRANCH  11  12
ATOM      2  O   UNL     1      23.468   5.980  22.808  0.00  0.00    -0.350 OA
ATOM      7  N   UNL     1      22.832   7.010  22.127  0.00  0.00    -0.082 NA
ATOM     12  C   UNL     1      21.592   6.566  21.906  0.00  0.00    +0.086 A 
ATOM     19  C   UNL     1      21.390   5.272  22.419  0.00  0.00    +0.081 A 
ATOM     20  C   UNL     1      22.600   4.950  22.976  0.00  0.00    +0.222 A 
BRANCH  20  22
ATOM      3  O   UNL     1      22.577   3.538  24.784  0.00  0.00    -0.267 OA
ATOM      6  N   UNL     1      24.034   2.957  23.051  0.00  0.00    -0.295 N 
ATOM     14  C   UNL     1      25.058   2.154  23.733  0.00  0.00    +0.108 C 
ATOM     15  C   UNL     1      24.108   2.927  21.589  0.00  0.00    +0.108 C 
ATOM     16  C   UNL     1      24.997   0.701  23.269  0.00  0.00    +0.019 C 
ATOM     17  C   UNL     1      24.033   1.491  21.075  0.00  0.00    +0.019 C 
ATOM     18  C   UNL     1      25.086   0.605  21.745  0.00  0.00    +0.003 C 
ATOM     22  C   UNL     1      23.070   3.749  23.677  0.00  0.00    +0.285 C 
ENDBRANCH  20  22
ENDBRANCH  11  12
ENDBRANCH   8  11
TORSDOF 7
ENDMDL
MODEL 10
REMARK VINA RESULT:      -5.7     13.322     17.089
REMARK  Name = 56775821
REMARK  8 active torsions:
REMARK  status: ('A' for Active; 'I' for Inactive)
REMARK    1  A    between atoms: O_4  and  C_27
REMARK    2  A    between atoms: O_4  and  C_28
REMARK    3  A    between atoms: N_5  and  C_8
REMARK    4  A    between atoms: N_5  and  C_13
REMARK    5  A    between atoms: C_8  and  C_11
REMARK    6  A    between atoms: C_11  and  C_12
REMARK    7  A    between atoms: C_13  and  C_21
REMARK    8  A    between atoms: C_20  and  C_22
REMARK                            x       y       z     vdW  Elec       q    Type
REMARK                         _______ _______ _______ _____ _____    ______ ____
ROOT
ATOM      1  O   UNL     1      10.175  10.102   1.627  0.00  0.00    -0.376 OA
ATOM      8  C   UNL     1       9.708   8.231   2.540  0.00  0.00    +0.072 C 
ATOM      9  C   UNL     1       8.947   9.432   1.992  0.00  0.00    +0.184 C 
ATOM     10  C   UNL     1      10.952   8.957   2.042  0.00  0.00    +0.184 C 
ENDROOT
BRANCH   8   5
ATOM      5  N   UNL     1       9.684   8.285   3.996  0.00  0.00    -0.302 NA
ATOM     29  H   UNL     1       9.621   9.220   4.394  0.00  0.00    +0.123 HD
BRANCH   5  13
ATOM     13  C   UNL     1       8.592   7.457   4.502  0.00  0.00    +0.117 C 
BRANCH  13  21
ATOM     21  C   UNL     1       8.961   6.768   5.789  0.00  0.00    -0.033 A 
ATOM     23  C   UNL     1       9.453   5.463   5.766  0.00  0.00    +0.008 A 
ATOM     24  C   UNL     1       8.812   7.435   7.005  0.00  0.00    +0.008 A 
ATOM     25  C   UNL     1       9.795   4.825   6.958  0.00  0.00    +0.046 A 
ATOM     26  C   UNL     1       9.154   6.797   8.197  0.00  0.00    +0.046 A 
ATOM     27  C   UNL     1       9.645   5.493   8.174  0.00  0.00    +0.120 A 
BRANCH  27   4
ATOM      4  O   UNL     1       9.980   4.871   9.337  0.00  0.00    -0.495 OA
ATOM     28  C   UNL     1       8.926   4.617  10.265  0.00  0.00    +0.277 C 
ENDBRANCH  27   4
ENDBRANCH  13  21
ENDBRANCH   5  13
ENDBRANCH   8   5
BRANCH   8  11
ATOM     11  C   UNL     1       9.392   6.834   1.989  0.00  0.00    +0.085 C 
BRANCH  11  12
ATOM      2  O   UNL     1      12.387   4.931   2.399  0.00  0.00    -0.350 OA
ATOM      7  N   UNL     1      11.308   5.648   2.902  0.00  0.00    -0.082 NA
ATOM     12  C   UNL     1      10.619   6.036   1.827  0.00  0.00    +0.086 A 
ATOM     19  C   UNL     1      11.209   5.599   0.628  0.00  0.00    +0.081 A 
ATOM     20  C   UNL     1      12.317   4.908   1.044  0.00  0.00    +0.222 A 
BRANCH  20  22
ATOM      3  O   UNL     1      13.044   3.123  -0.200  0.00  0.00    -0.267 OA
ATOM      6  N   UNL     1      14.635   4.778   0.239  0.00  0.00    -0.295 N 
ATOM     14  C   UNL     1      15.907   4.050   0.145  0.00  0.00    +0.108 C 
ATOM     15  C   UNL     1      14.770   6.233   0.322  0.00  0.00    +0.108 C 
ATOM     16  C   UNL     1      16.715   4.535  -1.056  0.00  0.00    +0.019 C 
ATOM     17  C   UNL     1      15.559   6.770  -0.871  0.00  0.00    +0.019 C 
ATOM     18  C   UNL     1      16.902   6.052  -1.017  0.00  0.00    +0.003 C 
ATOM     22  C   UNL     1      13.367   4.197   0.304  0.00  0.00    +0.285 C 
ENDBRANCH  20  22
ENDBRANCH  11  12
ENDBRANCH   8  11
TORSDOF 7
ENDMDL
